@<TRIPOS>MOLECULE
tmp/6ef3Q01.pdb
 156 148 0 0 0
SMALL
GASTEIGER

@<TRIPOS>ATOM
      1  N        210.2060  173.0890  176.1720 N.3   127  MET127     -0.1230
      2  CA       209.3630  172.0410  175.6220 C.3   127  MET127      0.1702
      3  C        209.3070  172.1170  174.1050 C.2   127  MET127      0.2592
      4  O        208.8960  171.1490  173.4610 O.2   127  MET127     -0.2718
      5  CB       207.9640  172.1480  176.2060 C.3   127  MET127      0.0401
      6  CG       207.0450  171.0390  175.8160 C.3   127  MET127      0.0596
      7  SD       205.4510  171.1690  176.6240 S.3   127  MET127     -0.1393
      8  CE       205.9110  170.7450  178.2970 C.3   127  MET127      0.0692
      9  N        209.7140  173.2430  173.5310 N.am  128  VAL128     -0.1966
     10  CA       209.7890  173.4390  172.0930 C.3   128  VAL128      0.1727
     11  C        211.2470  173.6040  171.7080 C.2   128  VAL128      0.2616
     12  O        212.0500  174.1770  172.4500 O.2   128  VAL128     -0.2715
     13  CB       208.9440  174.6490  171.6400 C.3   128  VAL128      0.0290
     14  CG1      209.2940  175.8670  172.3870 C.3   128  VAL128      0.0023
     15  CG2      209.1550  174.9240  170.1960 C.3   128  VAL128      0.0023
     16  N        211.5830  173.0830  170.5410 N.am  129  GLY129     -0.1955
     17  CA       212.9050  173.2260  169.9820 C.3   129  GLY129      0.1869
     18  C        212.8430  173.2560  168.4730 C.2   129  GLY129      0.2309
     19  O        211.7620  173.3600  167.8930 O.2   129  GLY129     -0.2863
     20  N        213.4240  175.5610  166.4850 N.3   131  LEU131     -0.1245
     21  CA       213.3340  176.9040  165.9530 C.3   131  LEU131      0.1561
     22  C        213.3650  177.8830  167.1050 C.2   131  LEU131      0.2260
     23  O        212.6350  177.7160  168.0830 O.2   131  LEU131     -0.2867
     24  CB       212.0640  177.0780  165.1260 C.3   131  LEU131      0.0270
     25  CG       210.7140  177.3760  165.7630 C.3   131  LEU131      0.0019
     26  CD1      209.8000  177.8060  164.6750 C.3   131  LEU131      0.0001
     27  CD2      210.1490  176.1990  166.4800 C.3   131  LEU131      0.0001
     28  N        200.2580  172.6090  158.6050 N.3   169  PRO169     -0.2102
     29  CA       199.9750  172.0350  159.9100 C.3   169  PRO169      0.1504
     30  C        201.0990  171.1140  160.3290 C.2   169  PRO169      0.2576
     31  O        201.9440  170.7100  159.5320 O.2   169  PRO169     -0.2718
     32  CB       198.6890  171.2630  159.6660 C.3   169  PRO169      0.0282
     33  CG       198.7840  170.8740  158.2860 C.3   169  PRO169      0.0208
     34  CD       199.4490  171.9720  157.5660 C.3   169  PRO169      0.0893
     35  N        201.1050  170.7910  161.6070 N.am  170  GLY170     -0.1943
     36  CA       202.0410  169.8130  162.0940 C.3   170  GLY170      0.2014
     37  C        203.4340  170.3820  162.0960 C.2   170  GLY170      0.2640
     38  O        204.3930  169.7540  161.6410 O.2   170  GLY170     -0.2714
     39  N        203.5300  171.6000  162.5980 N.am  171  THR171     -0.1936
     40  CA       204.7820  172.3240  162.6870 C.3   171  THR171      0.2028
     41  C        204.9790  172.9040  164.0730 C.2   171  THR171      0.2643
     42  O        206.1120  173.1130  164.5120 O.2   171  THR171     -0.2714
     43  CB       204.7910  173.4150  161.6460 C.3   171  THR171      0.1808
     44  OG1      204.7710  172.8290  160.3450 O.3   171  THR171     -0.2208
     45  CG2      205.9670  174.2470  161.7890 C.3   171  THR171      0.0379
     46  N        203.8790  173.1740  164.7580 N.am  172  GLY172     -0.1939
     47  CA       203.9080  173.5710  166.1410 C.3   172  GLY172      0.2014
     48  C        203.6410  175.0380  166.3290 C.2   172  GLY172      0.2639
     49  O        204.2870  175.7000  167.1410 O.2   172  GLY172     -0.2714
     50  N        202.6750  175.5510  165.5810 N.am  173  LYS173     -0.1963
     51  CA       202.3260  176.9560  165.6750 C.3   173  LYS173      0.1728
     52  C        201.2700  177.2230  166.7340 C.2   173  LYS173      0.2617
     53  O        201.4100  178.1620  167.5210 O.2   173  LYS173     -0.2715
     54  CB       201.8780  177.4670  164.3140 C.3   173  LYS173      0.0311
     55  CG       200.6360  176.9040  163.7330 C.3   173  LYS173      0.0038
     56  CD       200.2790  177.5880  162.4340 C.3   173  LYS173      0.0206
     57  CE       201.0300  177.0970  161.2720 C.3   173  LYS173      0.1093
     58  NZ       200.5950  175.7560  160.9600 N.3   173  LYS173     -0.1314
     59  N        200.2230  176.4100  166.7840 N.am  174  THR174     -0.1937
     60  CA       199.2690  176.5030  167.8710 C.3   174  THR174      0.2028
     61  C        199.8690  176.0080  169.1710 C.2   174  THR174      0.2642
     62  O        199.3470  176.3080  170.2460 O.2   174  THR174     -0.2714
     63  CB       198.0240  175.7160  167.5140 C.3   174  THR174      0.1808
     64  OG1      197.4730  176.2240  166.2960 O.3   174  THR174     -0.2208
     65  CG2      197.0250  175.8150  168.5830 C.3   174  THR174      0.0379
     66  N        200.9570  175.2510  169.0900 N.am  175  LEU175     -0.1977
     67  CA       201.7650  174.9760  170.2630 C.3   175  LEU175      0.1596
     68  C        202.1960  176.2640  170.9230 C.2   175  LEU175      0.2287
     69  O        202.0510  176.4470  172.1360 O.2   175  LEU175     -0.2864
     70  CB       202.9950  174.1800  169.8500 C.3   175  LEU175      0.0297
     71  CG       203.9850  173.6430  170.8780 C.3   175  LEU175      0.0022
     72  CD1      204.9000  174.6950  171.3920 C.3   175  LEU175      0.0001
     73  CD2      203.2870  172.9820  172.0080 C.3   175  LEU175      0.0001
     74  N        199.9840  178.3700  173.1530 N.3   178  ARG178     -0.1245
     75  CA       199.8480  177.7850  174.4750 C.3   178  ARG178      0.1563
     76  C        201.0620  178.1220  175.3190 C.2   178  ARG178      0.2260
     77  O        200.9400  178.4160  176.5110 O.2   178  ARG178     -0.2867
     78  CB       199.6670  176.2690  174.3970 C.3   178  ARG178      0.0307
     79  CG       198.3530  175.8390  173.8900 C.3   178  ARG178      0.0489
     80  CD       198.1980  174.3510  173.9180 C.3   178  ARG178      0.2205
     81  NE       199.0410  173.7040  172.9330 N.pl3 178  ARG178     -0.0865
     82  CZ       199.0070  172.4060  172.6410 C.cat 178  ARG178      0.5346
     83  NH1      198.1270  171.5900  173.2140 N.pl3 178  ARG178      0.1354
     84  NH2      199.8390  171.9240  171.7280 N.pl3 178  ARG178      0.1354
     85  N        192.8780  181.3880  165.6550 N.3   226  ASP226     -0.1239
     86  CA       192.7670  180.7680  164.3450 C.3   226  ASP226      0.1674
     87  C        191.5900  181.4160  163.6290 C.2   226  ASP226      0.2266
     88  O        190.4870  181.4790  164.1820 O.2   226  ASP226     -0.2867
     89  CB       192.5890  179.2660  164.4620 C.3   226  ASP226      0.1410
     90  CG       192.5360  178.5760  163.1100 C.2   226  ASP226      0.3668
     91  OD1      192.6410  179.2530  162.0710 O.co2 226  ASP226     -0.2456
     92  OD2      192.3700  177.3460  163.0760 O.co2 226  ASP226     -0.2456
     93  N        196.8150  182.9800  163.5640 N.3   271  ALA271     -0.1231
     94  CA       197.4300  181.8480  162.9210 C.3   271  ALA271      0.1694
     95  C        196.6120  181.4210  161.7260 C.2   271  ALA271      0.2593
     96  O        195.5260  181.9360  161.4600 O.2   271  ALA271     -0.2718
     97  CB       197.5450  180.6880  163.8800 C.3   271  ALA271      0.0304
     98  N        197.1480  180.4440  161.0230 N.am  272  THR272     -0.1939
     99  CA       196.4980  179.8880  159.8540 C.3   272  THR272      0.2028
    100  C        197.2930  178.6850  159.3910 C.2   272  THR272      0.2642
    101  O        198.3300  178.3340  159.9570 O.2   272  THR272     -0.2714
    102  CB       196.3880  180.8940  158.7210 C.3   272  THR272      0.1808
    103  OG1      195.6010  180.3330  157.6700 O.3   272  THR272     -0.2208
    104  CG2      197.7250  181.2090  158.1760 C.3   272  THR272      0.0379
    105  N        196.7780  178.0640  158.3470 N.am  273  ASN273     -0.1971
    106  CA       197.4870  177.0870  157.5520 C.3   273  ASN273      0.1688
    107  C        197.6840  177.5540  156.1240 C.2   273  ASN273      0.2292
    108  O        198.3600  176.8780  155.3470 O.2   273  ASN273     -0.2864
    109  CB       196.7180  175.7880  157.5770 C.3   273  ASN273      0.1181
    110  CG       196.8210  175.0990  158.8980 C.2   273  ASN273      0.2629
    111  OD1      197.9140  174.9190  159.4290 O.2   273  ASN273     -0.2716
    112  ND2      195.6840  174.7650  159.4760 N.am  273  ASN273     -0.0877
    113  N        213.8130  167.8180  168.3880 N.3   305  ILE305     -0.1245
    114  CA       212.3910  167.5840  168.5990 C.3   305  ILE305      0.1561
    115  C        212.1560  166.2310  169.2530 C.2   305  ILE305      0.2260
    116  O        211.1100  166.0030  169.8690 O.2   305  ILE305     -0.2867
    117  CB       211.6290  167.6880  167.2680 C.3   305  ILE305      0.0252
    118  CG1      211.8640  169.0390  166.5970 C.3   305  ILE305      0.0019
    119  CG2      210.1920  167.4280  167.4750 C.3   305  ILE305      0.0019
    120  CD1      211.4890  170.2400  167.3970 C.3   305  ILE305      0.0001
    121  N        213.2530  166.0910  173.2830 N.3   308  ILE308     -0.1231
    122  CA       212.2780  166.6750  174.1960 C.3   308  ILE308      0.1692
    123  C        211.0880  165.7520  174.3600 C.2   308  ILE308      0.2592
    124  O        210.5170  165.6410  175.4490 O.2   308  ILE308     -0.2718
    125  CB       211.8500  168.0700  173.7200 C.3   308  ILE308      0.0266
    126  CG1      211.1510  168.0260  172.3800 C.3   308  ILE308      0.0019
    127  CG2      213.0170  168.9570  173.6140 C.3   308  ILE308      0.0020
    128  CD1      209.6620  168.0600  172.4880 C.3   308  ILE308      0.0001
    129  N        210.6870  165.0790  173.2890 N.am  309  HIS309     -0.1976
    130  CA       209.5990  164.1260  173.4140 C.3   309  HIS309      0.1656
    131  C        210.0530  162.8570  174.1120 C.2   309  HIS309      0.2291
    132  O        209.2280  162.1210  174.6630 O.2   309  HIS309     -0.2864
    133  CB       209.0220  163.7910  172.0560 C.3   309  HIS309      0.0771
    134  CG       208.0590  164.8100  171.5360 C.ar  309  HIS309      0.0820
    135  ND1      208.4070  165.7930  170.6360 N.ar  309  HIS309     -0.2267
    136  CD2      206.7500  165.0030  171.8120 C.ar  309  HIS309      0.1154
    137  CE1      207.3470  166.5330  170.3660 C.ar  309  HIS309      0.1986
    138  NE2      206.3310  166.0760  171.0710 N.ar  309  HIS309     -0.2212
    139  N        206.6880  168.4670  161.4990 N.3   333  GLY333     -0.1210
    140  CA       207.4710  168.5400  162.7060 C.3   333  GLY333      0.1956
    141  C        206.7160  167.9670  163.8880 C.2   333  GLY333      0.2611
    142  O        207.1130  168.1670  165.0380 O.2   333  GLY333     -0.2717
    143  N        205.6310  167.2440  163.6130 N.am  334  ALA334     -0.1979
    144  CA       204.8030  166.6300  164.6350 C.3   334  ALA334      0.1597
    145  C        204.5470  165.1670  164.3920 C.2   334  ALA334      0.2287
    146  O        204.1620  164.4640  165.3330 O.2   334  ALA334     -0.2864
    147  CB       203.4500  167.3160  164.7180 C.3   334  ALA334      0.0319
    148  N        206.2350  163.2720  166.7810 N.3   337  LYS337     -0.1245
    149  CA       205.6000  163.1340  168.0830 C.3   337  LYS337      0.1561
    150  C        204.7730  161.8710  168.1540 C.2   337  LYS337      0.2260
    151  O        204.5720  161.3190  169.2390 O.2   337  LYS337     -0.2867
    152  CB       204.7280  164.3470  168.3850 C.3   337  LYS337      0.0271
    153  CG       203.9090  164.1520  169.6530 C.3   337  LYS337      0.0035
    154  CD       202.9790  165.3190  169.9240 C.3   337  LYS337      0.0206
    155  CE       201.8470  164.8830  170.8410 C.3   337  LYS337      0.1093
    156  NZ       200.6950  165.8340  170.8130 N.3   337  LYS337     -0.1314
@<TRIPOS>BOND
     1   108   107    2
     2   107   106    1
     3   106   109    1
     4   106   105    1
     5    34    33    1
     6    34    28    1
     7   109   110    1
     8   103   102    1
     9   104   102    1
    10    33    32    1
    11   105   100   am
    12    28    29    1
    13   102    99    1
    14   110   111    2
    15   110   112   am
    16   100    99    1
    17   100   101    2
    18    31    30    2
    19    32    29    1
    20    99    98    1
    21    29    30    1
    22    30    35   am
    23    44    43    1
    24    58    57    1
    25    98    95   am
    26    57    56    1
    27    96    95    2
    28   139   140    1
    29    35    36    1
    30    38    37    2
    31    43    45    1
    32    43    40    1
    33    95    94    1
    34    91    90   ar
    35    36    37    1
    36    37    39   am
    37    56    55    1
    38    39    40    1
    39    40    41    1
    40   140   141    1
    41    94    93    1
    42    94    97    1
    43    92    90   ar
    44    90    89    1
    45   143   141   am
    46   143   144    1
    47    87    88    2
    48    87    86    1
    49    55    54    1
    50   141   142    2
    51    41    42    2
    52    41    46   am
    53    54    51    1
    54    86    89    1
    55    86    85    1
    56   145   144    1
    57   145   146    2
    58   144   147    1
    59    26    25    1
    60    46    47    1
    61    24    25    1
    62    24    21    1
    63    50    51    1
    64    50    48   am
    65    51    52    1
    66    25    27    1
    67    21    20    1
    68    21    22    1
    69    47    48    1
    70    64    63    1
    71    48    49    2
    72   118   117    1
    73   118   120    1
    74    52    59   am
    75    52    53    2
    76   148   149    1
    77    59    60    1
    78    22    23    2
    79   117   119    1
    80   117   114    1
    81    63    60    1
    82    63    65    1
    83    60    61    1
    84    19    18    2
    85   149   150    1
    86   149   152    1
    87   150   151    2
    88   152   153    1
    89   113   114    1
    90    18    17    1
    91   114   115    1
    92    66    61   am
    93    66    67    1
    94    61    62    2
    95   115   116    2
    96   153   154    1
    97    70    67    1
    98    70    71    1
    99   154   155    1
   100    17    16    1
   101    15    13    1
   102    67    68    1
   103   137   135   ar
   104   137   138   ar
   105    16    11   am
   106   135   134   ar
   107   156   155    1
   108    71    72    1
   109    71    73    1
   110    68    69    2
   111   138   136   ar
   112   134   136   ar
   113   134   133    1
   114    13    10    1
   115    13    14    1
   116    11    10    1
   117    11    12    2
   118    84    82    1
   119   133   130    1
   120    10     9    1
   121   126   128    1
   122   126   125    1
   123    82    81    2
   124    82    83    1
   125    81    80    1
   126    74    75    1
   127   121   122    1
   128   129   130    1
   129   129   123   am
   130   130   131    1
   131     4     3    2
   132     9     3   am
   133   127   125    1
   134   125   122    1
   135    79    80    1
   136    79    78    1
   137     3     2    1
   138   131   132    2
   139   122   123    1
   140   123   124    2
   141    78    75    1
   142    75    76    1
   143    76    77    2
   144     2     1    1
   145     2     5    1
   146     6     5    1
   147     6     7    1
   148     7     8    1
