@<TRIPOS>MOLECULE
tmp/6ef3R01.pdb
 131 124 0 0 0
SMALL
GASTEIGER

@<TRIPOS>ATOM
      1  N        178.4490  138.1000  174.0580 N.3   115  ASP115     -0.1225
      2  CA       177.1840  138.2930  173.3660 C.3   115  ASP115      0.1805
      3  C        177.4230  138.6230  171.9020 C.2   115  ASP115      0.2598
      4  O        176.6190  138.2620  171.0380 O.2   115  ASP115     -0.2718
      5  CB       176.3940  139.3930  174.0660 C.3   115  ASP115      0.1424
      6  CG       174.9590  139.4800  173.5930 C.2   115  ASP115      0.3668
      7  OD1      174.5790  138.7380  172.6670 O.co2 115  ASP115     -0.2456
      8  OD2      174.1970  140.2860  174.1650 O.co2 115  ASP115     -0.2456
      9  N        178.5390  139.2760  171.6130 N.am  116  VAL116     -0.1966
     10  CA       178.9990  139.5160  170.2580 C.3   116  VAL116      0.1727
     11  C        179.4130  138.1830  169.6690 C.2   116  VAL116      0.2617
     12  O        179.5520  137.1950  170.3930 O.2   116  VAL116     -0.2715
     13  CB       180.1770  140.5020  170.2510 C.3   116  VAL116      0.0290
     14  CG1      181.4030  139.8460  170.8560 C.3   116  VAL116      0.0023
     15  CG2      180.4640  141.0060  168.8780 C.3   116  VAL116      0.0023
     16  N        179.6550  138.1560  168.3680 N.am  117  GLY117     -0.1940
     17  CA       180.2210  136.9870  167.7430 C.3   117  GLY117      0.2014
     18  C        181.6990  136.9000  168.0250 C.2   117  GLY117      0.2639
     19  O        182.1260  137.0210  169.1740 O.2   117  GLY117     -0.2714
     20  N        182.4930  136.7130  166.9860 N.am  118  GLY118     -0.1939
     21  CA       183.8780  136.3480  167.1600 C.3   118  GLY118      0.2014
     22  C        184.7520  137.5660  167.0820 C.2   118  GLY118      0.2638
     23  O        184.8250  138.3380  168.0410 O.2   118  GLY118     -0.2714
     24  N        185.4150  137.7500  165.9440 N.am  119  LEU119     -0.1977
     25  CA       186.0660  139.0120  165.6290 C.3   119  LEU119      0.1596
     26  C        187.1650  139.3250  166.6350 C.2   119  LEU119      0.2287
     27  O        187.1250  140.3190  167.3540 O.2   119  LEU119     -0.2864
     28  CB       185.0160  140.1120  165.5850 C.3   119  LEU119      0.0297
     29  CG       185.3240  141.5220  165.1550 C.3   119  LEU119      0.0022
     30  CD1      185.7980  141.5850  163.7250 C.3   119  LEU119      0.0001
     31  CD2      184.0440  142.2830  165.3240 C.3   119  LEU119      0.0001
     32  N        179.2700  147.7960  156.0870 N.3   157  PRO157     -0.2102
     33  CA       178.2680  147.9590  157.1310 C.3   157  PRO157      0.1504
     34  C        177.7290  146.6220  157.6090 C.2   157  PRO157      0.2576
     35  O        178.0640  145.5650  157.0850 O.2   157  PRO157     -0.2718
     36  CB       177.1870  148.7570  156.4260 C.3   157  PRO157      0.0282
     37  CG       177.3060  148.3650  155.0670 C.3   157  PRO157      0.0208
     38  CD       178.7130  148.1110  154.7750 C.3   157  PRO157      0.0893
     39  N        176.8690  146.7000  158.6170 N.am  158  GLY158     -0.1943
     40  CA       176.2090  145.5340  159.1500 C.3   158  GLY158      0.2014
     41  C        177.2340  144.5510  159.6350 C.2   158  GLY158      0.2640
     42  O        177.2260  143.3780  159.2540 O.2   158  GLY158     -0.2714
     43  N        178.1390  145.0490  160.4620 N.am  159  THR159     -0.1936
     44  CA       179.3650  144.3330  160.7590 C.3   159  THR159      0.2028
     45  C        179.7410  144.4360  162.2300 C.2   159  THR159      0.2643
     46  O        180.8290  144.0030  162.6120 O.2   159  THR159     -0.2714
     47  CB       180.4470  144.8830  159.8580 C.3   159  THR159      0.1808
     48  OG1      179.9490  144.9250  158.5230 O.3   159  THR159     -0.2208
     49  CG2      181.6250  144.0210  159.8420 C.3   159  THR159      0.0379
     50  N        178.8740  144.9830  163.0700 N.am  160  GLY160     -0.1939
     51  CA       179.1210  144.9520  164.4880 C.3   160  GLY160      0.2014
     52  C        180.0620  146.0160  164.9770 C.2   160  GLY160      0.2639
     53  O        180.5760  145.9130  166.0960 O.2   160  GLY160     -0.2714
     54  N        180.3050  147.0410  164.1710 N.am  161  LYS161     -0.1963
     55  CA       181.0970  148.1700  164.6250 C.3   161  LYS161      0.1728
     56  C        180.4600  148.8170  165.8370 C.2   161  LYS161      0.2617
     57  O        181.0250  148.8190  166.9360 O.2   161  LYS161     -0.2715
     58  CB       181.2190  149.1900  163.5100 C.3   161  LYS161      0.0311
     59  CG       181.8770  148.6650  162.2990 C.3   161  LYS161      0.0038
     60  CD       182.2500  149.7560  161.3480 C.3   161  LYS161      0.0206
     61  CE       181.0920  150.3160  160.6090 C.3   161  LYS161      0.1093
     62  NZ       180.6780  149.4130  159.5670 N.3   161  LYS161     -0.1314
     63  N        179.2670  149.3640  165.6440 N.am  162  THR162     -0.1937
     64  CA       178.6140  150.1370  166.6820 C.3   162  THR162      0.2028
     65  C        178.3700  149.3060  167.9260 C.2   162  THR162      0.2642
     66  O        178.5150  149.8000  169.0470 O.2   162  THR162     -0.2714
     67  CB       177.3130  150.7050  166.1470 C.3   162  THR162      0.1808
     68  OG1      176.7350  151.5630  167.1290 O.3   162  THR162     -0.2208
     69  CG2      176.3390  149.6240  165.7970 C.3   162  THR162      0.0379
     70  N        178.0380  148.0330  167.7570 N.am  163  MET163     -0.1976
     71  CA       177.6730  147.2360  168.9160 C.3   163  MET163      0.1605
     72  C        178.8980  146.9150  169.7440 C.2   163  MET163      0.2287
     73  O        178.8170  146.8180  170.9740 O.2   163  MET163     -0.2864
     74  CB       176.9630  145.9550  168.4920 C.3   163  MET163      0.0413
     75  CG       177.8000  144.9680  167.7540 C.3   163  MET163      0.0598
     76  SD       178.7940  143.8620  168.7650 S.3   163  MET163     -0.1393
     77  CE       177.5090  142.9420  169.5700 C.3   163  MET163      0.0692
     78  N        178.3260  156.9940  163.9170 N.3   214  ASP214     -0.1239
     79  CA       178.0230  155.9370  162.9640 C.3   214  ASP214      0.1674
     80  C        178.2180  156.3820  161.5260 C.2   214  ASP214      0.2266
     81  O        178.0430  155.5720  160.6140 O.2   214  ASP214     -0.2867
     82  CB       176.5880  155.4450  163.1810 C.3   214  ASP214      0.1410
     83  CG       176.3080  154.0940  162.5340 C.2   214  ASP214      0.3668
     84  OD1      177.2150  153.4980  161.9210 O.co2 214  ASP214     -0.2456
     85  OD2      175.1590  153.6220  162.6440 O.co2 214  ASP214     -0.2456
     86  N        182.3050  153.6200  156.0580 N.3   261  ASN261     -0.1240
     87  CA       182.3350  152.4850  155.1660 C.3   261  ASN261      0.1653
     88  C        183.6050  152.4200  154.3390 C.2   261  ASN261      0.2266
     89  O        183.8490  151.3960  153.6940 O.2   261  ASN261     -0.2867
     90  CB       181.1330  152.5280  154.2290 C.3   261  ASN261      0.1155
     91  CG       179.8260  152.4120  154.9670 C.2   261  ASN261      0.2627
     92  OD1      179.0460  153.3610  155.0320 O.2   261  ASN261     -0.2716
     93  ND2      179.5750  151.2430  155.5330 N.am  261  ASN261     -0.0877
     94  N        180.1110  133.1520  164.0400 N.3   294  ILE294     -0.1245
     95  CA       179.0420  133.8640  164.7160 C.3   294  ILE294      0.1561
     96  C        177.8250  132.9730  164.8470 C.2   294  ILE294      0.2260
     97  O        177.0680  133.0970  165.8130 O.2   294  ILE294     -0.2867
     98  CB       178.7180  135.1760  163.9800 C.3   294  ILE294      0.0252
     99  CG1      178.1120  134.9350  162.6180 C.3   294  ILE294      0.0019
    100  CG2      179.9370  135.9760  163.7470 C.3   294  ILE294      0.0019
    101  CD1      176.6570  135.0680  162.6140 C.3   294  ILE294      0.0001
    102  N        175.0880  133.0380  168.0520 N.3   298  ILE298     -0.1245
    103  CA       173.6570  133.2960  168.0490 C.3   298  ILE298      0.1561
    104  C        172.9060  132.0170  168.3550 C.2   298  ILE298      0.2260
    105  O        171.9290  132.0120  169.1140 O.2   298  ILE298     -0.2867
    106  CB       173.2290  133.8920  166.7010 C.3   298  ILE298      0.0252
    107  CG1      173.8290  135.2840  166.5320 C.3   298  ILE298      0.0019
    108  CG2      171.7350  133.9230  166.6160 C.3   298  ILE298      0.0019
    109  CD1      175.1700  135.3110  165.9310 C.3   298  ILE298      0.0001
    110  N        176.8500  140.2520  158.7670 N.3   322  GLY322     -0.1210
    111  CA       176.5130  139.8300  160.1060 C.3   322  GLY322      0.1956
    112  C        175.1980  140.3670  160.6190 C.2   322  GLY322      0.2611
    113  O        174.7620  139.9970  161.7100 O.2   322  GLY322     -0.2717
    114  N        174.5740  141.2660  159.8700 N.am  323  ALA323     -0.1979
    115  CA       173.2580  141.7650  160.2280 C.3   323  ALA323      0.1597
    116  C        172.1750  140.8560  159.7000 C.2   323  ALA323      0.2287
    117  O        171.1770  140.5990  160.3790 O.2   323  ALA323     -0.2864
    118  CB       173.0470  143.1590  159.6570 C.3   323  ALA323      0.0319
    119  N        172.2020  137.7480  159.2650 N.3   325  ILE325     -0.1231
    120  CA       172.0810  136.4750  159.9550 C.3   325  ILE325      0.1692
    121  C        171.0630  136.6000  161.0680 C.2   325  ILE325      0.2591
    122  O        170.2850  135.6730  161.3250 O.2   325  ILE325     -0.2718
    123  CB       173.4540  136.0110  160.4680 C.3   325  ILE325      0.0266
    124  CG1      173.9940  136.9340  161.5420 C.3   325  ILE325      0.0019
    125  CG2      174.4300  136.0110  159.3700 C.3   325  ILE325      0.0020
    126  CD1      173.7010  136.5060  162.9460 C.3   325  ILE325      0.0001
    127  N        170.9980  137.7660  161.6960 N.am  326  ALA326     -0.1980
    128  CA       169.9740  137.9880  162.6920 C.3   326  ALA326      0.1597
    129  C        168.6370  138.2070  162.0260 C.2   326  ALA326      0.2287
    130  O        167.5970  137.8340  162.5760 O.2   326  ALA326     -0.2864
    131  CB       170.3390  139.1740  163.5660 C.3   326  ALA326      0.0319
@<TRIPOS>BOND
     1    89    88    2
     2    90    91    1
     3    90    87    1
     4    88    87    1
     5    38    37    1
     6    38    32    1
     7    91    92    2
     8    91    93   am
     9    37    36    1
    10    87    86    1
    11    32    33    1
    12    36    33    1
    13    35    34    2
    14    33    34    1
    15    34    39   am
    16    48    47    1
    17    39    40    1
    18   110   111    1
    19    40    41    1
    20    42    41    2
    21   119   120    1
    22   125   123    1
    23    62    61    1
    24    41    43   am
    25   118   115    1
    26   116   115    1
    27   116   117    2
    28    49    47    1
    29    47    44    1
    30   114   115    1
    31   114   112   am
    32   120   123    1
    33   120   121    1
    34   111   112    1
    35    43    44    1
    36   123   124    1
    37    61    60    1
    38    81    80    2
    39   112   113    2
    40    44    45    1
    41   121   122    2
    42   121   127   am
    43    60    59    1
    44    80    79    1
    45   124   126    1
    46   127   128    1
    47    84    83   ar
    48   129   130    2
    49   129   128    1
    50    45    46    2
    51    45    50   am
    52    59    58    1
    53    83    85   ar
    54    83    82    1
    55   101    99    1
    56    99    98    1
    57   128   131    1
    58    79    82    1
    59    79    78    1
    60    50    51    1
    61    58    55    1
    62    30    29    1
    63   100    98    1
    64    98    95    1
    65    94    95    1
    66    54    55    1
    67    54    52   am
    68    51    52    1
    69    55    56    1
    70    95    96    1
    71    96    97    2
    72    52    53    2
    73    29    31    1
    74    29    28    1
    75    28    25    1
    76    25    24    1
    77    25    26    1
    78    63    56   am
    79    63    64    1
    80    69    67    1
    81    56    57    2
    82   109   107    1
    83    24    22   am
    84    67    64    1
    85    67    68    1
    86   107   106    1
    87   108   106    1
    88    26    27    2
    89    64    65    1
    90   106   103    1
    91    20    21    1
    92    20    18   am
    93    22    21    1
    94    22    23    2
    95    17    18    1
    96    17    16    1
    97    75    74    1
    98    75    76    1
    99    70    65   am
   100    70    71    1
   101    65    66    2
   102    18    19    2
   103   103   102    1
   104   103   104    1
   105   104   105    2
   106    16    11   am
   107    74    71    1
   108    76    77    1
   109    15    13    1
   110    71    72    1
   111    11    10    1
   112    11    12    2
   113    72    73    2
   114    13    10    1
   115    13    14    1
   116    10     9    1
   117     4     3    2
   118     9     3   am
   119     3     2    1
   120     7     6   ar
   121     2     1    1
   122     2     5    1
   123     6     5    1
   124     6     8   ar
