@<TRIPOS>MOLECULE
tmp/6ef3T00.pdb
 167 159 0 0 0
SMALL
GASTEIGER

@<TRIPOS>ATOM
      1  N        124.9220  192.1220  138.4870 N.3   119  ASP119     -0.1225
      2  CA       126.0610  193.0270  138.4730 C.3   119  ASP119      0.1805
      3  C        127.3790  192.3180  138.1880 C.2   119  ASP119      0.2598
      4  O        128.4090  192.9870  138.0490 O.2   119  ASP119     -0.2718
      5  CB       126.1460  193.7430  139.8100 C.3   119  ASP119      0.1424
      6  CG       127.0660  194.9210  139.7710 C.2   119  ASP119      0.3668
      7  OD1      126.6740  195.9560  139.1980 O.co2 119  ASP119     -0.2456
      8  OD2      128.1880  194.8110  140.2990 O.co2 119  ASP119     -0.2456
      9  N        127.3660  190.9940  138.0900 N.am  120  VAL120     -0.1966
     10  CA       128.5570  190.1700  137.9510 C.3   120  VAL120      0.1727
     11  C        128.4470  189.3830  136.6590 C.2   120  VAL120      0.2616
     12  O        127.3590  188.9320  136.2890 O.2   120  VAL120     -0.2715
     13  CB       128.7250  189.2400  139.1670 C.3   120  VAL120      0.0290
     14  CG1      127.4670  188.5270  139.4620 C.3   120  VAL120      0.0023
     15  CG2      129.7710  188.2290  138.9190 C.3   120  VAL120      0.0023
     16  N        129.5770  189.2110  135.9870 N.am  121  GLY121     -0.1955
     17  CA       129.6080  188.6040  134.6750 C.3   121  GLY121      0.1869
     18  C        130.3510  187.2890  134.7090 C.2   121  GLY121      0.2309
     19  O        131.1940  187.0590  135.5700 O.2   121  GLY121     -0.2863
     20  N        130.8080  183.3180  135.3180 N.3   123  LEU123     -0.1245
     21  CA       130.6810  182.6690  136.6120 C.3   123  LEU123      0.1561
     22  C        129.2570  182.2410  136.9230 C.2   123  LEU123      0.2260
     23  O        128.8480  182.1980  138.0830 O.2   123  LEU123     -0.2867
     24  CB       131.2020  183.5860  137.7100 C.3   123  LEU123      0.0270
     25  CG       132.6650  183.9420  137.5410 C.3   123  LEU123      0.0019
     26  CD1      133.0520  184.9570  138.5310 C.3   123  LEU123      0.0001
     27  CD2      133.5130  182.7250  137.7100 C.3   123  LEU123      0.0001
     28  N        144.4020  186.8590  141.8800 N.3   161  PRO161     -0.2102
     29  CA       143.8260  188.1870  142.0460 C.3   161  PRO161      0.1504
     30  C        142.9800  188.5800  140.8580 C.2   161  PRO161      0.2576
     31  O        143.4510  188.6080  139.7220 O.2   161  PRO161     -0.2718
     32  CB       145.0580  189.0730  142.1540 C.3   161  PRO161      0.0282
     33  CG       146.1000  188.1910  142.6070 C.3   161  PRO161      0.0208
     34  CD       145.8600  186.9140  141.9570 C.3   161  PRO161      0.0893
     35  N        141.7220  188.8790  141.1300 N.am  162  GLY162     -0.1943
     36  CA       140.8980  189.6070  140.2060 C.3   162  GLY162      0.2014
     37  C        139.8530  188.8080  139.5020 C.2   162  GLY162      0.2640
     38  O        139.3490  189.2600  138.4700 O.2   162  GLY162     -0.2714
     39  N        139.5030  187.6510  140.0170 N.am  163  THR163     -0.1936
     40  CA       138.4700  186.8320  139.4250 C.3   163  THR163      0.2028
     41  C        137.1150  187.0340  140.0770 C.2   163  THR163      0.2643
     42  O        136.1670  186.3270  139.7250 O.2   163  THR163     -0.2714
     43  CB       138.8680  185.3720  139.5150 C.3   163  THR163      0.1808
     44  OG1      138.8070  184.9420  140.8720 O.3   163  THR163     -0.2208
     45  CG2      140.2480  185.2260  139.0690 C.3   163  THR163      0.0379
     46  N        136.9920  187.9670  141.0120 N.am  164  GLY164     -0.1939
     47  CA       135.7170  188.1960  141.6490 C.3   164  GLY164      0.2014
     48  C        135.4510  187.3150  142.8440 C.2   164  GLY164      0.2639
     49  O        134.4770  186.5630  142.8660 O.2   164  GLY164     -0.2714
     50  N        136.3150  187.4050  143.8460 N.am  165  LYS165     -0.1963
     51  CA       136.1950  186.6190  145.0640 C.3   165  LYS165      0.1728
     52  C        135.4620  187.3790  146.1560 C.2   165  LYS165      0.2617
     53  O        134.3650  187.0010  146.5680 O.2   165  LYS165     -0.2715
     54  CB       137.5810  186.2610  145.5680 C.3   165  LYS165      0.0311
     55  CG       138.3890  185.3870  144.6990 C.3   165  LYS165      0.0038
     56  CD       139.8070  185.3710  145.1610 C.3   165  LYS165      0.0206
     57  CE       140.6150  184.5290  144.2710 C.3   165  LYS165      0.1093
     58  NZ       140.2490  183.1430  144.4220 N.3   165  LYS165     -0.1314
     59  N        136.0560  188.4760  146.6080 N.am  166  THR166     -0.1937
     60  CA       135.4370  189.3010  147.6280 C.3   166  THR166      0.2028
     61  C        134.1330  189.9060  147.1410 C.2   166  THR166      0.2642
     62  O        133.2200  190.1540  147.9330 O.2   166  THR166     -0.2714
     63  CB       136.4030  190.3940  148.0220 C.3   166  THR166      0.1808
     64  OG1      136.8450  191.0570  146.8300 O.3   166  THR166     -0.2208
     65  CG2      137.5780  189.8300  148.7400 C.3   166  THR166      0.0379
     66  N        134.0370  190.1760  145.8460 N.am  167  LEU167     -0.1977
     67  CA       132.8110  190.7270  145.3050 C.3   167  LEU167      0.1596
     68  C        131.6590  189.7890  145.5340 C.2   167  LEU167      0.2287
     69  O        130.5650  190.2050  145.9270 O.2   167  LEU167     -0.2864
     70  CB       132.9670  190.9620  143.8230 C.3   167  LEU167      0.0297
     71  CG       131.7860  191.5680  143.1140 C.3   167  LEU167      0.0022
     72  CD1      132.2750  192.5230  142.1090 C.3   167  LEU167      0.0001
     73  CD2      131.0420  190.5040  142.4100 C.3   167  LEU167      0.0001
     74  N        130.1110  189.8900  148.7440 N.3   170  ARG170     -0.1245
     75  CA       129.2430  191.0490  148.8980 C.3   170  ARG170      0.1563
     76  C        127.8700  190.7680  148.3110 C.2   170  ARG170      0.2260
     77  O        126.8790  191.3840  148.7130 O.2   170  ARG170     -0.2867
     78  CB       129.8260  192.3030  148.2540 C.3   170  ARG170      0.0307
     79  CG       130.9510  192.9650  149.0070 C.3   170  ARG170      0.0489
     80  CD       131.1170  194.4250  148.6010 C.3   170  ARG170      0.2205
     81  NE       131.5880  194.6070  147.2360 N.pl3 170  ARG170     -0.0865
     82  CZ       132.8440  194.8330  146.8690 C.cat 170  ARG170      0.5346
     83  NH1      133.1310  194.9790  145.5910 N.pl3 170  ARG170      0.1354
     84  NH2      133.8180  194.9570  147.7470 N.pl3 170  ARG170      0.1354
     85  N        138.7150  186.2470  154.5960 N.3   218  ASP218     -0.1225
     86  CA       139.0840  186.8160  153.3120 C.3   218  ASP218      0.1805
     87  C        140.4450  186.3160  152.8600 C.2   218  ASP218      0.2597
     88  O        140.5790  185.7370  151.7780 O.2   218  ASP218     -0.2718
     89  CB       139.0750  188.3360  153.3980 C.3   218  ASP218      0.1424
     90  CG       139.1630  189.0040  152.0410 C.2   218  ASP218      0.3668
     91  OD1      139.2660  188.2990  151.0170 O.co2 218  ASP218     -0.2456
     92  OD2      139.1240  190.2490  151.9960 O.co2 218  ASP218     -0.2456
     93  N        141.4630  186.5240  153.6850 N.am  219  GLU219     -0.1979
     94  CA       142.8390  186.1510  153.3760 C.3   219  GLU219      0.1602
     95  C        143.2360  185.0850  154.3680 C.2   219  GLU219      0.2287
     96  O        143.9020  185.3430  155.3640 O.2   219  GLU219     -0.2864
     97  CB       143.7170  187.2870  153.4390 C.3   219  GLU219      0.0415
     98  CG       143.6850  188.1960  152.2350 C.3   219  GLU219      0.1163
     99  CD       144.2890  187.5610  151.0010 C.2   219  GLU219      0.3649
    100  OE1      145.1710  186.6920  151.1440 O.co2 219  GLU219     -0.2457
    101  OE2      143.8930  187.9420  149.8810 O.co2 219  GLU219     -0.2457
    102  N        141.3200  183.1880  149.1880 N.3   264  THR264     -0.1203
    103  CA       142.7680  183.2330  149.1320 C.3   264  THR264      0.1994
    104  C        143.2130  183.5130  147.7140 C.2   264  THR264      0.2617
    105  O        142.4780  183.2800  146.7550 O.2   264  THR264     -0.2717
    106  CB       143.3940  181.9300  149.5910 C.3   264  THR264      0.1784
    107  OG1      144.8090  182.0920  149.6430 O.3   264  THR264     -0.2211
    108  CG2      143.0830  180.8390  148.6340 C.3   264  THR264      0.0376
    109  N        144.4370  183.9930  147.6050 N.am  265  ASN265     -0.1974
    110  CA       145.1500  184.0920  146.3520 C.3   265  ASN265      0.1688
    111  C        146.1030  182.9340  146.1360 C.2   265  ASN265      0.2292
    112  O        146.7970  182.9060  145.1190 O.2   265  ASN265     -0.2864
    113  CB       145.9410  185.3830  146.3220 C.3   265  ASN265      0.1181
    114  CG       145.0730  186.5790  146.3580 C.2   265  ASN265      0.2629
    115  OD1      144.0710  186.6570  145.6570 O.2   265  ASN265     -0.2716
    116  ND2      145.4290  187.5230  147.2060 N.am  265  ASN265     -0.0877
    117  N        139.0390  184.8090  133.0260 N.3   289  PRO289     -0.2116
    118  CA       137.8530  184.7900  132.1840 C.3   289  PRO289      0.1372
    119  C        138.1660  184.5090  130.7310 C.2   289  PRO289      0.2244
    120  O        139.1190  185.0430  130.1630 O.2   289  PRO289     -0.2868
    121  CB       137.3090  186.2020  132.3530 C.3   289  PRO289      0.0268
    122  CG       138.4330  186.9490  132.5680 C.3   289  PRO289      0.0207
    123  CD       139.3130  186.1770  133.4410 C.3   289  PRO289      0.0892
    124  N        131.7920  191.7840  130.9510 N.3   297  ILE297     -0.1245
    125  CA       132.3360  192.5800  132.0410 C.3   297  ILE297      0.1561
    126  C        132.4190  194.0430  131.6500 C.2   297  ILE297      0.2260
    127  O        132.1100  194.9350  132.4470 O.2   297  ILE297     -0.2867
    128  CB       133.7090  192.0340  132.4500 C.3   297  ILE297      0.0252
    129  CG1      133.6180  190.6000  132.9550 C.3   297  ILE297      0.0019
    130  CG2      134.3040  192.8970  133.4770 C.3   297  ILE297      0.0019
    131  CD1      132.9070  190.4000  134.2680 C.3   297  ILE297      0.0001
    132  N        129.0130  195.8360  131.4480 N.3   300  ILE300     -0.1231
    133  CA       128.4390  196.1010  132.7580 C.3   300  ILE300      0.1692
    134  C        128.8990  197.4520  133.2640 C.2   300  ILE300      0.2592
    135  O        128.0970  198.3590  133.5110 O.2   300  ILE300     -0.2718
    136  CB       128.8360  194.9950  133.7450 C.3   300  ILE300      0.0266
    137  CG1      128.2270  193.6710  133.3430 C.3   300  ILE300      0.0019
    138  CG2      128.3950  195.3720  135.1150 C.3   300  ILE300      0.0020
    139  CD1      128.8380  192.5220  133.9770 C.3   300  ILE300      0.0001
    140  N        130.2050  197.5910  133.4350 N.am  301  HIS301     -0.1976
    141  CA       130.7580  198.7620  134.0860 C.3   301  HIS301      0.1656
    142  C        130.5080  200.0190  133.2710 C.2   301  HIS301      0.2291
    143  O        130.4620  201.1240  133.8210 O.2   301  HIS301     -0.2864
    144  CB       132.2380  198.5350  134.3050 C.3   301  HIS301      0.0771
    145  CG       132.5290  197.3900  135.2150 C.ar  301  HIS301      0.0820
    146  ND1      133.7740  196.8160  135.3310 N.ar  301  HIS301     -0.2267
    147  CD2      131.7240  196.7160  136.0630 C.ar  301  HIS301      0.1154
    148  CE1      133.7150  195.8250  136.2030 C.ar  301  HIS301      0.1986
    149  NE2      132.4840  195.7500  136.6670 N.ar  301  HIS301     -0.2212
    150  N        139.3630  190.6620  135.6620 N.3   325  GLY325     -0.1210
    151  CA       138.1760  191.4790  135.5150 C.3   325  GLY325      0.1956
    152  C        138.3300  192.8540  136.1250 C.2   325  GLY325      0.2611
    153  O        137.7320  193.8240  135.6570 O.2   325  GLY325     -0.2717
    154  N        139.1670  192.9620  137.1490 N.am  326  ALA326     -0.1979
    155  CA       139.4010  194.2510  137.7740 C.3   326  ALA326      0.1597
    156  C        140.0900  195.1900  136.8120 C.2   326  ALA326      0.2287
    157  O        139.7570  196.3760  136.7380 O.2   326  ALA326     -0.2864
    158  CB       140.2460  194.0740  139.0170 C.3   326  ALA326      0.0319
    159  N        137.7630  196.6440  134.3380 N.3   329  LYS329     -0.1245
    160  CA       137.0900  197.8330  134.8150 C.3   329  LYS329      0.1561
    161  C        137.9790  199.0440  134.6420 C.2   329  LYS329      0.2260
    162  O        137.5460  200.0810  134.1380 O.2   329  LYS329     -0.2867
    163  CB       136.7300  197.6760  136.2740 C.3   329  LYS329      0.0271
    164  CG       135.9150  198.8070  136.8060 C.3   329  LYS329      0.0035
    165  CD       135.3480  198.5290  138.1660 C.3   329  LYS329      0.0206
    166  CE       136.4080  198.5450  139.2410 C.3   329  LYS329      0.1093
    167  NZ       136.9820  199.8970  139.4300 N.3   329  LYS329     -0.1314
@<TRIPOS>BOND
     1   120   119    2
     2   119   118    1
     3   124   125    1
     4   132   133    1
     5   126   125    1
     6   126   127    2
     7   125   128    1
     8   118   121    1
     9   118   117    1
    10   121   122    1
    11   128   129    1
    12   128   130    1
    13   122   123    1
    14   133   134    1
    15   133   136    1
    16   129   131    1
    17   117   123    1
    18   134   140   am
    19   134   135    2
    20   142   143    2
    21   142   141    1
    22   137   136    1
    23   137   139    1
    24   140   141    1
    25   136   138    1
    26   141   144    1
    27   162   161    2
    28   144   145    1
    29   159   160    1
    30   161   160    1
    31    17    18    1
    32    17    16    1
    33    18    19    2
    34   160   163    1
    35   145   146   ar
    36   145   147   ar
    37    20    21    1
    38   146   148   ar
    39   151   150    1
    40   151   152    1
    41   153   152    2
    42    16    11   am
    43   147   149   ar
    44   152   154   am
    45   148   149   ar
    46   163   164    1
    47    12    11    2
    48    21    22    1
    49    21    24    1
    50    11    10    1
    51   157   156    2
    52   164   165    1
    53   156   155    1
    54    22    23    2
    55   154   155    1
    56    25    27    1
    57    25    24    1
    58    25    26    1
    59   155   158    1
    60    10     9    1
    61    10    13    1
    62     4     3    2
    63     9     3   am
    64   165   166    1
    65     3     2    1
    66    38    37    2
    67     2     1    1
    68     2     5    1
    69    15    13    1
    70    45    43    1
    71    13    14    1
    72     7     6   ar
    73   166   167    1
    74    40    43    1
    75    40    39    1
    76    40    41    1
    77    37    39   am
    78    37    36    1
    79    43    44    1
    80    31    30    2
    81    42    41    2
    82     6     5    1
    83     6     8   ar
    84    41    46   am
    85    36    35    1
    86    30    35   am
    87    30    29    1
    88    46    47    1
    89    47    48    1
    90    28    34    1
    91    28    29    1
    92    34    33    1
    93    29    32    1
    94    72    71    1
    95    32    33    1
    96    73    71    1
    97    48    49    2
    98    48    50   am
    99    71    70    1
   100    70    67    1
   101    50    51    1
   102    57    58    1
   103    57    56    1
   104    55    56    1
   105    55    54    1
   106    51    54    1
   107    51    52    1
   108   112   111    2
   109    67    68    1
   110    67    66    1
   111    68    69    2
   112    83    82    1
   113   115   114    2
   114    66    61   am
   115   111   110    1
   116    52    53    2
   117    52    59   am
   118   113   110    1
   119   113   114    1
   120   110   109    1
   121   114   116   am
   122    59    60    1
   123   105   104    2
   124    64    63    1
   125    82    81    2
   126    82    84    1
   127    61    60    1
   128    61    62    2
   129    81    80    1
   130   109   104   am
   131    60    63    1
   132   104   103    1
   133    63    65    1
   134    78    75    1
   135    78    79    1
   136    76    77    2
   137    76    75    1
   138    80    79    1
   139   108   106    1
   140    74    75    1
   141   103   102    1
   142   103   106    1
   143   106   107    1
   144   101    99   ar
   145    99   100   ar
   146    99    98    1
   147    91    90   ar
   148    88    87    2
   149    92    90   ar
   150    90    89    1
   151    98    97    1
   152    87    86    1
   153    87    93   am
   154    86    89    1
   155    86    85    1
   156    94    97    1
   157    94    93    1
   158    94    95    1
   159    95    96    2
