@<TRIPOS>MOLECULE
tmp/6ef6A00.pdb
 109 102 0 0 0
SMALL
GASTEIGER

@<TRIPOS>ATOM
      1  N          3.8010   18.4020   36.1750 N.3    25  LEU25      -0.1231
      2  CA         5.1590   18.5540   36.6720 C.3    25  LEU25       0.1693
      3  C          5.5540   20.0010   36.4490 C.2    25  LEU25       0.2592
      4  O          5.1750   20.6020   35.4400 O.2    25  LEU25      -0.2718
      5  CB         6.1190   17.6650   35.8830 C.3    25  LEU25       0.0284
      6  CG         5.8480   16.1700   35.6380 C.3    25  LEU25       0.0019
      7  CD1        6.6780   15.6540   34.4980 C.3    25  LEU25       0.0001
      8  CD2        6.1050   15.3750   36.8620 C.3    25  LEU25       0.0001
      9  N          6.2900   20.5610   37.4050 N.am   26  SER26      -0.1952
     10  CA         6.9380   21.8640   37.2670 C.3    26  SER26       0.1924
     11  C          5.9810   23.0430   37.3630 C.2    26  SER26       0.2314
     12  O          4.8190   22.9100   37.0220 O.2    26  SER26      -0.2863
     13  CB         7.7160   21.9360   35.9460 C.3    26  SER26       0.2116
     14  OG         8.1180   23.2600   35.6720 O.3    26  SER26      -0.2180
     15  N          4.9950   21.8210   31.0020 N.3    30  THR30      -0.1218
     16  CA         5.8070   20.7240   30.4900 C.3    30  THR30       0.1862
     17  C          4.9000   19.7150   29.7990 C.2    30  THR30       0.2287
     18  O          3.8270   19.3930   30.3190 O.2    30  THR30      -0.2866
     19  CB         6.5670   20.0740   31.6530 C.3    30  THR30       0.1770
     20  OG1        7.4770   21.0400   32.2260 O.3    30  THR30      -0.2211
     21  CG2        7.3830   18.8620   31.1780 C.3    30  THR30       0.0375
     22  N          9.9900   15.2090   25.9200 N.3    41  ILE41      -0.1245
     23  CA         9.4180   16.1610   26.8640 C.3    41  ILE41       0.1561
     24  C          9.7980   17.5840   26.4820 C.2    41  ILE41       0.2260
     25  O         10.9840   17.9000   26.3040 O.2    41  ILE41      -0.2867
     26  CB         9.8410   15.8430   28.3080 C.3    41  ILE41       0.0252
     27  CG1        9.2040   14.5050   28.7110 C.3    41  ILE41       0.0019
     28  CG2        9.4020   16.9580   29.2220 C.3    41  ILE41       0.0019
     29  CD1        9.7690   13.9230   29.9720 C.3    41  ILE41       0.0001
     30  N          9.6630   21.5340   27.7040 N.3    43  ARG43      -0.1245
     31  CA         9.4610   22.4510   28.8220 C.3    43  ARG43       0.1563
     32  C          9.3600   23.8940   28.3180 C.2    43  ARG43       0.2260
     33  O         10.3320   24.4290   27.7660 O.2    43  ARG43      -0.2867
     34  CB        10.6320   22.3310   29.8000 C.3    43  ARG43       0.0307
     35  CG        10.5590   23.2640   30.9940 C.3    43  ARG43       0.0489
     36  CD        11.7340   22.9980   31.9370 C.3    43  ARG43       0.2205
     37  NE        12.9650   23.5600   31.4250 N.pl3  43  ARG43      -0.0865
     38  CZ        14.1330   23.4820   32.0670 C.cat  43  ARG43       0.5346
     39  NH1       14.2460   22.7820   33.2030 N.pl3  43  ARG43       0.1354
     40  NH2       15.1650   24.1250   31.5740 N.pl3  43  ARG43       0.1354
     41  N         21.9040   26.0780   33.9730 N.3    58  GLU58      -0.1245
     42  CA        21.2570   24.8660   34.4710 C.3    58  GLU58       0.1567
     43  C         21.6630   23.6970   33.5970 C.2    58  GLU58       0.2260
     44  O         22.0200   22.6290   34.0960 O.2    58  GLU58      -0.2867
     45  CB        19.7310   25.0290   34.4200 C.3    58  GLU58       0.0388
     46  CG        18.9590   23.7240   34.7500 C.3    58  GLU58       0.1160
     47  CD        17.5390   23.6640   34.1570 C.2    58  GLU58       0.3649
     48  OE1       17.0880   24.6560   33.5480 O.co2  58  GLU58      -0.2457
     49  OE2       16.8880   22.6050   34.3160 O.co2  58  GLU58      -0.2457
     50  N         17.8830   14.6130   33.2970 N.3    74  PRO74      -0.2116
     51  CA        17.3930   14.6870   31.9130 C.3    74  PRO74       0.1372
     52  C         18.5110   14.9530   30.9230 C.2    74  PRO74       0.2244
     53  O         19.5180   15.5870   31.2430 O.2    74  PRO74      -0.2868
     54  CB        16.4230   15.8700   31.9370 C.3    74  PRO74       0.0268
     55  CG        16.0730   16.0600   33.4370 C.3    74  PRO74       0.0207
     56  CD        17.3640   15.7300   34.1100 C.3    74  PRO74       0.0892
     57  N         13.6860   17.8020   26.1430 N.3   100  PHE100     -0.1241
     58  CA        14.4160   16.7280   26.8050 C.3   100  PHE100      0.1605
     59  C         13.9980   15.3650   26.2610 C.2   100  PHE100      0.2264
     60  O         12.8630   15.1900   25.7960 O.2   100  PHE100     -0.2867
     61  CB        14.1200   16.7360   28.3220 C.3   100  PHE100      0.0534
     62  CG        14.5660   17.9960   29.0380 C.ar  100  PHE100     -0.0203
     63  CD1       15.9000   18.1800   29.3870 C.ar  100  PHE100     -0.0042
     64  CD2       13.6380   18.9790   29.3910 C.ar  100  PHE100     -0.0042
     65  CE1       16.3030   19.3320   30.0760 C.ar  100  PHE100     -0.0003
     66  CE2       14.0230   20.1350   30.0540 C.ar  100  PHE100     -0.0003
     67  CZ        15.3600   20.3040   30.4290 C.ar  100  PHE100     -0.0000
     68  N         11.6600   10.4800   29.8820 N.3   103  VAL103     -0.1245
     69  CA        12.0950   10.0780   31.2160 C.3   103  VAL103      0.1561
     70  C         11.1250    9.0230   31.7250 C.2   103  VAL103      0.2260
     71  O          9.9090    9.2350   31.6950 O.2   103  VAL103     -0.2867
     72  CB        12.1050   11.2890   32.1630 C.3   103  VAL103      0.0252
     73  CG1       12.3730   10.8370   33.6110 C.3   103  VAL103      0.0019
     74  CG2       13.1390   12.3180   31.7280 C.3   103  VAL103      0.0019
     75  N         11.3700   11.1370   39.3940 N.3   209  LEU209     -0.1245
     76  CA        10.5260   10.2480   38.6080 C.3   209  LEU209      0.1561
     77  C         11.1140    8.8430   38.5610 C.2   209  LEU209      0.2260
     78  O         12.3280    8.6610   38.5140 O.2   209  LEU209     -0.2867
     79  CB        10.3180   10.7600   37.1680 C.3   209  LEU209      0.0270
     80  CG         9.6250   12.1230   37.0910 C.3   209  LEU209      0.0019
     81  CD1        9.2330   12.3760   35.6270 C.3   209  LEU209      0.0001
     82  CD2        8.4130   12.2760   37.9910 C.3   209  LEU209      0.0001
     83  N         14.3170   15.5510   38.0600 N.3   222  ILE222     -0.1231
     84  CA        13.8540   16.4810   37.0430 C.3   222  ILE222      0.1692
     85  C         13.7350   17.8790   37.6680 C.2   222  ILE222      0.2592
     86  O         13.9040   18.0840   38.8810 O.2   222  ILE222     -0.2718
     87  CB        12.5160   16.0260   36.4150 C.3   222  ILE222      0.0266
     88  CG1       11.3880   16.0360   37.4350 C.3   222  ILE222      0.0019
     89  CG2       12.6740   14.6570   35.7620 C.3   222  ILE222      0.0020
     90  CD1       10.0020   16.1150   36.8090 C.3   222  ILE222      0.0001
     91  N         13.3980   18.8620   36.8280 N.am  223  ASP223     -0.1960
     92  CA        12.9970   20.1950   37.2790 C.3   223  ASP223      0.1840
     93  C         14.0830   20.8710   38.1100 C.2   223  ASP223      0.2622
     94  O         13.8730   21.2800   39.2510 O.2   223  ASP223     -0.2715
     95  CB        11.6740   20.1500   38.0470 C.3   223  ASP223      0.1450
     96  CG        11.0890   21.5370   38.2920 C.2   223  ASP223      0.3671
     97  OD1       11.6050   22.5040   37.7110 O.co2 223  ASP223     -0.2456
     98  OD2       10.1220   21.6410   39.0780 O.co2 223  ASP223     -0.2456
     99  N         15.2260   21.0670   37.4410 N.am  224  PHE224     -0.1974
    100  CA        16.3410   21.8660   37.9740 C.3   224  PHE224      0.1639
    101  C         16.0990   23.3780   37.8140 C.2   224  PHE224      0.2290
    102  O         17.0370   24.1730   37.9410 O.2   224  PHE224     -0.2864
    103  CB        17.6910   21.4380   37.3400 C.3   224  PHE224      0.0560
    104  CG        18.2690   20.1680   37.8590 C.ar  224  PHE224     -0.0200
    105  CD1       17.7350   18.9160   37.5120 C.ar  224  PHE224     -0.0042
    106  CD2       19.4430   20.1800   38.6010 C.ar  224  PHE224     -0.0042
    107  CE1       18.3100   17.7430   37.9610 C.ar  224  PHE224     -0.0003
    108  CE2       19.9980   18.9870   39.0500 C.ar  224  PHE224     -0.0003
    109  CZ        19.4540   17.7810   38.7380 C.ar  224  PHE224     -0.0000
@<TRIPOS>BOND
     1    60    59    2
     2    22    23    1
     3    57    58    1
     4    59    58    1
     5    25    24    2
     6    24    23    1
     7    58    61    1
     8    23    26    1
     9    30    31    1
    10    33    32    2
    11    26    27    1
    12    26    28    1
    13    32    31    1
    14    61    62    1
    15    27    29    1
    16    31    34    1
    17    62    63   ar
    18    62    64   ar
    19    63    65   ar
    20    64    66   ar
    21    17    18    2
    22    17    16    1
    23    34    35    1
    24    68    69    1
    25    66    67   ar
    26    65    67   ar
    27    16    15    1
    28    16    19    1
    29    52    53    2
    30    52    51    1
    31    35    36    1
    32    21    19    1
    33    69    70    1
    34    69    72    1
    35    37    36    1
    36    37    38    2
    37    40    38    1
    38    19    20    1
    39    71    70    2
    40    74    72    1
    41    51    54    1
    42    51    50    1
    43    54    55    1
    44    38    39    1
    45    72    73    1
    46    50    56    1
    47    55    56    1
    48    48    47   ar
    49    43    44    2
    50    43    42    1
    51    41    42    1
    52    47    49   ar
    53    47    46    1
    54    45    42    1
    55    45    46    1
    56     7     6    1
    57     4     3    2
    58    81    80    1
    59     6     5    1
    60     6     8    1
    61    14    13    1
    62    89    87    1
    63     5     2    1
    64    13    10    1
    65     1     2    1
    66    87    84    1
    67    87    88    1
    68     3     2    1
    69     3     9   am
    70    90    88    1
    71    91    92    1
    72    91    85   am
    73    12    11    2
    74    84    85    1
    75    84    83    1
    76    80    79    1
    77    80    82    1
    78    79    76    1
    79    10    11    1
    80    10     9    1
    81    92    95    1
    82    92    93    1
    83   103   104    1
    84   103   100    1
    85    99   100    1
    86    99    93   am
    87   105   104   ar
    88   105   107   ar
    89    85    86    2
    90    97    96   ar
    91   101   102    2
    92   101   100    1
    93   104   106   ar
    94   107   109   ar
    95    95    96    1
    96    93    94    2
    97    96    98   ar
    98    78    77    2
    99    77    76    1
   100   106   108   ar
   101    76    75    1
   102   109   108   ar
