@<TRIPOS>MOLECULE
tmp/6efgC00.pdb
 148 141 0 0 0
SMALL
GASTEIGER

@<TRIPOS>ATOM
      1  N         -2.0710   27.3080   -1.0500 N.3    55  TYR55      -0.1241
      2  CA        -3.1430   28.1920   -0.6660 C.3    55  TYR55       0.1605
      3  C         -2.5940   29.4220    0.0680 C.2    55  TYR55       0.2264
      4  O         -3.0530   30.5470   -0.1500 O.2    55  TYR55      -0.2867
      5  CB        -4.1540   27.4620    0.2230 C.3    55  TYR55       0.0534
      6  CG        -4.9810   26.3750   -0.4250 C.ar   55  TYR55      -0.0201
      7  CD1       -5.3520   26.4300   -1.7610 C.ar   55  TYR55      -0.0009
      8  CD2       -5.5070   25.3510    0.3420 C.ar   55  TYR55      -0.0009
      9  CE1       -6.1580   25.4520   -2.3290 C.ar   55  TYR55       0.0417
     10  CE2       -6.3060   24.3580   -0.2010 C.ar   55  TYR55       0.0417
     11  CZ        -6.6330   24.4110   -1.5420 C.ar   55  TYR55       0.1957
     12  OH        -7.4210   23.4380   -2.0640 O.3    55  TYR55      -0.2866
     13  N         -3.3760   21.6460   -6.8390 N.3    82  ASN82      -0.1240
     14  CA        -4.7220   22.2280   -6.7610 C.3    82  ASN82       0.1653
     15  C         -4.6170   23.6930   -6.3420 C.2    82  ASN82       0.2266
     16  O         -5.3690   24.5260   -6.8420 O.2    82  ASN82      -0.2867
     17  CB        -5.6960   21.4850   -5.8500 C.3    82  ASN82       0.1155
     18  CG        -7.0910   22.0790   -5.8570 C.2    82  ASN82       0.2627
     19  OD1       -7.6690   22.2970   -6.9100 O.2    82  ASN82      -0.2716
     20  ND2       -7.6490   22.3640   -4.6920 N.am   82  ASN82      -0.0877
     21  N        -15.7300   29.3360   -0.0850 N.3   366  THR366     -0.1203
     22  CA       -16.7480   28.7530   -0.9200 C.3   366  THR366      0.1994
     23  C        -17.7570   28.0800    0.0170 C.2   366  THR366      0.2618
     24  O        -17.3880   27.5370    1.0800 O.2   366  THR366     -0.2717
     25  CB       -16.1360   27.7920   -1.9460 C.3   366  THR366      0.1784
     26  OG1      -15.1900   28.5160   -2.7310 O.3   366  THR366     -0.2211
     27  CG2      -17.1720   27.1690   -2.8530 C.3   366  THR366      0.0376
     28  N        -19.0350   28.1790   -0.3490 N.am  367  GLY367     -0.1942
     29  CA       -20.0980   27.8040    0.5390 C.3   367  GLY367      0.2014
     30  C        -20.9270   29.0100    0.8940 C.2   367  GLY367      0.2640
     31  O        -20.8480   29.9940    0.1940 O.2   367  GLY367     -0.2714
     32  N        -21.7530   28.8790    1.9470 N.am  368  THR368     -0.1936
     33  CA       -22.6790   29.9450    2.3950 C.3   368  THR368      0.2028
     34  C        -21.9220   31.2290    2.7300 C.2   368  THR368      0.2642
     35  O        -22.4730   32.2960    2.5790 O.2   368  THR368     -0.2714
     36  CB       -23.4990   29.6110    3.6500 C.3   368  THR368      0.1808
     37  OG1      -22.6400   29.2520    4.7400 O.3   368  THR368     -0.2208
     38  CG2      -24.5090   28.5140    3.4100 C.3   368  THR368      0.0379
     39  N        -20.6800   31.1160    3.2110 N.am  369  SER369     -0.1949
     40  CA       -19.9090   32.2910    3.5490 C.3   369  SER369      0.1924
     41  C        -19.6740   33.1790    2.3060 C.2   369  SER369      0.2314
     42  O        -19.8400   34.4210    2.3780 O.2   369  SER369     -0.2863
     43  CB       -18.6430   31.8970    4.2510 C.3   369  SER369      0.2116
     44  OG       -18.9160   31.5170    5.5950 O.3   369  SER369     -0.2180
     45  N        -13.1300   28.3160   -6.7220 N.3   391  GLY391     -0.1210
     46  CA       -13.8750   27.7550   -5.5890 C.3   391  GLY391      0.1956
     47  C        -13.3270   26.4190   -5.1350 C.2   391  GLY391      0.2613
     48  O        -13.9650   25.3950   -5.3650 O.2   391  GLY391     -0.2717
     49  N        -12.1720   26.4380   -4.4550 N.am  392  SER392     -0.1938
     50  CA       -11.6410   25.2570   -3.8280 C.3   392  SER392      0.2055
     51  C        -11.9340   25.3060   -2.3430 C.2   392  SER392      0.2642
     52  O        -11.3270   26.0830   -1.6540 O.2   392  SER392     -0.2714
     53  CB       -10.1410   25.0930   -4.0430 C.3   392  SER392      0.2130
     54  OG        -9.6970   23.8670   -3.4660 O.3   392  SER392     -0.2179
     55  N        -12.8020   24.4270   -1.8470 N.am  393  ILE393     -0.1977
     56  CA       -13.0640   24.4780   -0.4520 C.3   393  ILE393      0.1596
     57  C        -11.8210   24.0020    0.3020 C.2   393  ILE393      0.2287
     58  O        -11.1160   23.0740   -0.0970 O.2   393  ILE393     -0.2864
     59  CB       -14.3410   23.7350   -0.0240 C.3   393  ILE393      0.0276
     60  CG1      -14.3260   22.2390   -0.3720 C.3   393  ILE393      0.0022
     61  CG2      -15.5530   24.4760   -0.5460 C.3   393  ILE393      0.0022
     62  CD1      -14.8830   21.3830    0.7100 C.3   393  ILE393      0.0001
     63  N        -16.8000   27.6740    6.5690 N.3   421  GLY421     -0.1210
     64  CA       -17.7560   26.6910    7.0080 C.3   421  GLY421      0.1956
     65  C        -17.0820   25.5390    7.7280 C.2   421  GLY421      0.2612
     66  O        -15.8700   25.2560    7.5350 O.2   421  GLY421     -0.2717
     67  N        -17.8980   24.8050    8.4780 N.am  422  ASP422     -0.1959
     68  CA       -17.4370   23.6000    9.2090 C.3   422  ASP422      0.1840
     69  C        -16.8490   22.5800    8.2350 C.2   422  ASP422      0.2623
     70  O        -15.8800   21.9280    8.5360 O.2   422  ASP422     -0.2715
     71  CB       -18.5590   22.9770   10.0390 C.3   422  ASP422      0.1450
     72  CG       -19.8490   22.8010    9.2630 C.2   422  ASP422      0.3671
     73  OD1      -19.8700   23.2460    8.0700 O.co2 422  ASP422     -0.2456
     74  OD2      -20.8120   22.2190    9.8390 O.co2 422  ASP422     -0.2456
     75  N        -17.4500   22.4680    7.0490 N.am  423  GLY423     -0.1940
     76  CA       -17.0330   21.4940    6.0680 C.3   423  GLY423      0.2014
     77  C        -15.6710   21.8100    5.4750 C.2   423  GLY423      0.2639
     78  O        -14.8080   20.9640    5.4000 O.2   423  GLY423     -0.2714
     79  N        -15.5070   23.0520    5.0330 N.am  424  SER424     -0.1949
     80  CA       -14.2970   23.5040    4.3830 C.3   424  SER424      0.1924
     81  C        -13.1000   23.4230    5.3430 C.2   424  SER424      0.2314
     82  O        -12.0000   23.0320    4.9500 O.2   424  SER424     -0.2863
     83  CB       -14.5030   24.8960    3.8590 C.3   424  SER424      0.2116
     84  OG       -15.2200   24.8520    2.6340 O.3   424  SER424     -0.2180
     85  N        -10.6510   20.1520    5.3830 N.3   427  LEU427     -0.1245
     86  CA        -9.7270   19.7350    4.3440 C.3   427  LEU427      0.1561
     87  C         -8.3350   20.3000    4.6240 C.2   427  LEU427      0.2260
     88  O         -7.3680   19.7370    4.1380 O.2   427  LEU427     -0.2867
     89  CB       -10.1950   20.2050    2.9580 C.3   427  LEU427      0.0270
     90  CG       -11.3630   19.4660    2.3300 C.3   427  LEU427      0.0019
     91  CD1      -12.6420   19.6490    3.1520 C.3   427  LEU427      0.0001
     92  CD2      -11.5850   19.9320    0.9210 C.3   427  LEU427      0.0001
     93  N        -18.6010   28.5660   10.6430 N.3   447  LEU447     -0.1245
     94  CA       -20.0370   28.4370   10.5170 C.3   447  LEU447      0.1561
     95  C        -20.4030   26.9520   10.6780 C.2   447  LEU447      0.2260
     96  O        -20.3830   26.1930    9.6550 O.2   447  LEU447     -0.2867
     97  CB       -20.5350   28.9590    9.1590 C.3   447  LEU447      0.0270
     98  CG       -20.1310   30.3720    8.7230 C.3   447  LEU447      0.0019
     99  CD1      -21.1430   30.9180    7.7120 C.3   447  LEU447      0.0001
    100  CD2      -19.9880   31.3110    9.9000 C.3   447  LEU447      0.0001
    101  N        -23.0320   24.6180   10.6540 N.3   449  ASN449     -0.1240
    102  CA       -24.4060   24.3710   10.1850 C.3   449  ASN449      0.1653
    103  C        -24.5720   22.8710    9.9300 C.2   449  ASN449      0.2266
    104  O        -25.3840   22.4520    9.0900 O.2   449  ASN449     -0.2867
    105  CB       -24.7410   25.1760    8.9410 C.3   449  ASN449      0.1155
    106  CG       -23.6260   25.1320    7.9200 C.2   449  ASN449      0.2627
    107  OD1      -22.8720   24.1700    7.8580 O.2   449  ASN449     -0.2716
    108  ND2      -23.4900   26.1840    7.1370 N.am  449  ASN449     -0.0877
    109  N        -22.5590   20.5970    8.6020 N.3   451  GLY451     -0.1210
    110  CA       -22.0720   20.0020    7.3660 C.3   451  GLY451      0.1956
    111  C        -22.0710   20.9640    6.1880 C.2   451  GLY451      0.2612
    112  O        -21.7650   22.1210    6.3250 O.2   451  GLY451     -0.2717
    113  N        -22.3880   20.4340    5.0120 N.am  452  TYR452     -0.1962
    114  CA       -22.2260   21.0880    3.7380 C.3   452  TYR452      0.1771
    115  C        -23.5620   21.6870    3.2670 C.2   452  TYR452      0.2620
    116  O        -24.1850   21.1800    2.3360 O.2   452  TYR452     -0.2715
    117  CB       -21.7610   20.0700    2.6890 C.3   452  TYR452      0.0574
    118  CG       -20.4550   19.3310    2.9010 C.ar  452  TYR452     -0.0198
    119  CD1      -19.3970   19.8460    3.6390 C.ar  452  TYR452     -0.0009
    120  CD2      -20.2590   18.1110    2.2650 C.ar  452  TYR452     -0.0009
    121  CE1      -18.1930   19.1630    3.7610 C.ar  452  TYR452      0.0417
    122  CE2      -19.0690   17.4090    2.3860 C.ar  452  TYR452      0.0417
    123  CZ       -18.0330   17.9310    3.1420 C.ar  452  TYR452      0.1957
    124  OH       -16.8750   17.2150    3.2140 O.3   452  TYR452     -0.2866
    125  N        -23.9520   22.8120    3.8600 N.am  453  THR453     -0.1937
    126  CA       -25.2800   23.3900    3.6820 C.3   453  THR453      0.2028
    127  C        -25.5130   23.7900    2.2250 C.2   453  THR453      0.2642
    128  O        -26.6240   23.6580    1.7410 O.2   453  THR453     -0.2714
    129  CB       -25.5080   24.5680    4.6380 C.3   453  THR453      0.1808
    130  OG1      -25.4780   23.9720    5.9280 O.3   453  THR453     -0.2208
    131  CG2      -26.8080   25.3220    4.4240 C.3   453  THR453      0.0379
    132  N        -24.5040   24.3150    1.5300 N.am  454  ILE454     -0.1963
    133  CA       -24.7310   24.7530    0.1440 C.3   454  ILE454      0.1727
    134  C        -25.0420   23.5390   -0.7290 C.2   454  ILE454      0.2616
    135  O        -25.8640   23.6080   -1.6040 O.2   454  ILE454     -0.2715
    136  CB       -23.5910   25.6390   -0.4060 C.3   454  ILE454      0.0290
    137  CG1      -24.0060   26.3000   -1.7230 C.3   454  ILE454      0.0022
    138  CG2      -22.2690   24.8930   -0.5280 C.3   454  ILE454      0.0023
    139  CD1      -23.2660   27.6020   -2.0070 C.3   454  ILE454      0.0001
    140  N        -24.3780   22.4260   -0.4630 N.am  455  GLU455     -0.1977
    141  CA       -24.5880   21.1960   -1.1780 C.3   455  GLU455      0.1602
    142  C        -26.0460   20.7280   -1.0000 C.2   455  GLU455      0.2287
    143  O        -26.7450   20.3610   -1.9460 O.2   455  GLU455     -0.2864
    144  CB       -23.5730   20.1810   -0.6540 C.3   455  GLU455      0.0415
    145  CG       -22.8210   19.4280   -1.7360 C.3   455  GLU455      0.1163
    146  CD       -21.8050   20.2460   -2.5100 C.2   455  GLU455      0.3649
    147  OE1      -21.4170   21.3140   -2.0060 O.co2 455  GLU455     -0.2457
    148  OE2      -21.3930   19.8030   -3.6090 O.co2 455  GLU455     -0.2457
@<TRIPOS>BOND
     1    19    18    2
     2    16    15    2
     3    13    14    1
     4    14    15    1
     5    14    17    1
     6    45    46    1
     7    18    17    1
     8    18    20   am
     9    46    47    1
    10    48    47    2
    11    47    49   am
    12    49    50    1
    13    53    50    1
    14    53    54    1
    15    50    51    1
    16   148   146   ar
    17    27    25    1
    18    26    25    1
    19   146   147   ar
    20   146   145    1
    21    51    55   am
    22    51    52    2
    23     9     7   ar
    24     9    11   ar
    25    12    11    1
    26   139   137    1
    27    25    22    1
    28   143   142    2
    29    55    56    1
    30     7     6   ar
    31   145   144    1
    32   137   136    1
    33   135   134    2
    34    11    10   ar
    35   141   142    1
    36   141   144    1
    37   141   140    1
    38     1     2    1
    39    22    21    1
    40    22    23    1
    41   134   140   am
    42   134   133    1
    43     2     3    1
    44     2     5    1
    45    61    59    1
    46   138   136    1
    47    56    59    1
    48    56    57    1
    49     6     5    1
    50     6     8   ar
    51   136   133    1
    52    60    59    1
    53    60    62    1
    54    28    23   am
    55    28    29    1
    56    10     8   ar
    57     4     3    2
    58    58    57    2
    59    23    24    2
    60   133   132    1
    61    31    30    2
    62    29    30    1
    63    30    32   am
    64    92    90    1
    65   132   127   am
    66   128   127    2
    67    32    33    1
    68   127   126    1
    69   120   122   ar
    70   120   118   ar
    71    41    42    2
    72    41    40    1
    73    90    89    1
    74    90    91    1
    75   116   115    2
    76   122   123   ar
    77    33    34    1
    78    33    36    1
    79    35    34    2
    80    84    83    1
    81   117   118    1
    82   117   114    1
    83    34    39   am
    84   118   119   ar
    85    89    86    1
    86   123   124    1
    87   123   121   ar
    88    39    40    1
    89   115   114    1
    90   115   125   am
    91    38    36    1
    92    40    43    1
    93   119   121   ar
    94    36    37    1
    95   126   125    1
    96   126   129    1
    97   114   113    1
    98    83    80    1
    99    88    87    2
   100    43    44    1
   101    86    87    1
   102    86    85    1
   103    80    79    1
   104    80    81    1
   105   131   129    1
   106   129   130    1
   107    82    81    2
   108   113   111   am
   109    79    77   am
   110    78    77    2
   111    77    76    1
   112    76    75    1
   113   111   112    2
   114   111   110    1
   115    63    64    1
   116    64    65    1
   117    75    69   am
   118   108   106   am
   119   110   109    1
   120    66    65    2
   121    99    98    1
   122    65    67   am
   123   107   106    2
   124   106   105    1
   125    73    72   ar
   126    69    70    2
   127    69    68    1
   128    67    68    1
   129    98    97    1
   130    98   100    1
   131   105   102    1
   132   104   103    2
   133    97    94    1
   134    68    71    1
   135    72    74   ar
   136    72    71    1
   137    96    95    2
   138   103   102    1
   139   102   101    1
   140    94    93    1
   141    94    95    1
