@<TRIPOS>MOLECULE
tmp/6efhA02.pdb
 112 105 0 0 0
SMALL
GASTEIGER

@<TRIPOS>ATOM
      1  N        -40.0300  -62.1500   41.9060 N.3    73  PHE73      -0.1241
      2  CA       -38.8880  -61.3150   42.3240 C.3    73  PHE73       0.1605
      3  C        -38.0750  -60.7990   41.1180 C.2    73  PHE73       0.2264
      4  O        -37.6810  -61.5550   40.2630 O.2    73  PHE73      -0.2867
      5  CB       -37.9940  -62.1190   43.2790 C.3    73  PHE73       0.0534
      6  CG       -37.0290  -61.2790   44.0750 C.ar   73  PHE73      -0.0203
      7  CD1      -37.4980  -60.3450   44.9930 C.ar   73  PHE73      -0.0042
      8  CD2      -35.6600  -61.4040   43.8870 C.ar   73  PHE73      -0.0042
      9  CE1      -36.6230  -59.5340   45.6940 C.ar   73  PHE73      -0.0003
     10  CE2      -34.7830  -60.6030   44.6010 C.ar   73  PHE73      -0.0003
     11  CZ       -35.2660  -59.6620   45.4920 C.ar   73  PHE73      -0.0000
     12  N        -41.2130  -63.9560   46.3680 N.3   100  VAL100     -0.1245
     13  CA       -39.8250  -63.6010   46.6220 C.3   100  VAL100      0.1561
     14  C        -39.1750  -64.7760   47.3370 C.2   100  VAL100      0.2260
     15  O        -39.8640  -65.6600   47.8260 O.2   100  VAL100     -0.2867
     16  CB       -39.7090  -62.2920   47.4320 C.3   100  VAL100      0.0252
     17  CG1      -40.4660  -61.1470   46.7920 C.3   100  VAL100      0.0019
     18  CG2      -40.1890  -62.4580   48.8530 C.3   100  VAL100      0.0019
     19  N        -37.4700  -65.6420   53.4240 N.3   103  VAL103     -0.1245
     20  CA       -36.8980  -65.0770   54.6400 C.3   103  VAL103      0.1561
     21  C        -36.5540  -66.2680   55.5390 C.2   103  VAL103      0.2260
     22  O        -37.4360  -66.9220   56.1140 O.2   103  VAL103     -0.2867
     23  CB       -37.8380  -64.0690   55.3270 C.3   103  VAL103      0.0252
     24  CG1      -38.1620  -62.8980   54.4000 C.3   103  VAL103      0.0019
     25  CG2      -39.1080  -64.7200   55.8710 C.3   103  VAL103      0.0019
     26  N        -32.5990  -65.3510   50.5020 N.3   110  LEU110     -0.1245
     27  CA       -32.9620  -64.0570   49.9280 C.3   110  LEU110      0.1561
     28  C        -31.7490  -63.3880   49.2610 C.2   110  LEU110      0.2260
     29  O        -31.9160  -62.6890   48.2650 O.2   110  LEU110     -0.2867
     30  CB       -33.5320  -63.1840   51.0550 C.3   110  LEU110      0.0270
     31  CG       -34.4600  -62.0460   50.6390 C.3   110  LEU110      0.0019
     32  CD1      -35.6820  -62.5640   49.8980 C.3   110  LEU110      0.0001
     33  CD2      -34.8970  -61.2570   51.8580 C.3   110  LEU110      0.0001
     34  N        -31.7600  -56.2720   48.9940 N.3   121  PHE121     -0.1227
     35  CA       -32.7910  -57.1260   48.3810 C.3   121  PHE121      0.1736
     36  C        -34.1850  -56.4750   48.4920 C.2   121  PHE121      0.2596
     37  O        -35.1920  -57.0420   48.0170 O.2   121  PHE121     -0.2718
     38  CB       -32.7430  -58.5490   48.9660 C.3   121  PHE121      0.0547
     39  CG       -32.7070  -58.6600   50.4750 C.ar  121  PHE121     -0.0202
     40  CD1      -33.7190  -58.1210   51.2690 C.ar  121  PHE121     -0.0042
     41  CD2      -31.6650  -59.3280   51.1120 C.ar  121  PHE121     -0.0042
     42  CE1      -33.6740  -58.2190   52.6560 C.ar  121  PHE121     -0.0003
     43  CE2      -31.6190  -59.4220   52.5010 C.ar  121  PHE121     -0.0003
     44  CZ       -32.6200  -58.8660   53.2710 C.ar  121  PHE121     -0.0000
     45  N        -34.2730  -55.2820   49.0940 N.am  122  THR122     -0.1953
     46  CA       -35.5650  -54.5890   49.2240 C.3   122  THR122      0.1897
     47  C        -35.7930  -53.5890   48.0780 C.2   122  THR122      0.2313
     48  O        -36.8720  -52.9940   47.9820 O.2   122  THR122     -0.2863
     49  CB       -35.6590  -53.8840   50.5750 C.3   122  THR122      0.1794
     50  OG1      -34.5810  -52.9480   50.6450 O.3   122  THR122     -0.2208
     51  CG2      -35.6300  -54.8740   51.7150 C.3   122  THR122      0.0378
     52  N        -39.0770  -53.7670   46.0800 N.3   125  HIS125     -0.1226
     53  CA       -40.1500  -53.3120   46.9400 C.3   125  HIS125      0.1752
     54  C        -40.1240  -51.7740   46.9820 C.2   125  HIS125      0.2595
     55  O        -41.0880  -51.1260   46.5720 O.2   125  HIS125     -0.2718
     56  CB       -40.0520  -54.0100   48.3040 C.3   125  HIS125      0.0759
     57  CG       -41.1570  -53.6930   49.2480 C.ar  125  HIS125      0.0818
     58  ND1      -41.1930  -54.2130   50.5220 N.ar  125  HIS125     -0.2268
     59  CD2      -42.2460  -52.9120   49.1260 C.ar  125  HIS125      0.1154
     60  CE1      -42.2760  -53.7790   51.1380 C.ar  125  HIS125      0.1986
     61  NE2      -42.9260  -52.9750   50.3060 N.ar  125  HIS125     -0.2212
     62  N        -39.0110  -51.1910   47.4560 N.am  126  ARG126     -0.1980
     63  CA       -38.8620  -49.7160   47.5350 C.3   126  ARG126      0.1597
     64  C        -39.4230  -49.0950   46.2570 C.2   126  ARG126      0.2287
     65  O        -40.2720  -48.2050   46.2980 O.2   126  ARG126     -0.2864
     66  CB       -37.3990  -49.2800   47.6440 C.3   126  ARG126      0.0334
     67  CG       -37.0050  -48.6560   48.9720 C.3   126  ARG126      0.0492
     68  CD       -35.7930  -47.7340   48.8480 C.3   126  ARG126      0.2205
     69  NE       -34.6570  -48.2170   48.0490 N.pl3 126  ARG126     -0.0865
     70  CZ       -33.9040  -49.2990   48.3110 C.cat 126  ARG126      0.5346
     71  NH1      -34.1550  -50.0710   49.3680 N.pl3 126  ARG126      0.1354
     72  NH2      -32.9160  -49.6040   47.4760 N.pl3 126  ARG126      0.1354
     73  N        -42.9670  -48.9610   45.8590 N.3   129  SER129     -0.1217
     74  CA       -43.6500  -48.2260   46.9830 C.3   129  SER129      0.1889
     75  C        -44.1210  -46.8480   46.4930 C.2   129  SER129      0.2288
     76  O        -45.1520  -46.3290   46.9120 O.2   129  SER129     -0.2866
     77  CB       -42.7760  -48.1240   48.2210 C.3   129  SER129      0.2089
     78  OG       -41.9550  -46.9500   48.2100 O.3   129  SER129     -0.2183
     79  N        -47.9000  -50.8670   50.7080 N.3   135  THR135     -0.1218
     80  CA       -47.2260  -52.0860   50.3830 C.3   135  THR135      0.1862
     81  C        -47.2980  -53.0000   51.6150 C.2   135  THR135      0.2287
     82  O        -47.8660  -52.6410   52.6180 O.2   135  THR135     -0.2866
     83  CB       -45.7960  -51.7940   49.9050 C.3   135  THR135      0.1770
     84  OG1      -44.9770  -51.5920   51.0530 O.3   135  THR135     -0.2211
     85  CG2      -45.6860  -50.5740   49.0230 C.3   135  THR135      0.0375
     86  N        -44.8250  -56.7030   53.0190 N.3   137  MET137     -0.1245
     87  CA       -43.9010  -57.8120   52.7200 C.3   137  MET137      0.1570
     88  C        -43.9660  -58.8220   53.8730 C.2   137  MET137      0.2261
     89  O        -43.3390  -58.6290   54.8910 O.2   137  MET137     -0.2867
     90  CB       -42.4740  -57.2960   52.5270 C.3   137  MET137      0.0387
     91  CG       -41.4450  -58.3890   52.4280 C.3   137  MET137      0.0595
     92  SD       -41.5980  -59.3680   50.9140 S.3   137  MET137     -0.1393
     93  CE       -41.1190  -58.1350   49.7010 C.3   137  MET137      0.0692
     94  N        -43.6320  -61.2770   56.5800 N.3   139  THR139     -0.1218
     95  CA       -42.5050  -61.9470   57.2170 C.3   139  THR139      0.1862
     96  C        -42.9910  -62.8690   58.3310 C.2   139  THR139      0.2287
     97  O        -42.1630  -63.5790   58.8830 O.2   139  THR139     -0.2866
     98  CB       -41.4890  -60.9780   57.8450 C.3   139  THR139      0.1770
     99  OG1      -42.1470  -60.1940   58.8490 O.3   139  THR139     -0.2211
    100  CG2      -40.8030  -60.0880   56.8280 C.3   139  THR139      0.0375
    101  N        -48.7240  -53.2930   46.6070 N.3   163  TYR163     -0.1241
    102  CA       -47.6220  -54.2680   46.4860 C.3   163  TYR163      0.1605
    103  C        -47.7200  -55.1900   47.6980 C.2   163  TYR163      0.2264
    104  O        -47.8890  -54.7020   48.7960 O.2   163  TYR163     -0.2867
    105  CB       -46.2670  -53.5470   46.4150 C.3   163  TYR163      0.0534
    106  CG       -45.0340  -54.3880   46.1910 C.ar  163  TYR163     -0.0201
    107  CD1      -44.3570  -54.9850   47.2390 C.ar  163  TYR163     -0.0009
    108  CD2      -44.4950  -54.5350   44.9290 C.ar  163  TYR163     -0.0009
    109  CE1      -43.2050  -55.7430   47.0330 C.ar  163  TYR163      0.0417
    110  CE2      -43.3550  -55.2950   44.6980 C.ar  163  TYR163      0.0417
    111  CZ       -42.6950  -55.9000   45.7530 C.ar  163  TYR163      0.1957
    112  OH       -41.5690  -56.6440   45.5160 O.3   163  TYR163     -0.2866
@<TRIPOS>BOND
     1     4     3    2
     2     3     2    1
     3     1     2    1
     4     2     5    1
     5     5     6    1
     6     8     6   ar
     7     8    10   ar
     8     6     7   ar
     9    10    11   ar
    10   110   108   ar
    11   110   111   ar
    12   108   106   ar
    13     7     9   ar
    14    11     9   ar
    15   112   111    1
    16   111   109   ar
    17    73    74    1
    18    52    53    1
    19   106   105    1
    20   106   107   ar
    21    64    65    2
    22    64    63    1
    23    12    13    1
    24   105   102    1
    25   102   101    1
    26   102   103    1
    27    75    76    2
    28    75    74    1
    29    55    54    2
    30    13    14    1
    31    13    16    1
    32    17    16    1
    33    53    54    1
    34    53    56    1
    35    54    62   am
    36    74    77    1
    37   109   107   ar
    38    14    15    2
    39    16    18    1
    40    62    63    1
    41    72    70    1
    42    63    66    1
    43    66    67    1
    44   103   104    2
    45    48    47    2
    46    37    36    2
    47    69    70    2
    48    69    68    1
    49    47    46    1
    50    78    77    1
    51    29    28    2
    52    56    57    1
    53    70    71    1
    54    35    36    1
    55    35    38    1
    56    35    34    1
    57    36    45   am
    58    68    67    1
    59    38    39    1
    60    85    83    1
    61    45    46    1
    62    59    57   ar
    63    59    61   ar
    64    46    49    1
    65    57    58   ar
    66    28    27    1
    67    93    92    1
    68    32    31    1
    69    83    80    1
    70    83    84    1
    71    27    26    1
    72    27    30    1
    73    61    60   ar
    74    80    79    1
    75    80    81    1
    76    39    41   ar
    77    39    40   ar
    78    58    60   ar
    79    49    50    1
    80    49    51    1
    81    31    30    1
    82    31    33    1
    83    92    91    1
    84    41    43   ar
    85    40    42   ar
    86    81    82    2
    87    91    90    1
    88    43    44   ar
    89    90    87    1
    90    42    44   ar
    91    87    86    1
    92    87    88    1
    93    19    20    1
    94    88    89    2
    95    24    23    1
    96    20    23    1
    97    20    21    1
    98    23    25    1
    99    21    22    2
   100    94    95    1
   101   100    98    1
   102    95    98    1
   103    95    96    1
   104    98    99    1
   105    96    97    2
