@<TRIPOS>MOLECULE
tmp/6efnA00.pdb
 188 177 0 0 0
SMALL
GASTEIGER

@<TRIPOS>ATOM
      1  N         30.0930   49.9010   22.9000 N.3   106  CYS106     -0.1235
      2  CA        30.4960   48.6600   22.2550 C.3   106  CYS106      0.1677
      3  C         32.0130   48.5900   22.3130 C.2   106  CYS106      0.2270
      4  O         32.6870   49.6250   22.3440 O.2   106  CYS106     -0.2867
      5  CB        30.0460   48.6330   20.7860 C.3   106  CYS106      0.0956
      6  SG        30.2600   47.0390   19.9940 S.3   106  CYS106     -0.0801
      7  N         32.4870   49.1970   14.2740 N.3   110  CYS110     -0.1235
      8  CA        32.3980   48.8120   12.8690 C.3   110  CYS110      0.1677
      9  C         32.0170   50.0020   12.0020 C.2   110  CYS110      0.2270
     10  O         31.1350   50.7990   12.3520 O.2   110  CYS110     -0.2867
     11  CB        31.3380   47.7230   12.7130 C.3   110  CYS110      0.0956
     12  SG        31.4840   46.3280   13.8550 S.3   110  CYS110     -0.0801
     13  N         30.3450   50.2760    9.4350 N.3   112  PHE112     -0.1227
     14  CA        29.0120   50.2180    8.8490 C.3   112  PHE112      0.1736
     15  C         27.9020   50.3920    9.8790 C.2   112  PHE112      0.2596
     16  O         26.7310   50.4340    9.4940 O.2   112  PHE112     -0.2718
     17  CB        28.8090   48.8880    8.0940 C.3   112  PHE112      0.0547
     18  CG        29.1480   47.6660    8.9170 C.ar  112  PHE112     -0.0202
     19  CD1       28.2290   47.1390    9.8210 C.ar  112  PHE112     -0.0042
     20  CD2       30.4010   47.0720    8.8130 C.ar  112  PHE112     -0.0042
     21  CE1       28.5570   46.0270   10.5850 C.ar  112  PHE112     -0.0003
     22  CE2       30.7290   45.9630    9.5860 C.ar  112  PHE112     -0.0003
     23  CZ        29.8160   45.4550   10.4760 C.ar  112  PHE112     -0.0000
     24  N         28.2350   50.4980   11.1690 N.am  113  CYS113     -0.1956
     25  CA        27.2480   50.3260   12.2380 C.3   113  CYS113      0.1843
     26  C         26.0860   51.3100   12.1240 C.2   113  CYS113      0.2625
     27  O         26.2890   52.5260   12.2060 O.2   113  CYS113     -0.2714
     28  CB        27.9300   50.4870   13.5970 C.3   113  CYS113      0.0997
     29  SG        26.7920   50.2030   14.9770 S.3   113  CYS113     -0.0797
     30  N         24.8600   50.7840   11.9700 N.am  114  TYR114     -0.1960
     31  CA        23.7030   51.6640   11.8220 C.3   114  TYR114      0.1771
     32  C         23.4610   52.4870   13.0760 C.2   114  TYR114      0.2619
     33  O         22.8400   53.5540   12.9940 O.2   114  TYR114     -0.2715
     34  CB        22.4260   50.8960   11.4100 C.3   114  TYR114      0.0574
     35  CG        21.8000   50.0880   12.5410 C.ar  114  TYR114     -0.0198
     36  CD1       21.1060   50.7140   13.5730 C.ar  114  TYR114     -0.0009
     37  CD2       21.9080   48.7120   12.5800 C.ar  114  TYR114     -0.0009
     38  CE1       20.5590   49.9960   14.6160 C.ar  114  TYR114      0.0417
     39  CE2       21.3470   47.9800   13.6110 C.ar  114  TYR114      0.0417
     40  CZ        20.6850   48.6320   14.6270 C.ar  114  TYR114      0.1957
     41  OH        20.1470   47.9150   15.6670 O.3   114  TYR114     -0.2866
     42  N         23.9130   52.0020   14.2330 N.am  115  ALA115     -0.1977
     43  CA        23.6940   52.6670   15.5080 C.3   115  ALA115      0.1597
     44  C         24.8510   53.5700   15.8860 C.2   115  ALA115      0.2287
     45  O         24.7910   54.2370   16.9280 O.2   115  ALA115     -0.2864
     46  CB        23.4650   51.6360   16.6150 C.3   115  ALA115      0.0319
     47  N         19.5650   44.6560   22.6950 N.3   148  THR148     -0.1203
     48  CA        20.5750   45.0040   21.6990 C.3   148  THR148      0.1994
     49  C         21.3620   46.2370   22.1650 C.2   148  THR148      0.2618
     50  O         21.3260   46.6360   23.3360 O.2   148  THR148     -0.2717
     51  CB        19.9450   45.1160   20.3020 C.3   148  THR148      0.1784
     52  OG1       20.9860   45.1740   19.3160 O.3   148  THR148     -0.2211
     53  CG2       19.0340   46.3490   20.1850 C.3   148  THR148      0.0376
     54  N         22.1180   46.8170   21.2510 N.am  149  GLY149     -0.1942
     55  CA        22.9770   47.9460   21.5730 C.3   149  GLY149      0.2014
     56  C         23.4610   48.6320   20.3140 C.2   149  GLY149      0.2639
     57  O         22.6340   48.9620   19.4650 O.2   149  GLY149     -0.2714
     58  N         24.7650   48.8490   20.1370 N.am  150  GLY150     -0.1939
     59  CA        25.7900   48.5240   21.1080 C.3   150  GLY150      0.2014
     60  C         25.9240   47.0420   21.3800 C.2   150  GLY150      0.2638
     61  O         25.2790   46.2040   20.7300 O.2   150  GLY150     -0.2714
     62  N         26.7550   46.7220   22.3610 N.am  151  GLU151     -0.1977
     63  CA        26.8520   45.3710   22.9060 C.3   151  GLU151      0.1602
     64  C         26.0530   45.3690   24.2100 C.2   151  GLU151      0.2287
     65  O         26.5100   45.8840   25.2340 O.2   151  GLU151     -0.2864
     66  CB        28.3160   44.9820   23.1010 C.3   151  GLU151      0.0415
     67  CG        28.4970   43.5900   23.6830 C.3   151  GLU151      0.1163
     68  CD        28.0910   42.4600   22.7470 C.2   151  GLU151      0.3649
     69  OE1       27.9200   42.6800   21.5150 O.co2 151  GLU151     -0.2457
     70  OE2       27.9600   41.3230   23.2640 O.co2 151  GLU151     -0.2457
     71  N         21.2860   40.1890   21.4350 N.3   175  PHE175     -0.1227
     72  CA        22.1410   40.3740   20.2700 C.3   175  PHE175      0.1736
     73  C         23.5540   40.6550   20.7640 C.2   175  PHE175      0.2596
     74  O         23.7420   41.4450   21.6880 O.2   175  PHE175     -0.2718
     75  CB        21.6270   41.5440   19.4270 C.3   175  PHE175      0.0547
     76  CG        21.6300   41.3040   17.9330 C.ar  175  PHE175     -0.0202
     77  CD1       22.7620   40.8130   17.2710 C.ar  175  PHE175     -0.0042
     78  CD2       20.5050   41.6210   17.1910 C.ar  175  PHE175     -0.0042
     79  CE1       22.7440   40.6240   15.8960 C.ar  175  PHE175     -0.0003
     80  CE2       20.4760   41.4350   15.8170 C.ar  175  PHE175     -0.0003
     81  CZ        21.5840   40.9150   15.1650 C.ar  175  PHE175     -0.0000
     82  N         24.5380   39.9890   20.1660 N.am  176  SER176     -0.1938
     83  CA        25.9270   40.1390   20.5800 C.3   176  SER176      0.2055
     84  C         26.8770   40.0040   19.3960 C.2   176  SER176      0.2643
     85  O         26.6510   39.2140   18.4680 O.2   176  SER176     -0.2714
     86  CB        26.2750   39.0750   21.6300 C.3   176  SER176      0.2130
     87  OG        27.6310   39.1500   22.0190 O.3   176  SER176     -0.2179
     88  N         27.9770   40.7580   19.4640 N.am  177  ASN177     -0.1971
     89  CA        29.0740   40.5150   18.5400 C.3   177  ASN177      0.1688
     90  C         29.8300   39.2180   18.8530 C.2   177  ASN177      0.2292
     91  O         30.7140   38.8510   18.0740 O.2   177  ASN177     -0.2864
     92  CB        30.0230   41.7210   18.4600 C.3   177  ASN177      0.1181
     93  CG        30.5970   42.1200   19.8010 C.2   177  ASN177      0.2629
     94  OD1       30.8100   41.2830   20.6840 O.2   177  ASN177     -0.2716
     95  ND2       30.8860   43.4110   19.9520 N.am  177  ASN177     -0.0877
     96  N         26.6930   38.1010   15.3230 N.3   200  SER200     -0.1217
     97  CA        27.0430   38.5830   13.9880 C.3   200  SER200      0.1889
     98  C         28.3430   37.9590   13.4840 C.2   200  SER200      0.2288
     99  O         29.3960   38.0750   14.1270 O.2   200  SER200     -0.2866
    100  CB        27.1830   40.1000   13.9810 C.3   200  SER200      0.2089
    101  OG        25.9550   40.7040   14.2890 O.3   200  SER200     -0.2183
    102  N         35.1320   43.9450   10.8780 N.3   212  ARG212     -0.1245
    103  CA        34.8340   44.2490   12.2730 C.3   212  ARG212      0.1563
    104  C         35.9890   44.9300   12.9950 C.2   212  ARG212      0.2260
    105  O         35.8340   45.3130   14.1620 O.2   212  ARG212     -0.2867
    106  CB        34.4520   42.9650   13.0160 C.3   212  ARG212      0.0307
    107  CG        33.1900   42.2960   12.4810 C.3   212  ARG212      0.0489
    108  CD        32.0280   42.4280   13.4300 C.3   212  ARG212      0.2205
    109  NE        30.7660   42.4350   12.7130 N.pl3 212  ARG212     -0.0865
    110  CZ        29.5940   42.6890   13.2740 C.cat 212  ARG212      0.5346
    111  NH1       29.5230   42.9030   14.5820 N.pl3 212  ARG212      0.1354
    112  NH2       28.4990   42.7360   12.5200 N.pl3 212  ARG212      0.1354
    113  N         23.6860   36.2000   12.2530 N.3   238  ALA238     -0.1245
    114  CA        23.3010   37.2690   11.3440 C.3   238  ALA238      0.1562
    115  C         24.5350   37.7100   10.5610 C.2   238  ALA238      0.2260
    116  O         25.5300   38.1440   11.1540 O.2   238  ALA238     -0.2867
    117  CB        22.7220   38.4450   12.1320 C.3   238  ALA238      0.0290
    118  N         25.8400   40.3080    7.6190 N.3   240  THR240     -0.1218
    119  CA        25.4750   41.5670    6.9880 C.3   240  THR240      0.1862
    120  C         26.3610   41.7430    5.7620 C.2   240  THR240      0.2287
    121  O         27.5970   41.8160    5.8760 O.2   240  THR240     -0.2866
    122  CB        25.6310   42.6980    7.9980 C.3   240  THR240      0.1770
    123  OG1       24.7450   42.4450    9.1010 O.3   240  THR240     -0.2211
    124  CG2       25.3070   44.0460    7.3790 C.3   240  THR240      0.0375
    125  N         20.8200   33.9260    8.9980 N.3   265  ARG265     -0.1245
    126  CA        20.1160   34.9670    8.2630 C.3   265  ARG265      0.1563
    127  C         21.1190   35.9260    7.6400 C.2   265  ARG265      0.2260
    128  O         21.9670   36.4870    8.3350 O.2   265  ARG265     -0.2867
    129  CB        19.1730   35.7320    9.1970 C.3   265  ARG265      0.0307
    130  CG        18.2260   36.6640    8.4800 C.3   265  ARG265      0.0489
    131  CD        17.3980   37.4700    9.4730 C.3   265  ARG265      0.2205
    132  NE        18.1870   38.5220   10.1090 N.pl3 265  ARG265     -0.0865
    133  CZ        18.6100   38.4950   11.3700 C.cat 265  ARG265      0.5346
    134  NH1       19.3240   39.5080   11.8510 N.pl3 265  ARG265      0.1354
    135  NH2       18.3100   37.4650   12.1550 N.pl3 265  ARG265      0.1354
    136  N         21.1560   42.7410    3.8160 N.3   268  LYS268     -0.1231
    137  CA        21.9430   43.7920    3.1790 C.3   268  LYS268      0.1693
    138  C         22.4700   44.7910    4.2060 C.2   268  LYS268      0.2593
    139  O         21.9150   44.9690    5.2950 O.2   268  LYS268     -0.2718
    140  CB        21.0920   44.5560    2.1640 C.3   268  LYS268      0.0285
    141  CG        20.6750   43.7330    0.9900 C.3   268  LYS268      0.0035
    142  CD        19.9080   44.5950   -0.0140 C.3   268  LYS268      0.0206
    143  CE        19.5910   43.8150   -1.2800 C.3   268  LYS268      0.1093
    144  NZ        18.6580   44.5580   -2.1610 N.3   268  LYS268     -0.1314
    145  N         23.5700   45.4480    3.8440 N.am  269  THR269     -0.1939
    146  CA        24.0180   46.6230    4.5740 C.3   269  THR269      0.2028
    147  C         23.1680   47.8060    4.1390 C.2   269  THR269      0.2642
    148  O         23.0790   48.1080    2.9440 O.2   269  THR269     -0.2714
    149  CB        25.4860   46.9070    4.2620 C.3   269  THR269      0.1808
    150  OG1       26.2840   45.7770    4.6430 O.3   269  THR269     -0.2208
    151  CG2       25.9540   48.1310    5.0260 C.3   269  THR269      0.0379
    152  N         22.5500   48.4760    5.1040 N.am  270  LEU270     -0.1977
    153  CA        21.6450   49.5790    4.8250 C.3   270  LEU270      0.1596
    154  C         22.3410   50.9080    5.0980 C.2   270  LEU270      0.2287
    155  O         23.2550   50.9950    5.9210 O.2   270  LEU270     -0.2864
    156  CB        20.3840   49.4350    5.6790 C.3   270  LEU270      0.0297
    157  CG        19.8100   48.0150    5.5650 C.3   270  LEU270      0.0022
    158  CD1       18.6960   47.7920    6.5440 C.3   270  LEU270      0.0001
    159  CD2       19.3340   47.7550    4.1510 C.3   270  LEU270      0.0001
    160  N         22.4430   53.5970    6.8090 N.3   272  VAL272     -0.1245
    161  CA        22.0290   54.1970    8.0720 C.3   272  VAL272      0.1561
    162  C         23.2600   54.3030    8.9670 C.2   272  VAL272      0.2260
    163  O         24.1480   53.4470    8.9360 O.2   272  VAL272     -0.2867
    164  CB        20.9250   53.3510    8.7590 C.3   272  VAL272      0.0252
    165  CG1       20.5120   53.9750   10.0810 C.3   272  VAL272      0.0019
    166  CG2       19.7180   53.1830    7.8400 C.3   272  VAL272      0.0019
    167  N         27.2660   53.6450    8.0950 N.3   275  ALA275     -0.1245
    168  CA        27.3180   53.1130    6.7390 C.3   275  ALA275      0.1562
    169  C         26.9850   54.1590    5.6830 C.2   275  ALA275      0.2260
    170  O         27.2760   53.9380    4.5020 O.2   275  ALA275     -0.2867
    171  CB        26.3750   51.9250    6.5960 C.3   275  ALA275      0.0290
    172  N         14.5990   49.9390   14.6120 N.3   334  GLN334     -0.1231
    173  CA        15.9750   50.1850   15.0350 C.3   334  GLN334      0.1698
    174  C         16.7380   51.0770   14.0640 C.2   334  GLN334      0.2592
    175  O         17.7440   51.6750   14.4600 O.2   334  GLN334     -0.2718
    176  CB        16.7220   48.8690   15.2520 C.3   334  GLN334      0.0381
    177  CG        16.9460   48.0590   14.0010 C.3   334  GLN334      0.0905
    178  CD        17.3200   46.6230   14.3330 C.2   334  GLN334      0.2608
    179  OE1       16.8440   46.0520   15.3290 O.2   334  GLN334     -0.2717
    180  NE2       18.1740   46.0340   13.5110 N.am  334  GLN334     -0.0878
    181  N         16.2780   51.1970   12.8160 N.am  335  LEU335     -0.1980
    182  CA        16.9290   52.0650   11.8380 C.3   335  LEU335      0.1596
    183  C         16.4760   53.5170   11.9220 C.2   335  LEU335      0.2287
    184  O         17.0670   54.3750   11.2570 O.2   335  LEU335     -0.2864
    185  CB        16.6520   51.5490   10.4240 C.3   335  LEU335      0.0297
    186  CG        17.1570   50.1420   10.1100 C.3   335  LEU335      0.0022
    187  CD1       16.8190   49.7930    8.6730 C.3   335  LEU335      0.0001
    188  CD2       18.6600   50.0200   10.3700 C.3   335  LEU335      0.0001
@<TRIPOS>BOND
     1   144   143    1
     2   143   142    1
     3   142   141    1
     4   141   140    1
     5   140   137    1
     6   148   147    2
     7   137   136    1
     8   137   138    1
     9   145   138   am
    10   145   146    1
    11   147   146    1
    12   147   152   am
    13   159   157    1
    14   138   139    2
    15   149   146    1
    16   149   150    1
    17   149   151    1
    18   170   169    2
    19   153   154    1
    20   153   152    1
    21   153   156    1
    22   154   155    2
    23   157   156    1
    24   157   158    1
    25   169   168    1
    26   120   121    2
    27   120   119    1
    28   171   168    1
    29   168   167    1
    30   160   161    1
    31   119   118    1
    32   119   122    1
    33   124   122    1
    34   127   126    1
    35   127   128    2
    36   166   164    1
    37   122   123    1
    38   161   164    1
    39   161   162    1
    40    17    14    1
    41    17    18    1
    42   126   125    1
    43   126   129    1
    44   130   129    1
    45   130   131    1
    46   187   186    1
    47   164   165    1
    48    20    18   ar
    49    20    22   ar
    50    14    13    1
    51    14    15    1
    52    18    19   ar
    53   163   162    2
    54   131   132    1
    55    16    15    2
    56    22    23   ar
    57    19    21   ar
    58    15    24   am
    59   132   133    2
    60   186   188    1
    61   186   185    1
    62   185   182    1
    63    23    21   ar
    64   115   116    2
    65   115   114    1
    66   102   103    1
    67    24    25    1
    68   184   183    2
    69   114   117    1
    70   114   113    1
    71   133   134    1
    72   133   135    1
    73    34    31    1
    74    34    35    1
    75    31    30    1
    76    31    32    1
    77   182   183    1
    78   182   181    1
    79    30    26   am
    80     9    10    2
    81     9     8    1
    82    26    27    2
    83    26    25    1
    84    25    28    1
    85   103   104    1
    86   103   106    1
    87   107   106    1
    88   107   108    1
    89   112   110    1
    90    35    37   ar
    91    35    36   ar
    92    37    39   ar
    93    11     8    1
    94    11    12    1
    95   109   110    2
    96   109   108    1
    97   181   174   am
    98     8     7    1
    99    33    32    2
   100   104   105    2
   101    32    42   am
   102   110   111    1
   103    98    97    1
   104    98    99    2
   105   180   178   am
   106    36    38   ar
   107    28    29    1
   108    39    40   ar
   109   100    97    1
   110   100   101    1
   111    97    96    1
   112   177   178    1
   113   177   176    1
   114   174   175    2
   115   174   173    1
   116    42    43    1
   117   178   179    2
   118   172   173    1
   119    38    40   ar
   120    40    41    1
   121   173   176    1
   122    81    80   ar
   123    81    79   ar
   124    43    44    1
   125    43    46    1
   126    80    78   ar
   127    44    45    2
   128    79    77   ar
   129    78    76   ar
   130    77    76   ar
   131    76    75    1
   132    91    90    2
   133    92    89    1
   134    92    93    1
   135    85    84    2
   136    89    90    1
   137    89    88    1
   138    52    51    1
   139    84    88   am
   140    84    83    1
   141    75    72    1
   142    57    56    2
   143    93    95   am
   144    93    94    2
   145     6     5    1
   146    58    56   am
   147    58    59    1
   148    82    83    1
   149    82    73   am
   150    53    51    1
   151    72    73    1
   152    72    71    1
   153    51    48    1
   154    56    55    1
   155    83    86    1
   156    61    60    2
   157    73    74    2
   158     5     2    1
   159    59    60    1
   160    54    55    1
   161    54    49   am
   162    60    62   am
   163    69    68   ar
   164    86    87    1
   165    48    49    1
   166    48    47    1
   167    49    50    2
   168     2     3    1
   169     2     1    1
   170     3     4    2
   171    62    63    1
   172    68    70   ar
   173    68    67    1
   174    63    66    1
   175    63    64    1
   176    66    67    1
   177    64    65    2
