@<TRIPOS>MOLECULE
tmp/6efvA01.pdb
 153 149 0 0 0
SMALL
GASTEIGER

@<TRIPOS>ATOM
      1  N         20.2380  -16.7380  -33.6890 N.3     7  SER7       -0.1202
      2  CA        18.8920  -16.1970  -33.5470 C.3     7  SER7        0.2020
      3  C         18.5450  -16.0620  -32.0680 C.2     7  SER7        0.2619
      4  O         19.0120  -16.8430  -31.2350 O.2     7  SER7       -0.2717
      5  CB        17.8740  -17.1040  -34.2750 C.3     7  SER7        0.2103
      6  OG        16.6180  -16.4770  -34.4740 O.3     7  SER7       -0.2182
      7  N         17.7340  -15.0540  -31.7420 N.am    8  GLN8       -0.1965
      8  CA        17.2080  -14.8840  -30.3870 C.3     8  GLN8        0.1733
      9  C         15.7790  -15.3910  -30.2550 C.2     8  GLN8        0.2617
     10  O         15.4950  -16.2210  -29.3860 O.2     8  GLN8       -0.2715
     11  CB        17.2720  -13.4130  -29.9550 C.3     8  GLN8        0.0408
     12  CG        18.6900  -12.8700  -29.7500 C.3     8  GLN8        0.0908
     13  CD        19.2380  -13.1020  -28.3440 C.2     8  GLN8        0.2608
     14  OE1       20.1210  -13.9400  -28.1340 O.2     8  GLN8       -0.2717
     15  NE2       18.7270  -12.3430  -27.3800 N.am    8  GLN8       -0.0878
     16  N         14.8680  -14.9040  -31.1010 N.am    9  THR9       -0.1951
     17  CA        13.4770  -15.3400  -31.1060 C.3     9  THR9        0.1897
     18  C         13.1230  -16.1110  -32.3770 C.2     9  THR9        0.2313
     19  O         11.9590  -16.1440  -32.7840 O.2     9  THR9       -0.2863
     20  CB        12.5330  -14.1520  -30.9170 C.3     9  THR9        0.1794
     21  OG1       12.8530  -13.1110  -31.8570 O.3     9  THR9       -0.2208
     22  CG2       12.6320  -13.6130  -29.4890 C.3     9  THR9        0.0378
     23  N         13.6660  -16.0010  -35.7300 N.3    11  ASN11      -0.1225
     24  CA        13.4420  -15.5560  -37.1070 C.3    11  ASN11       0.1785
     25  C         14.6260  -15.9100  -38.0020 C.2    11  ASN11       0.2597
     26  O         14.4440  -16.4530  -39.1000 O.2    11  ASN11      -0.2718
     27  CB        13.1760  -14.0500  -37.1540 C.3    11  ASN11       0.1169
     28  CG        11.8890  -13.6580  -36.4600 C.2    11  ASN11       0.2627
     29  OD1       10.9500  -14.4500  -36.3600 O.2    11  ASN11      -0.2716
     30  ND2       11.8390  -12.4210  -35.9760 N.am   11  ASN11      -0.0877
     31  N         15.8490  -15.5890  -37.5580 N.am   12  ALA12      -0.1979
     32  CA        17.0340  -15.9670  -38.3220 C.3    12  ALA12       0.1597
     33  C         17.0860  -17.4700  -38.5480 C.2    12  ALA12       0.2287
     34  O         17.5160  -17.9250  -39.6150 O.2    12  ALA12      -0.2864
     35  CB        18.3050  -15.4930  -37.6100 C.3    12  ALA12       0.0319
     36  N         20.5320  -12.4850  -36.7480 N.3    54  SER54      -0.1202
     37  CA        19.8430  -11.2620  -36.3830 C.3    54  SER54       0.2020
     38  C         20.7300  -10.4600  -35.4320 C.2    54  SER54       0.2619
     39  O         21.8780  -10.8220  -35.1610 O.2    54  SER54      -0.2717
     40  CB        18.4790  -11.5860  -35.7710 C.3    54  SER54       0.2103
     41  OG        18.5810  -12.6310  -34.8170 O.3    54  SER54      -0.2182
     42  N         20.1900   -9.3530  -34.9180 N.am   55  THR55      -0.1938
     43  CA        20.9630   -8.3910  -34.1420 C.3    55  THR55       0.2028
     44  C         20.2380   -8.0640  -32.8380 C.2    55  THR55       0.2642
     45  O         19.0090   -7.9620  -32.8120 O.2    55  THR55      -0.2714
     46  CB        21.2160   -7.1000  -34.9660 C.3    55  THR55       0.1808
     47  OG1       21.5550   -7.4480  -36.3160 O.3    55  THR55      -0.2208
     48  CG2       22.3570   -6.2890  -34.3830 C.3    55  THR55       0.0379
     49  N         21.0030   -7.9130  -31.7560 N.am   56  GLN56      -0.1962
     50  CA        20.4680   -7.5720  -30.4400 C.3    56  GLN56       0.1736
     51  C         21.0310   -6.2450  -29.9320 C.2    56  GLN56       0.2656
     52  O         21.6430   -5.4840  -30.6870 O.2    56  GLN56      -0.2711
     53  CB        20.7670   -8.6750  -29.4160 C.3    56  GLN56       0.0408
     54  CG        19.8790   -9.9050  -29.5220 C.3    56  GLN56       0.0908
     55  CD        18.4120   -9.6150  -29.2290 C.2    56  GLN56       0.2608
     56  OE1       18.0680   -8.9950  -28.2160 O.2    56  GLN56      -0.2717
     57  NE2       17.5370  -10.0680  -30.1210 N.am   56  GLN56      -0.0878
     58  N         20.6330   -5.9100  -28.7020 N.am   57  GLY57      -0.1716
     59  CA        20.6970   -4.5700  -28.1390 C.2    57  GLY57       0.1480
     60  C         21.0590   -3.4440  -29.0870 C.2    57  GLY57       0.2820
     61  O         20.2090   -2.8670  -29.7700 O.2    57  GLY57      -0.2669
     62  N         22.3430   -3.1200  -29.0890 N.am   58  GLU58      -0.1929
     63  CA        22.9860   -2.1440  -29.9690 C.3    58  GLU58       0.1736
     64  C         24.1040   -2.7660  -30.8070 C.2    58  GLU58       0.2617
     65  O         25.2880   -2.4620  -30.6170 O.2    58  GLU58      -0.2715
     66  CB        23.5250   -0.9790  -29.1300 C.3    58  GLU58       0.0429
     67  CG        24.3020   -1.4280  -27.8970 C.3    58  GLU58       0.1163
     68  CD        24.3240   -0.3800  -26.8000 C.2    58  GLU58       0.3649
     69  OE1       23.5710    0.6110  -26.9040 O.co2  58  GLU58      -0.2457
     70  OE2       25.0950   -0.5480  -25.8320 O.co2  58  GLU58      -0.2457
     71  N         23.7320   -3.6270  -31.7500 N.am   59  GLY59      -0.1955
     72  CA        24.6990   -4.2940  -32.5930 C.3    59  GLY59       0.1869
     73  C         25.3390   -5.5250  -31.9920 C.2    59  GLY59       0.2309
     74  O         26.1100   -6.2050  -32.6870 O.2    59  GLY59      -0.2863
     75  N         19.4940   -9.9080  -40.2700 N.3    90  LEU90      -0.1231
     76  CA        18.1680   -9.4910  -39.8240 C.3    90  LEU90       0.1693
     77  C         18.3030   -8.4340  -38.7340 C.2    90  LEU90       0.2593
     78  O         19.2510   -8.4580  -37.9430 O.2    90  LEU90      -0.2718
     79  CB        17.3350  -10.6740  -39.2740 C.3    90  LEU90       0.0284
     80  CG        16.9340  -11.8460  -40.1730 C.3    90  LEU90       0.0019
     81  CD1       18.1470  -12.6930  -40.5320 C.3    90  LEU90       0.0001
     82  CD2       15.8590  -12.7050  -39.5140 C.3    90  LEU90       0.0001
     83  N         17.3420   -7.5190  -38.6850 N.am   91  GLY91      -0.1942
     84  CA        17.4030   -6.4410  -37.7150 C.3    91  GLY91       0.2014
     85  C         16.1970   -5.5300  -37.7910 C.2    91  GLY91       0.2638
     86  O         15.1580   -5.8900  -38.3480 O.2    91  GLY91      -0.2714
     87  N         16.3530   -4.3380  -37.2130 N.am   92  ASP92      -0.1971
     88  CA        15.3030   -3.3220  -37.1570 C.3    92  ASP92       0.1709
     89  C         15.9340   -1.9720  -37.4860 C.2    92  ASP92       0.2293
     90  O         16.8480   -1.5270  -36.7820 O.2    92  ASP92      -0.2864
     91  CB        14.6390   -3.3100  -35.7690 C.3    92  ASP92       0.1436
     92  CG        13.4140   -2.4020  -35.6980 C.2    92  ASP92       0.3671
     93  OD1       13.4000   -1.3630  -36.3890 O.co2  92  ASP92      -0.2456
     94  OD2       12.4680   -2.7200  -34.9380 O.co2  92  ASP92      -0.2456
     95  N         16.8680    1.1960  -35.1710 N.3    95  TYR95      -0.1241
     96  CA        18.0090    1.1480  -34.2660 C.3    95  TYR95       0.1605
     97  C         19.2320    1.8110  -34.8920 C.2    95  TYR95       0.2264
     98  O         19.3930    1.8520  -36.1170 O.2    95  TYR95      -0.2867
     99  CB        18.3530   -0.2990  -33.8900 C.3    95  TYR95       0.0534
    100  CG        17.4600   -0.8980  -32.8250 C.ar   95  TYR95      -0.0201
    101  CD1       17.7230   -0.6950  -31.4720 C.ar   95  TYR95      -0.0009
    102  CD2       16.3550   -1.6710  -33.1710 C.ar   95  TYR95      -0.0009
    103  CE1       16.9070   -1.2410  -30.4920 C.ar   95  TYR95       0.0417
    104  CE2       15.5340   -2.2260  -32.2000 C.ar   95  TYR95       0.0417
    105  CZ        15.8120   -2.0080  -30.8620 C.ar   95  TYR95       0.1957
    106  OH        14.9860   -2.5620  -29.9010 O.3    95  TYR95      -0.2866
    107  N         22.5330    0.9990  -34.8990 N.3    97  PHE97      -0.1227
    108  CA        23.3620    0.0660  -35.6640 C.3    97  PHE97       0.1736
    109  C         22.4330   -0.9980  -36.2400 C.2    97  PHE97       0.2595
    110  O         22.1180   -1.9970  -35.5910 O.2    97  PHE97      -0.2718
    111  CB        24.4520   -0.5410  -34.7890 C.3    97  PHE97       0.0547
    112  CG        25.0920    0.4430  -33.8570 C.ar   97  PHE97      -0.0202
    113  CD1       24.5240    0.7130  -32.6200 C.ar   97  PHE97      -0.0042
    114  CD2       26.2560    1.1030  -34.2160 C.ar   97  PHE97      -0.0042
    115  CE1       25.1060    1.6210  -31.7540 C.ar   97  PHE97      -0.0003
    116  CE2       26.8470    2.0160  -33.3530 C.ar   97  PHE97      -0.0003
    117  CZ        26.2700    2.2740  -32.1190 C.ar   97  PHE97      -0.0000
    118  N         21.9830   -0.7660  -37.4690 N.am   98  PHE98      -0.1962
    119  CA        21.0920   -1.6930  -38.1540 C.3    98  PHE98       0.1771
    120  C         21.9090   -2.8590  -38.6960 C.2    98  PHE98       0.2619
    121  O         22.6950   -2.6930  -39.6360 O.2    98  PHE98      -0.2715
    122  CB        20.3420   -0.9840  -39.2770 C.3    98  PHE98       0.0574
    123  CG        19.6210   -1.9210  -40.2090 C.ar   98  PHE98      -0.0200
    124  CD1       18.3870   -2.4520  -39.8640 C.ar   98  PHE98      -0.0042
    125  CD2       20.1780   -2.2670  -41.4320 C.ar   98  PHE98      -0.0042
    126  CE1       17.7230   -3.3120  -40.7220 C.ar   98  PHE98      -0.0003
    127  CE2       19.5200   -3.1270  -42.2960 C.ar   98  PHE98      -0.0003
    128  CZ        18.2900   -3.6490  -41.9410 C.ar   98  PHE98      -0.0000
    129  N         21.7210   -4.0400  -38.1030 N.am   99  CYS99      -0.1968
    130  CA        22.3530   -5.2720  -38.5760 C.3    99  CYS99       0.1712
    131  C         23.8640   -5.2700  -38.3350 C.2    99  CYS99       0.2296
    132  O         24.6390   -5.6940  -39.1930 O.2    99  CYS99      -0.2864
    133  CB        22.0410   -5.5230  -40.0570 C.3    99  CYS99       0.0983
    134  SG        20.3770   -6.1940  -40.3920 S.3    99  CYS99      -0.0798
    135  N         12.3950   -5.5390  -40.3320 N.3   125  VAL125     -0.1245
    136  CA        11.3920   -6.4210  -39.7350 C.3   125  VAL125      0.1561
    137  C         10.7250   -7.2690  -40.8100 C.2   125  VAL125      0.2260
    138  O         10.8270   -8.5010  -40.8120 O.2   125  VAL125     -0.2867
    139  CB        10.3570   -5.6070  -38.9430 C.3   125  VAL125      0.0252
    140  CG1        9.4810   -6.5400  -38.1140 C.3   125  VAL125      0.0019
    141  CG2       11.0570   -4.5720  -38.0640 C.3   125  VAL125      0.0019
    142  N         10.9780   -9.1620  -43.3610 N.3   127  TYR127     -0.1241
    143  CA        12.1630   -9.7430  -43.9710 C.3   127  TYR127      0.1605
    144  C         11.8600  -10.8210  -45.0030 C.2   127  TYR127      0.2264
    145  O         12.7560  -11.1710  -45.7800 O.2   127  TYR127     -0.2867
    146  CB        13.0900  -10.3200  -42.8880 C.3   127  TYR127      0.0534
    147  CG        12.5260  -11.4920  -42.1080 C.ar  127  TYR127     -0.0201
    148  CD1       12.5270  -12.7750  -42.6460 C.ar  127  TYR127     -0.0009
    149  CD2       12.0220  -11.3230  -40.8210 C.ar  127  TYR127     -0.0009
    150  CE1       12.0240  -13.8510  -41.9400 C.ar  127  TYR127      0.0417
    151  CE2       11.5140  -12.3990  -40.1050 C.ar  127  TYR127      0.0417
    152  CZ        11.5200  -13.6610  -40.6720 C.ar  127  TYR127      0.1957
    153  OH        11.0240  -14.7420  -39.9770 O.3   127  TYR127     -0.2866
@<TRIPOS>BOND
     1   145   144    2
     2   144   143    1
     3   143   142    1
     4   143   146    1
     5   146   147    1
     6   148   147   ar
     7   148   150   ar
     8   127   128   ar
     9   127   125   ar
    10   147   149   ar
    11   128   126   ar
    12   150   152   ar
    13   125   123   ar
    14   149   151   ar
    15   138   137    2
    16   137   136    1
    17   126   124   ar
    18   152   151   ar
    19   152   153    1
    20    81    80    1
    21   134   133    1
    22   135   136    1
    23    75    76    1
    24   123   124   ar
    25   123   122    1
    26    80    82    1
    27    80    79    1
    28   133   130    1
    29    76    79    1
    30    76    77    1
    31   136   139    1
    32   121   120    2
    33    34    33    2
    34   122   119    1
    35   132   131    2
    36    26    25    2
    37   139   140    1
    38   139   141    1
    39    77    83   am
    40    77    78    2
    41   120   119    1
    42   120   129   am
    43    83    84    1
    44   130   131    1
    45   130   129    1
    46    33    32    1
    47    86    85    2
    48    32    35    1
    49    32    31    1
    50   119   118    1
    51    25    31   am
    52    25    24    1
    53    85    84    1
    54    85    87   am
    55    89    88    1
    56    89    90    2
    57   118   109   am
    58    87    88    1
    59    88    91    1
    60    27    24    1
    61    27    28    1
    62    24    23    1
    63    36    37    1
    64    28    29    2
    65    28    30   am
    66    93    92   ar
    67    37    40    1
    68    37    38    1
    69    47    46    1
    70   109   108    1
    71   109   110    2
    72    98    97    2
    73    40    41    1
    74    91    92    1
    75    92    94   ar
    76   108   107    1
    77   108   111    1
    78    38    39    2
    79    38    42   am
    80    95    96    1
    81    46    48    1
    82    46    43    1
    83    42    43    1
    84    97    96    1
    85   111   112    1
    86     6     5    1
    87     5     2    1
    88    96    99    1
    89   114   112   ar
    90   114   116   ar
    91    43    44    1
    92    99   100    1
    93   112   113   ar
    94     1     2    1
    95     2     3    1
    96   116   117   ar
    97   102   100   ar
    98   102   104   ar
    99    44    45    2
   100    44    49   am
   101   100   101   ar
   102    19    18    2
   103    74    73    2
   104   113   115   ar
   105    72    73    1
   106    72    71    1
   107    18    17    1
   108   104   105   ar
   109   117   115   ar
   110     3     7   am
   111     3     4    2
   112    21    20    1
   113    49    50    1
   114    71    64   am
   115     7     8    1
   116   101   103   ar
   117    17    16    1
   118    17    20    1
   119    16     9   am
   120    20    22    1
   121   105   103   ar
   122   105   106    1
   123    64    65    2
   124    64    63    1
   125    52    51    2
   126    50    51    1
   127    50    53    1
   128     8     9    1
   129     8    11    1
   130     9    10    2
   131    57    55   am
   132    63    66    1
   133    63    62    1
   134    11    12    1
   135    51    58    1
   136    61    60    2
   137    12    13    1
   138    54    53    1
   139    54    55    1
   140    55    56    2
   141    66    67    1
   142    62    60   am
   143    60    59    1
   144    58    59    2
   145    13    14    2
   146    13    15   am
   147    67    68    1
   148    69    68   ar
   149    68    70   ar
