@<TRIPOS>MOLECULE
tmp/6efxA00.pdb
 162 152 0 0 0
SMALL
GASTEIGER

@<TRIPOS>ATOM
      1  N        -18.3230  -31.2880  -29.1640 N.3   143  ASP143     -0.1239
      2  CA       -18.1250  -32.6270  -28.5970 C.3   143  ASP143      0.1674
      3  C        -18.2940  -33.6790  -29.6840 C.2   143  ASP143      0.2266
      4  O        -18.7740  -33.3930  -30.7790 O.2   143  ASP143     -0.2867
      5  CB       -19.1070  -32.8940  -27.4510 C.3   143  ASP143      0.1410
      6  CG       -18.7420  -34.1240  -26.6230 C.2   143  ASP143      0.3668
      7  OD1      -17.5410  -34.4690  -26.5490 O.co2 143  ASP143     -0.2456
      8  OD2      -19.6740  -34.7410  -26.0420 O.co2 143  ASP143     -0.2456
      9  N        -12.6210  -36.7050  -25.3050 N.3   171  ASN171     -0.1225
     10  CA       -12.2180  -37.7940  -24.4400 C.3   171  ASN171      0.1785
     11  C        -10.7600  -38.1290  -24.7650 C.2   171  ASN171      0.2597
     12  O        -10.0900  -37.4240  -25.5250 O.2   171  ASN171     -0.2718
     13  CB       -13.1910  -38.9670  -24.5640 C.3   171  ASN171      0.1169
     14  CG       -13.0100  -39.7770  -25.8410 C.2   171  ASN171      0.2627
     15  OD1      -12.0680  -39.5750  -26.6140 O.2   171  ASN171     -0.2716
     16  ND2      -13.9290  -40.7290  -26.0590 N.am  171  ASN171     -0.0877
     17  N        -10.2630  -39.2290  -24.1980 N.am  172  VAL172     -0.1980
     18  CA        -8.8410  -39.5540  -24.2920 C.3   172  VAL172      0.1595
     19  C         -8.4120  -39.7190  -25.7430 C.2   172  VAL172      0.2287
     20  O         -7.4010  -39.1540  -26.1690 O.2   172  VAL172     -0.2864
     21  CB        -8.5300  -40.8060  -23.4550 C.3   172  VAL172      0.0276
     22  CG1       -7.2630  -41.4760  -23.9400 C.3   172  VAL172      0.0022
     23  CG2       -8.3910  -40.4070  -21.9990 C.3   172  VAL172      0.0022
     24  N        -10.1100  -38.8640  -28.6680 N.3   174  GLU174     -0.1245
     25  CA       -10.3260  -37.6290  -29.4050 C.3   174  GLU174      0.1567
     26  C         -9.2170  -36.6200  -29.1200 C.2   174  GLU174      0.2260
     27  O         -8.7520  -35.9280  -30.0310 O.2   174  GLU174     -0.2867
     28  CB       -11.6980  -37.0630  -29.0530 C.3   174  GLU174      0.0388
     29  CG       -12.8220  -38.0080  -29.4600 C.3   174  GLU174      0.1160
     30  CD       -14.0990  -37.8920  -28.6070 C.2   174  GLU174      0.3649
     31  OE1      -14.1900  -37.0530  -27.6810 O.co2 174  GLU174     -0.2457
     32  OE2      -15.0230  -38.6810  -28.8720 O.co2 174  GLU174     -0.2457
     33  N        -11.1810  -34.8410  -20.9040 N.3   209  LYS209     -0.1231
     34  CA       -11.9270  -35.7160  -20.0050 C.3   209  LYS209      0.1693
     35  C        -11.1400  -36.9760  -19.6800 C.2   209  LYS209      0.2593
     36  O        -10.4710  -37.5520  -20.5470 O.2   209  LYS209     -0.2718
     37  CB       -13.2700  -36.1080  -20.6320 C.3   209  LYS209      0.0285
     38  CG       -14.3200  -34.9970  -20.6580 C.3   209  LYS209      0.0035
     39  CD       -15.5780  -35.3880  -21.4850 C.3   209  LYS209      0.0206
     40  CE       -15.2610  -35.9860  -22.8490 C.3   209  LYS209      0.1093
     41  NZ       -16.4650  -36.0140  -23.7620 N.3   209  LYS209     -0.1314
     42  N        -11.2350  -37.4220  -18.4270 N.am  210  GLY210     -0.1943
     43  CA       -10.6020  -38.6600  -18.0180 C.3   210  GLY210      0.1998
     44  C        -10.8110  -38.9630  -16.5460 C.2   210  GLY210      0.2480
     45  O        -11.7060  -38.4040  -15.8970 O.2   210  GLY210     -0.2729
     46  N         -9.9830  -39.8720  -15.9990 N.am  211  PRO211     -0.2726
     47  CA       -10.0360  -40.1540  -14.5520 C.3   211  PRO211      0.1402
     48  C        -10.0590  -38.8820  -13.7200 C.2   211  PRO211      0.2269
     49  O        -10.7990  -38.7950  -12.7310 O.2   211  PRO211     -0.2865
     50  CB        -8.7620  -40.9760  -14.3100 C.3   211  PRO211      0.0296
     51  CG        -8.4960  -41.6550  -15.6350 C.3   211  PRO211      0.0237
     52  CD        -8.9630  -40.6770  -16.7000 C.3   211  PRO211      0.0939
     53  N        -10.2560  -34.5350  -15.0540 N.3   213  ASP213     -0.1239
     54  CA       -10.3540  -33.6590  -16.2200 C.3   213  ASP213      0.1674
     55  C         -9.2790  -32.5820  -16.1410 C.2   213  ASP213      0.2266
     56  O         -9.0690  -31.9900  -15.0760 O.2   213  ASP213     -0.2867
     57  CB       -11.7230  -32.9820  -16.3020 C.3   213  ASP213      0.1410
     58  CG       -12.8940  -33.9720  -16.4470 C.2   213  ASP213      0.3668
     59  OD1      -12.6890  -35.1880  -16.6960 O.co2 213  ASP213     -0.2456
     60  OD2      -14.0430  -33.4910  -16.3190 O.co2 213  ASP213     -0.2456
     61  N        -16.2630  -38.7710   -9.1810 N.3   241  GLY241     -0.1210
     62  CA       -17.3320  -39.0300  -10.1240 C.3   241  GLY241      0.1956
     63  C        -18.0280  -40.3490   -9.8090 C.2   241  GLY241      0.2612
     64  O        -17.9620  -40.8640   -8.6920 O.2   241  GLY241     -0.2717
     65  N        -18.7350  -40.8860  -10.7930 N.am  242  GLY242     -0.1942
     66  CA       -19.3170  -42.2060  -10.6300 C.3   242  GLY242      0.2014
     67  C        -18.4000  -43.3080  -11.1640 C.2   242  GLY242      0.2638
     68  O        -17.4470  -43.0630  -11.9050 O.2   242  GLY242     -0.2714
     69  N        -18.6950  -44.5460  -10.7910 N.am  243  LEU243     -0.1977
     70  CA       -17.8540  -45.6600  -11.2110 C.3   243  LEU243      0.1596
     71  C        -18.4190  -46.4230  -12.4110 C.2   243  LEU243      0.2287
     72  O        -17.6990  -47.2310  -13.0070 O.2   243  LEU243     -0.2864
     73  CB       -17.6400  -46.6100  -10.0320 C.3   243  LEU243      0.0297
     74  CG       -16.8110  -45.9500   -8.9240 C.3   243  LEU243      0.0022
     75  CD1      -16.7720  -46.8430   -7.6980 C.3   243  LEU243      0.0001
     76  CD2      -15.4120  -45.7050   -9.4470 C.3   243  LEU243      0.0001
     77  N        -19.2520  -46.6970  -16.1110 N.3   245  ARG245     -0.1231
     78  CA       -18.7860  -46.0170  -17.3260 C.3   245  ARG245      0.1694
     79  C        -19.7800  -46.2020  -18.4790 C.2   245  ARG245      0.2592
     80  O        -19.4080  -46.5070  -19.6150 O.2   245  ARG245     -0.2718
     81  CB       -17.3920  -46.5220  -17.7140 C.3   245  ARG245      0.0321
     82  CG       -16.2790  -46.2730  -16.6610 C.3   245  ARG245      0.0489
     83  CD       -15.5850  -44.8950  -16.8080 C.3   245  ARG245      0.2205
     84  NE       -16.4970  -43.7580  -16.7380 N.pl3 245  ARG245     -0.0865
     85  CZ       -16.8730  -43.1850  -15.5900 C.cat 245  ARG245      0.5346
     86  NH1      -16.3810  -43.6140  -14.4150 N.pl3 245  ARG245      0.1354
     87  NH2      -17.7220  -42.1690  -15.6140 N.pl3 245  ARG245      0.1354
     88  N        -21.0700  -46.0040  -18.1870 N.am  246  VAL246     -0.1966
     89  CA       -22.1050  -46.1180  -19.2040 C.3   246  VAL246      0.1727
     90  C        -22.0000  -44.9440  -20.1840 C.2   246  VAL246      0.2617
     91  O        -21.6490  -43.8180  -19.8060 O.2   246  VAL246     -0.2715
     92  CB       -23.4800  -46.1700  -18.5080 C.3   246  VAL246      0.0290
     93  CG1      -23.8520  -44.8000  -17.9190 C.3   246  VAL246      0.0023
     94  CG2      -24.5620  -46.6710  -19.4480 C.3   246  VAL246      0.0023
     95  N        -22.3170  -45.1970  -21.4530 N.am  247  GLY247     -0.1940
     96  CA       -22.1950  -44.1480  -22.4590 C.3   247  GLY247      0.2014
     97  C        -23.1480  -42.9980  -22.1880 C.2   247  GLY247      0.2639
     98  O        -24.2200  -43.1770  -21.6070 O.2   247  GLY247     -0.2714
     99  N        -22.7510  -41.7950  -22.6050 N.am  248  GLY248     -0.1939
    100  CA       -23.6340  -40.6330  -22.5600 C.3   248  GLY248      0.2014
    101  C        -23.2810  -39.5690  -21.5280 C.2   248  GLY248      0.2639
    102  O        -23.8880  -38.4870  -21.5470 O.2   248  GLY248     -0.2714
    103  N        -22.3540  -39.8360  -20.6130 N.am  249  GLN249     -0.1963
    104  CA       -22.0930  -38.8720  -19.5410 C.3   249  GLN249      0.1733
    105  C        -21.4020  -37.6170  -20.0700 C.2   249  GLN249      0.2617
    106  O        -21.5500  -36.5350  -19.4910 O.2   249  GLN249     -0.2715
    107  CB       -21.2740  -39.5470  -18.4490 C.3   249  GLN249      0.0408
    108  CG       -22.0880  -40.7050  -17.8290 C.3   249  GLN249      0.0908
    109  CD       -21.3200  -41.4870  -16.7960 C.2   249  GLN249      0.2608
    110  OE1      -21.0460  -40.9860  -15.7120 O.2   249  GLN249     -0.2717
    111  NE2      -20.9550  -42.7240  -17.1320 N.am  249  GLN249     -0.0878
    112  N        -20.6810  -37.7300  -21.1860 N.am  250  GLY250     -0.1940
    113  CA       -20.1660  -36.5300  -21.8280 C.3   250  GLY250      0.2014
    114  C        -21.2360  -35.6640  -22.4600 C.2   250  GLY250      0.2638
    115  O        -20.9760  -34.4930  -22.7570 O.2   250  GLY250     -0.2714
    116  N        -22.4380  -36.2050  -22.6820 N.am  251  ASP251     -0.1971
    117  CA       -23.4870  -35.3530  -23.2240 C.3   251  ASP251      0.1709
    118  C        -24.1530  -34.5230  -22.1360 C.2   251  ASP251      0.2293
    119  O        -24.5710  -33.3840  -22.3950 O.2   251  ASP251     -0.2864
    120  CB       -24.5320  -36.1940  -23.9650 C.3   251  ASP251      0.1436
    121  CG       -23.9400  -36.9990  -25.1000 C.2   251  ASP251      0.3671
    122  OD1      -24.1210  -38.2340  -25.1010 O.co2 251  ASP251     -0.2456
    123  OD2      -23.3150  -36.4020  -26.0060 O.co2 251  ASP251     -0.2456
    124  N        -22.4110  -33.4370  -19.7480 N.3   253  LEU253     -0.1245
    125  CA       -21.3630  -32.4330  -19.6040 C.3   253  LEU253      0.1561
    126  C        -21.5060  -31.3280  -20.6440 C.2   253  LEU253      0.2260
    127  O        -21.3620  -30.1400  -20.3230 O.2   253  LEU253     -0.2867
    128  CB       -19.9760  -33.0860  -19.7190 C.3   253  LEU253      0.0270
    129  CG       -18.7660  -32.1160  -19.6820 C.3   253  LEU253      0.0019
    130  CD1      -18.7310  -31.2620  -18.3920 C.3   253  LEU253      0.0001
    131  CD2      -17.4320  -32.8420  -19.8530 C.3   253  LEU253      0.0001
    132  N        -17.4650  -29.3740  -15.5020 N.3   298  SER298     -0.1217
    133  CA       -16.6950  -30.5770  -15.1930 C.3   298  SER298      0.1889
    134  C        -16.9660  -31.0370  -13.7670 C.2   298  SER298      0.2288
    135  O        -17.2410  -32.2180  -13.5200 O.2   298  SER298     -0.2866
    136  CB       -15.2090  -30.2900  -15.3620 C.3   298  SER298      0.2089
    137  OG       -14.4090  -31.3730  -14.9250 O.3   298  SER298     -0.2183
    138  N        -20.6470  -32.2580  -13.4590 N.3   301  ASN301     -0.1225
    139  CA       -20.9990  -33.5010  -14.1450 C.3   301  ASN301      0.1785
    140  C        -20.4800  -34.7240  -13.3950 C.2   301  ASN301      0.2597
    141  O        -21.1540  -35.7560  -13.3470 O.2   301  ASN301     -0.2718
    142  CB       -20.4740  -33.5140  -15.5800 C.3   301  ASN301      0.1169
    143  CG       -21.2200  -34.5460  -16.4610 C.2   301  ASN301      0.2627
    144  OD1      -22.4410  -34.5300  -16.5410 O.2   301  ASN301     -0.2716
    145  ND2      -20.4800  -35.4690  -17.0730 N.am  301  ASN301     -0.0877
    146  N        -19.2840  -34.6300  -12.8140 N.am  302  ARG302     -0.1979
    147  CA       -18.8040  -35.7350  -12.0060 C.3   302  ARG302      0.1597
    148  C        -19.6560  -35.8910  -10.7600 C.2   302  ARG302      0.2287
    149  O        -19.8620  -37.0160  -10.2870 O.2   302  ARG302     -0.2864
    150  CB       -17.3290  -35.5200  -11.6780 C.3   302  ARG302      0.0334
    151  CG       -16.4160  -35.6580  -12.9530 C.3   302  ARG302      0.0492
    152  CD       -15.0530  -35.0180  -12.7290 C.3   302  ARG302      0.2205
    153  NE       -14.2350  -35.8080  -11.8010 N.pl3 302  ARG302     -0.0865
    154  CZ       -13.4060  -36.7730  -12.1890 C.cat 302  ARG302      0.5346
    155  NH1      -13.2760  -37.0490  -13.4880 N.pl3 302  ARG302      0.1354
    156  NH2      -12.6990  -37.4470  -11.2870 N.pl3 302  ARG302      0.1354
    157  N        -22.7770  -37.7370  -11.8990 N.3   305  SER305     -0.1217
    158  CA       -22.4670  -39.1550  -12.0690 C.3   305  SER305      0.1889
    159  C        -22.2900  -39.8460  -10.7180 C.2   305  SER305      0.2288
    160  O        -22.7550  -40.9780  -10.5230 O.2   305  SER305     -0.2866
    161  CB       -21.2100  -39.3120  -12.9340 C.3   305  SER305      0.2089
    162  OG       -21.4490  -38.8360  -14.2610 O.3   305  SER305     -0.2183
@<TRIPOS>BOND
     1     4     3    2
     2    27    26    2
     3     3     2    1
     4    29    28    1
     5    29    30    1
     6    25    26    1
     7    25    28    1
     8    25    24    1
     9     1     2    1
    10    32    30   ar
    11    30    31   ar
    12     2     5    1
    13     5     6    1
    14     6     7   ar
    15     6     8   ar
    16    15    14    2
    17    20    19    2
    18    16    14   am
    19   123   121   ar
    20    14    13    1
    21    19    18    1
    22    12    11    2
    23     9    10    1
    24   122   121   ar
    25   121   120    1
    26    11    10    1
    27    11    17   am
    28    13    10    1
    29    18    17    1
    30    18    21    1
    31   120   117    1
    32    22    21    1
    33    41    40    1
    34    21    23    1
    35   117   116    1
    36   117   118    1
    37    40    39    1
    38   115   114    2
    39   116   114   am
    40    99   100    1
    41    99    97   am
    42   100   101    1
    43   114   113    1
    44    96    97    1
    45    96    95    1
    46   119   118    2
    47    97    98    2
    48   113   112    1
    49   102   101    2
    50   101   103   am
    51    39    38    1
    52    95    90   am
    53   112   105   am
    54    33    34    1
    55    38    37    1
    56   126   127    2
    57   126   125    1
    58    37    34    1
    59   103   104    1
    60    36    35    2
    61    90    91    2
    62    90    89    1
    63   105   104    1
    64   105   106    2
    65    34    35    1
    66   131   129    1
    67   124   125    1
    68   128   129    1
    69   128   125    1
    70   129   130    1
    71    35    42   am
    72    80    79    2
    73   104   107    1
    74    94    92    1
    75    89    92    1
    76    89    88    1
    77    92    93    1
    78    79    88   am
    79    79    78    1
    80   107   108    1
    81    42    43    1
    82    43    44    1
    83   108   109    1
    84    81    78    1
    85    81    82    1
    86    78    77    1
    87   111   109   am
    88   145   143   am
    89    83    84    1
    90    83    82    1
    91   109   110    2
    92    84    85    2
    93    52    46    1
    94    52    51    1
    95    59    58   ar
    96    44    46   am
    97    44    45    2
    98   144   143    2
    99   143   142    1
   100    58    60   ar
   101    58    57    1
   102    57    54    1
   103    54    55    1
   104    54    53    1
   105    55    56    2
   106    46    47    1
   107    51    50    1
   108    87    85    1
   109    85    86    1
   110   142   139    1
   111   132   133    1
   112   136   133    1
   113   136   137    1
   114   133   134    1
   115    47    50    1
   116    47    48    1
   117   162   161    1
   118   139   138    1
   119   139   140    1
   120   134   135    2
   121    48    49    2
   122   155   154    1
   123   140   141    2
   124   140   146   am
   125    72    71    2
   126   151   152    1
   127   151   150    1
   128   161   158    1
   129   146   147    1
   130   152   153    1
   131    71    70    1
   132   154   153    2
   133   154   156    1
   134   158   157    1
   135   158   159    1
   136   147   150    1
   137   147   148    1
   138    68    67    2
   139    70    69    1
   140    70    73    1
   141    67    69   am
   142    67    66    1
   143    65    66    1
   144    65    63   am
   145   148   149    2
   146   159   160    2
   147    62    63    1
   148    62    61    1
   149    73    74    1
   150    63    64    2
   151    76    74    1
   152    74    75    1
