@<TRIPOS>MOLECULE
tmp/6eg2A00.pdb
 214 202 0 0 0
SMALL
GASTEIGER

@<TRIPOS>ATOM
      1  N        156.6260  140.6940   39.1820 N.3   410  ILE410     -0.1245
      2  CA       156.8420  139.2430   39.1450 C.3   410  ILE410      0.1561
      3  C        156.2390  138.6060   37.8910 C.2   410  ILE410      0.2260
      4  O        155.0760  138.8560   37.5450 O.2   410  ILE410     -0.2867
      5  CB       156.2500  138.5570   40.4250 C.3   410  ILE410      0.0252
      6  CG1      156.8500  139.0940   41.7290 C.3   410  ILE410      0.0019
      7  CG2      156.3490  137.0320   40.3730 C.3   410  ILE410      0.0019
      8  CD1      155.8690  139.8320   42.4690 C.3   410  ILE410      0.0001
      9  N        170.3650  137.1420   38.3590 N.3   443  ILE443     -0.1245
     10  CA       170.6450  136.1560   39.4160 C.3   443  ILE443      0.1561
     11  C        169.8400  134.9000   39.1780 C.2   443  ILE443      0.2260
     12  O        168.6200  134.8890   39.2870 O.2   443  ILE443     -0.2867
     13  CB       170.5380  136.6610   40.8760 C.3   443  ILE443      0.0252
     14  CG1      171.2360  138.0320   41.0720 C.3   443  ILE443      0.0019
     15  CG2      171.0960  135.6060   41.8450 C.3   443  ILE443      0.0019
     16  CD1      170.3610  139.3140   40.6890 C.3   443  ILE443      0.0001
     17  N        173.3020  133.6010   43.4590 N.3   494  TYR494     -0.1241
     18  CA       172.9810  133.9900   44.8350 C.3   494  TYR494      0.1605
     19  C        174.2580  134.0490   45.7030 C.2   494  TYR494      0.2264
     20  O        174.4250  134.9740   46.5010 O.2   494  TYR494     -0.2867
     21  CB       171.9640  132.9600   45.4310 C.3   494  TYR494      0.0534
     22  CG       170.6080  132.9010   44.7310 C.ar  494  TYR494     -0.0201
     23  CD1      170.4810  132.3640   43.4430 C.ar  494  TYR494     -0.0009
     24  CD2      169.4480  133.3330   45.3730 C.ar  494  TYR494     -0.0009
     25  CE1      169.2450  132.3210   42.7910 C.ar  494  TYR494      0.0417
     26  CE2      168.2030  133.2800   44.7350 C.ar  494  TYR494      0.0417
     27  CZ       168.1070  132.7700   43.4440 C.ar  494  TYR494      0.1957
     28  OH       166.8830  132.7150   42.8150 O.3   494  TYR494     -0.2866
     29  N        176.6730  137.1180   44.6480 N.3   497  ILE497     -0.1231
     30  CA       176.0280  138.3670   45.0390 C.3   497  ILE497      0.1692
     31  C        176.4210  138.7170   46.4780 C.2   497  ILE497      0.2591
     32  O        176.7340  139.8790   46.7590 O.2   497  ILE497     -0.2718
     33  CB       174.4930  138.2120   44.8800 C.3   497  ILE497      0.0266
     34  CG1      174.0530  138.2960   43.3980 C.3   497  ILE497      0.0019
     35  CG2      173.6880  139.1710   45.7670 C.3   497  ILE497      0.0020
     36  CD1      174.3080  139.6910   42.6160 C.3   497  ILE497      0.0001
     37  N        176.4470  137.7120   47.3720 N.am  498  ILE498     -0.1980
     38  CA       176.7810  137.9320   48.7770 C.3   498  ILE498      0.1595
     39  C        178.2960  137.8880   49.0550 C.2   498  ILE498      0.2287
     40  O        178.8000  138.7620   49.7770 O.2   498  ILE498     -0.2864
     41  CB       175.9840  137.0110   49.7460 C.3   498  ILE498      0.0276
     42  CG1      176.3120  135.5120   49.5620 C.3   498  ILE498      0.0022
     43  CG2      174.4860  137.2720   49.6140 C.3   498  ILE498      0.0022
     44  CD1      175.7510  134.5570   50.6690 C.3   498  ILE498      0.0001
     45  N        165.8330  138.4090   39.1080 N.3   514  VAL514     -0.1245
     46  CA       166.0630  137.2100   39.9160 C.3   514  VAL514      0.1561
     47  C        165.2070  136.0540   39.4020 C.2   514  VAL514      0.2260
     48  O        163.9910  136.2080   39.2220 O.2   514  VAL514     -0.2867
     49  CB       165.9500  137.4200   41.4440 C.3   514  VAL514      0.0252
     50  CG1      166.2240  136.1190   42.1880 C.3   514  VAL514      0.0019
     51  CG2      166.9260  138.4840   41.9100 C.3   514  VAL514      0.0019
     52  N        164.0940  132.4690   40.3540 N.3   516  GLU516     -0.1245
     53  CA       163.9100  131.5880   41.5080 C.3   516  GLU516      0.1567
     54  C        164.2420  130.1190   41.1810 C.2   516  GLU516      0.2260
     55  O        164.6470  129.3550   42.0650 O.2   516  GLU516     -0.2867
     56  CB       162.4590  131.6870   42.0130 C.3   516  GLU516      0.0388
     57  CG       162.2460  132.6390   43.1740 C.3   516  GLU516      0.1160
     58  CD       160.8980  132.4780   43.8500 C.2   516  GLU516      0.3649
     59  OE1      160.1190  133.4580   43.8610 O.co2 516  GLU516     -0.2457
     60  OE2      160.5900  131.3570   44.3150 O.co2 516  GLU516     -0.2457
     61  N        161.5100  131.5570   51.1540 N.3   523  HIS523     -0.1226
     62  CA       162.5670  132.5660   51.3270 C.3   523  HIS523      0.1752
     63  C        162.4610  133.3690   52.6160 C.2   523  HIS523      0.2596
     64  O        161.3620  133.7470   53.0300 O.2   523  HIS523     -0.2718
     65  CB       162.6030  133.5160   50.1260 C.3   523  HIS523      0.0759
     66  CG       162.2230  132.8460   48.8520 C.ar  523  HIS523      0.0818
     67  ND1      160.9040  132.7940   48.4380 N.ar  523  HIS523     -0.2268
     68  CD2      162.9890  132.1530   47.9770 C.ar  523  HIS523      0.1154
     69  CE1      160.9130  132.1000   47.3140 C.ar  523  HIS523      0.1986
     70  NE2      162.1460  131.6970   46.9940 N.ar  523  HIS523     -0.2212
     71  N        163.6140  133.6330   53.2470 N.am  524  HIS524     -0.1975
     72  CA       163.6450  134.4370   54.4540 C.3   524  HIS524      0.1656
     73  C        163.9860  135.8920   54.1350 C.2   524  HIS524      0.2291
     74  O        164.7070  136.1720   53.1700 O.2   524  HIS524     -0.2864
     75  CB       164.5550  133.8480   55.5410 C.3   524  HIS524      0.0771
     76  CG       164.1690  134.3180   56.9120 C.ar  524  HIS524      0.0820
     77  ND1      164.5560  135.5670   57.3880 N.ar  524  HIS524     -0.2267
     78  CD2      163.3690  133.7300   57.8340 C.ar  524  HIS524      0.1154
     79  CE1      164.0040  135.6790   58.5860 C.ar  524  HIS524      0.1986
     80  NE2      163.2880  134.5970   58.9020 N.ar  524  HIS524     -0.2212
     81  N        167.8410  137.7850   54.3800 N.3   527  LEU527     -0.1231
     82  CA       168.6770  137.8000   53.1800 C.3   527  LEU527      0.1693
     83  C        168.3180  138.8960   52.1770 C.2   527  LEU527      0.2592
     84  O        169.2280  139.5240   51.6230 O.2   527  LEU527     -0.2718
     85  CB       168.6580  136.4300   52.4940 C.3   527  LEU527      0.0284
     86  CG       169.2820  135.2800   53.2840 C.3   527  LEU527      0.0019
     87  CD1      168.7860  133.9300   52.7740 C.3   527  LEU527      0.0001
     88  CD2      170.8100  135.3640   53.2800 C.3   527  LEU527      0.0001
     89  N        167.0020  139.1100   51.9140 N.am  528  THR528     -0.1953
     90  CA       166.5500  140.1310   50.9570 C.3   528  THR528      0.1897
     91  C        166.9430  141.5160   51.5000 C.2   528  THR528      0.2313
     92  O        167.4750  142.3260   50.7330 O.2   528  THR528     -0.2863
     93  CB       165.0620  139.9470   50.5290 C.3   528  THR528      0.1794
     94  OG1      164.6870  140.8780   49.5040 O.3   528  THR528     -0.2208
     95  CG2      164.0910  140.0280   51.6690 C.3   528  THR528      0.0378
     96  N        169.4900  142.2000   53.4260 N.3   530  VAL530     -0.1231
     97  CA       170.9410  142.2650   53.2410 C.3   530  VAL530      0.1692
     98  C        171.2720  142.6080   51.7610 C.2   530  VAL530      0.2591
     99  O        172.1350  143.4490   51.5170 O.2   530  VAL530     -0.2718
    100  CB       171.6260  140.9730   53.7530 C.3   530  VAL530      0.0266
    101  CG1      173.0330  140.8160   53.1920 C.3   530  VAL530      0.0020
    102  CG2      171.6410  140.9340   55.2850 C.3   530  VAL530      0.0020
    103  N        170.5560  141.9900   50.7820 N.am  531  LEU531     -0.1980
    104  CA       170.7270  142.2950   49.3530 C.3   531  LEU531      0.1596
    105  C        170.4060  143.7820   49.1420 C.2   531  LEU531      0.2287
    106  O        171.1440  144.4820   48.4560 O.2   531  LEU531     -0.2864
    107  CB       169.8180  141.3870   48.4640 C.3   531  LEU531      0.0297
    108  CG       169.2830  141.9950   47.1220 C.3   531  LEU531      0.0022
    109  CD1      170.1790  141.6920   45.9490 C.3   531  LEU531      0.0001
    110  CD2      167.8380  141.6060   46.8570 C.3   531  LEU531      0.0001
    111  N        161.1900  139.6300   39.1550 N.3   542  LEU542     -0.1245
    112  CA       161.2870  138.3090   39.7590 C.3   542  LEU542      0.1561
    113  C        160.5760  137.3070   38.8580 C.2   542  LEU542      0.2260
    114  O        159.4810  137.5730   38.3590 O.2   542  LEU542     -0.2867
    115  CB       160.7150  138.2620   41.1760 C.3   542  LEU542      0.0270
    116  CG       161.0120  137.0060   41.9480 C.3   542  LEU542      0.0019
    117  CD1      162.4620  136.9720   42.4060 C.3   542  LEU542      0.0001
    118  CD2      160.0220  136.8160   43.1000 C.3   542  LEU542      0.0001
    119  N        159.4820  133.2770   38.8020 N.3   544  THR544     -0.1218
    120  CA       159.1840  132.1850   39.7150 C.3   544  THR544      0.1862
    121  C        158.1610  131.1920   39.1270 C.2   544  THR544      0.2287
    122  O        157.2340  131.5770   38.3950 O.2   544  THR544     -0.2866
    123  CB       158.7280  132.7790   41.0830 C.3   544  THR544      0.1770
    124  OG1      158.6080  131.7480   42.0540 O.3   544  THR544     -0.2211
    125  CG2      157.4140  133.5510   41.0070 C.3   544  THR544      0.0375
    126  N        156.1240  129.0680   41.1400 N.3   546  THR546     -0.1204
    127  CA       155.0690  129.1720   42.1480 C.3   546  THR546      0.1979
    128  C        154.2310  130.4400   42.0400 C.2   546  THR546      0.2460
    129  O        154.7870  131.5240   41.8390 O.2   546  THR546     -0.2732
    130  CB       155.6750  129.0350   43.5850 C.3   546  THR546      0.1783
    131  OG1      155.3720  130.1910   44.3700 O.3   546  THR546     -0.2211
    132  CG2      157.1860  128.8130   43.5980 C.3   546  THR546      0.0376
    133  N        152.9080  130.3570   42.3020 N.am  547  PRO547     -0.2717
    134  CA       152.0910  131.5880   42.3320 C.3   547  PRO547      0.1535
    135  C        152.2330  132.2720   43.6960 C.2   547  PRO547      0.2598
    136  O        153.0820  131.8550   44.5010 O.2   547  PRO547     -0.2715
    137  CB       150.6640  131.0640   42.1240 C.3   547  PRO547      0.0310
    138  CG       150.6780  129.7260   42.7510 C.3   547  PRO547      0.0237
    139  CD       152.0920  129.1680   42.6280 C.3   547  PRO547      0.0939
    140  N        151.3790  133.2830   43.9770 N.am  548  LEU548     -0.1964
    141  CA       151.4240  134.0280   45.2370 C.3   548  LEU548      0.1728
    142  C        151.0650  133.1440   46.4070 C.2   548  LEU548      0.2616
    143  O        149.9780  132.5360   46.4460 O.2   548  LEU548     -0.2715
    144  CB       150.5210  135.2600   45.1560 C.3   548  LEU548      0.0311
    145  CG       150.9480  136.5540   45.8450 C.3   548  LEU548      0.0022
    146  CD1      152.4450  136.7010   45.9260 C.3   548  LEU548      0.0001
    147  CD2      150.4200  137.7260   45.0780 C.3   548  LEU548      0.0001
    148  N        152.0210  133.0230   47.3310 N.am  549  GLN549     -0.1977
    149  CA       151.8960  132.1770   48.5160 C.3   549  GLN549      0.1601
    150  C        151.0410  132.7910   49.6040 C.2   549  GLN549      0.2287
    151  O        150.9640  134.0170   49.7420 O.2   549  GLN549     -0.2864
    152  CB       153.2660  131.7460   49.0560 C.3   549  GLN549      0.0394
    153  CG       153.9970  130.7510   48.1420 C.3   549  GLN549      0.0908
    154  CD       153.1880  129.4930   47.8630 C.2   549  GLN549      0.2608
    155  OE1      152.9720  128.6540   48.7530 O.2   549  GLN549     -0.2717
    156  NE2      152.7050  129.3520   46.6190 N.am  549  GLN549     -0.0878
    157  N        151.4520  132.6060   52.8440 N.3   551  LYS551     -0.1245
    158  CA       152.2570  132.6390   54.0760 C.3   551  LYS551      0.1561
    159  C        152.8660  134.0320   54.2520 C.2   551  LYS551      0.2260
    160  O        153.5650  134.5200   53.3620 O.2   551  LYS551     -0.2867
    161  CB       153.3650  131.5730   54.0740 C.3   551  LYS551      0.0271
    162  CG       152.8860  130.1430   54.2940 C.3   551  LYS551      0.0035
    163  CD       153.8340  129.1220   53.6360 C.3   551  LYS551      0.0206
    164  CE       153.4870  128.7620   52.2020 C.3   551  LYS551      0.1093
    165  NZ       154.6760  128.2940   51.4350 N.3   551  LYS551     -0.1314
    166  N        156.8650  134.5670   53.8090 N.3   554  GLU554     -0.1231
    167  CA       157.2330  134.6770   52.3990 C.3   554  GLU554      0.1699
    168  C        156.7880  136.0220   51.7970 C.2   554  GLU554      0.2592
    169  O        157.5880  136.6560   51.1110 O.2   554  GLU554     -0.2718
    170  CB       156.7340  133.4600   51.5740 C.3   554  GLU554      0.0402
    171  CG       157.6060  132.2190   51.7240 C.3   554  GLU554      0.1161
    172  CD       157.8640  131.7570   53.1520 C.2   554  GLU554      0.3649
    173  OE1      156.9240  131.2340   53.7990 O.co2 554  GLU554     -0.2457
    174  OE2      158.9930  131.9900   53.6470 O.co2 554  GLU554     -0.2457
    175  N        155.5510  136.4750   52.1000 N.am  555  LEU555     -0.1980
    176  CA       154.9940  137.7230   51.5860 C.3   555  LEU555      0.1596
    177  C        155.7530  138.9430   52.0930 C.2   555  LEU555      0.2287
    178  O        155.8540  139.9740   51.4000 O.2   555  LEU555     -0.2864
    179  CB       153.5000  137.8410   51.9340 C.3   555  LEU555      0.0297
    180  CG       152.4820  137.0970   51.0190 C.3   555  LEU555      0.0022
    181  CD1      151.1000  136.9900   51.6820 C.3   555  LEU555      0.0001
    182  CD2      152.3870  137.7320   49.5980 C.3   555  LEU555      0.0001
    183  N        159.1110  138.9770   52.8920 N.3   557  ALA557     -0.1231
    184  CA       160.3400  138.9830   52.0900 C.3   557  ALA557      0.1694
    185  C        160.0240  139.4140   50.6440 C.2   557  ALA557      0.2591
    186  O        160.7590  140.2320   50.0850 O.2   557  ALA557     -0.2718
    187  CB       160.9690  137.6070   52.1000 C.3   557  ALA557      0.0304
    188  N        158.8870  138.9430   50.0720 N.am  558  LEU558     -0.1980
    189  CA       158.5070  139.3710   48.7310 C.3   558  LEU558      0.1596
    190  C        158.4190  140.9020   48.6010 C.2   558  LEU558      0.2287
    191  O        158.8870  141.4500   47.5800 O.2   558  LEU558     -0.2864
    192  CB       157.2260  138.6940   48.1910 C.3   558  LEU558      0.0297
    193  CG       156.8770  139.0630   46.7090 C.3   558  LEU558      0.0022
    194  CD1      158.0230  138.7540   45.7190 C.3   558  LEU558      0.0001
    195  CD2      155.6130  138.4060   46.2590 C.3   558  LEU558      0.0001
    196  N        161.8630  142.5990   48.6510 N.3   561  PHE561     -0.1241
    197  CA       162.4400  142.4720   47.3310 C.3   561  PHE561      0.1605
    198  C        161.7350  143.5080   46.4030 C.2   561  PHE561      0.2264
    199  O        162.3960  144.3670   45.8350 O.2   561  PHE561     -0.2867
    200  CB       162.3040  141.0260   46.7800 C.3   561  PHE561      0.0534
    201  CG       162.8170  140.9160   45.3610 C.ar  561  PHE561     -0.0203
    202  CD1      164.1860  140.8280   45.1040 C.ar  561  PHE561     -0.0042
    203  CD2      161.9450  141.0320   44.2750 C.ar  561  PHE561     -0.0042
    204  CE1      164.6700  140.8310   43.7880 C.ar  561  PHE561     -0.0003
    205  CE2      162.4280  141.0510   42.9600 C.ar  561  PHE561     -0.0003
    206  CZ       163.7890  140.9380   42.7220 C.ar  561  PHE561     -0.0000
    207  N        151.9660  141.2070   39.3080 N.3   610  LEU610     -0.1245
    208  CA       152.2800  139.8060   39.0370 C.3   610  LEU610      0.1561
    209  C        151.6510  139.3940   37.7300 C.2   610  LEU610      0.2260
    210  O        150.5150  139.7760   37.4290 O.2   610  LEU610     -0.2867
    211  CB       151.7630  138.8900   40.1630 C.3   610  LEU610      0.0270
    212  CG       152.3630  137.4670   40.2630 C.3   610  LEU610      0.0019
    213  CD1      152.4300  137.0010   41.7060 C.3   610  LEU610      0.0001
    214  CD2      151.5830  136.4670   39.4390 C.3   610  LEU610      0.0001
@<TRIPOS>BOND
     1   210   209    2
     2     4     3    2
     3   209   208    1
     4     3     2    1
     5     9    10    1
     6   114   113    2
     7   122   121    2
     8   119   120    1
     9   113   112    1
    10   208   207    1
    11   208   211    1
    12    45    46    1
    13   121   120    1
    14     2     1    1
    15     2     5    1
    16   111   112    1
    17    11    12    2
    18    11    10    1
    19    48    47    2
    20    47    46    1
    21    10    13    1
    22   214   212    1
    23   120   123    1
    24   112   115    1
    25    46    49    1
    26   211   212    1
    27   212   213    1
    28    52    53    1
    29     7     5    1
    30     5     6    1
    31    16    14    1
    32    13    14    1
    33    13    15    1
    34   125   123    1
    35   123   124    1
    36   126   127    1
    37   115   116    1
    38    54    53    1
    39    54    55    2
    40    49    51    1
    41    49    50    1
    42    53    56    1
    43     6     8    1
    44   129   128    2
    45   116   117    1
    46   116   118    1
    47    56    57    1
    48   128   127    1
    49   128   133   am
    50   137   134    1
    51   137   138    1
    52   127   130    1
    53   133   134    1
    54   133   139    1
    55   134   135    1
    56    36    34    1
    57   139   138    1
    58   206   205   ar
    59   206   204   ar
    60    25    23   ar
    61    25    27   ar
    62    28    27    1
    63   205   203   ar
    64    57    58    1
    65    34    33    1
    66    23    22   ar
    67    27    26   ar
    68    17    18    1
    69   130   132    1
    70   130   131    1
    71   135   140   am
    72   135   136    2
    73   204   202   ar
    74    58    59   ar
    75    58    60   ar
    76   140   141    1
    77   203   201   ar
    78    29    30    1
    79    22    24   ar
    80    22    21    1
    81    26    24   ar
    82    18    21    1
    83    18    19    1
    84    33    30    1
    85    33    35    1
    86    30    31    1
    87   147   145    1
    88   202   201   ar
    89   144   141    1
    90   144   145    1
    91   141   142    1
    92   201   200    1
    93    19    20    2
    94   194   193    1
    95   199   198    2
    96   145   146    1
    97   109   108    1
    98   195   193    1
    99   198   197    1
   100   142   143    2
   101   142   148   am
   102    31    32    2
   103    31    37   am
   104   156   154   am
   105   193   192    1
   106   200   197    1
   107   110   108    1
   108    70    69   ar
   109    70    68   ar
   110   108   107    1
   111    69    67   ar
   112   197   196    1
   113   148   149    1
   114    37    38    1
   115   191   190    2
   116   154   153    1
   117   154   155    2
   118    68    66   ar
   119   153   152    1
   120   192   189    1
   121    67    66   ar
   122   106   105    2
   123   107   104    1
   124   149   152    1
   125   149   150    1
   126   190   189    1
   127   189   188    1
   128    38    39    1
   129    38    41    1
   130    66    65    1
   131    39    40    2
   132   105   104    1
   133   104   103    1
   134    94    93    1
   135    42    41    1
   136    42    44    1
   137   182   180    1
   138   150   151    2
   139    43    41    1
   140   188   185   am
   141   186   185    2
   142    65    62    1
   143    93    90    1
   144    93    95    1
   145   185   184    1
   146    92    91    2
   147   103    98   am
   148    90    91    1
   149    90    89    1
   150   180   181    1
   151   180   179    1
   152   169   168    2
   153    61    62    1
   154    62    63    1
   155   178   177    2
   156   165   164    1
   157    99    98    2
   158   170   171    1
   159   170   167    1
   160   176   179    1
   161   176   177    1
   162   176   175    1
   163    84    83    2
   164   171   172    1
   165    98    97    1
   166   168   175   am
   167   168   167    1
   168    89    83   am
   169   184   187    1
   170   184   183    1
   171    83    82    1
   172   164   163    1
   173   167   166    1
   174    85    82    1
   175    85    86    1
   176    63    64    2
   177    63    71   am
   178    87    86    1
   179   157   158    1
   180   172   174   ar
   181   172   173   ar
   182    74    73    2
   183    82    81    1
   184   101   100    1
   185    97    96    1
   186    97   100    1
   187    71    72    1
   188    88    86    1
   189   160   159    2
   190   163   162    1
   191   100   102    1
   192   161   158    1
   193   161   162    1
   194   158   159    1
   195    73    72    1
   196    72    75    1
   197    75    76    1
   198    76    77   ar
   199    76    78   ar
   200    77    79   ar
   201    78    80   ar
   202    79    80   ar
