@<TRIPOS>MOLECULE
tmp/6eg3A00.pdb
 217 209 0 0 0
SMALL
GASTEIGER

@<TRIPOS>ATOM
      1  N        156.3700  140.2600   39.4570 N.3   405  ILE405     -0.1245
      2  CA       156.5450  138.8110   39.5480 C.3   405  ILE405      0.1561
      3  C        155.9830  138.1170   38.3180 C.2   405  ILE405      0.2260
      4  O        154.8050  138.2860   37.9820 O.2   405  ILE405     -0.2867
      5  CB       155.8950  138.2150   40.8280 C.3   405  ILE405      0.0252
      6  CG1      156.1670  139.0610   42.0820 C.3   405  ILE405      0.0019
      7  CG2      156.3220  136.7680   41.0360 C.3   405  ILE405      0.0019
      8  CD1      154.9950  139.7820   42.5470 C.3   405  ILE405      0.0001
      9  N        165.8110  138.1190   39.5860 N.3   509  VAL509     -0.1245
     10  CA       166.0930  136.9780   40.4520 C.3   509  VAL509      0.1561
     11  C        165.1260  135.8790   40.0100 C.2   509  VAL509      0.2260
     12  O        163.9190  136.1190   39.9500 O.2   509  VAL509     -0.2867
     13  CB       165.9750  137.2970   41.9700 C.3   509  VAL509      0.0252
     14  CG1      166.1400  136.0520   42.8210 C.3   509  VAL509      0.0019
     15  CG2      166.9820  138.3430   42.3950 C.3   509  VAL509      0.0019
     16  N        163.9670  132.2610   41.0670 N.3   511  GLU511     -0.1245
     17  CA       164.0570  131.3440   42.2060 C.3   511  GLU511      0.1567
     18  C        163.7720  129.8710   41.8280 C.2   511  GLU511      0.2260
     19  O        163.9240  128.9700   42.6590 O.2   511  GLU511     -0.2867
     20  CB       163.1960  131.8270   43.3790 C.3   511  GLU511      0.0388
     21  CG       161.7140  132.0390   43.1110 C.3   511  GLU511      0.1160
     22  CD       160.9720  132.5500   44.3340 C.2   511  GLU511      0.3649
     23  OE1      161.6500  132.8540   45.3390 O.co2 511  GLU511     -0.2457
     24  OE2      159.7390  132.7460   44.2690 O.co2 511  GLU511     -0.2457
     25  N        160.9330  129.0860   46.4380 N.3   515  MET515     -0.1245
     26  CA       161.9800  129.8650   47.0780 C.3   515  MET515      0.1570
     27  C        162.5750  129.0880   48.2460 C.2   515  MET515      0.2261
     28  O        161.9400  128.1850   48.7950 O.2   515  MET515     -0.2867
     29  CB       161.5380  131.2710   47.4920 C.3   515  MET515      0.0387
     30  CG       160.6090  131.3660   48.6690 C.3   515  MET515      0.0595
     31  SD       160.8920  132.9710   49.4800 S.3   515  MET515     -0.1393
     32  CE       162.1200  132.5090   50.6720 C.3   515  MET515      0.0692
     33  N        167.3520  132.6140   49.7750 N.3   519  HIS519     -0.1226
     34  CA       166.8200  133.6940   48.9340 C.3   519  HIS519      0.1752
     35  C        166.5770  134.9410   49.7580 C.2   519  HIS519      0.2596
     36  O        166.5270  136.0310   49.2050 O.2   519  HIS519     -0.2718
     37  CB       165.5460  133.2870   48.1860 C.3   519  HIS519      0.0759
     38  CG       165.7980  132.4490   46.9750 C.ar  519  HIS519      0.0818
     39  ND1      165.3290  131.1530   46.8880 N.ar  519  HIS519     -0.2268
     40  CD2      166.4700  132.7480   45.8380 C.ar  519  HIS519      0.1154
     41  CE1      165.7220  130.7060   45.7040 C.ar  519  HIS519      0.1986
     42  NE2      166.4150  131.6280   45.0380 N.ar  519  HIS519     -0.2212
     43  N        166.4500  134.7870   51.0780 N.am  520  CYS520     -0.1970
     44  CA       166.2430  135.9130   51.9770 C.3   520  CYS520      0.1712
     45  C        167.5590  136.5680   52.3790 C.2   520  CYS520      0.2296
     46  O        167.6080  137.7880   52.4260 O.2   520  CYS520     -0.2864
     47  CB       165.3880  135.5180   53.1760 C.3   520  CYS520      0.0983
     48  SG       163.6810  135.0640   52.7430 S.3   520  CYS520     -0.0798
     49  N        170.1510  136.5950   50.4190 N.3   522  LEU522     -0.1231
     50  CA       170.4120  137.2300   49.1350 C.3   522  LEU522      0.1693
     51  C        169.7460  138.6060   49.0790 C.2   522  LEU522      0.2593
     52  O        170.3830  139.5610   48.6330 O.2   522  LEU522     -0.2718
     53  CB       169.8910  136.3280   47.9930 C.3   522  LEU522      0.0284
     54  CG       169.5490  136.9980   46.6480 C.3   522  LEU522      0.0019
     55  CD1      170.7820  137.1950   45.7820 C.3   522  LEU522      0.0001
     56  CD2      168.4870  136.2200   45.9090 C.3   522  LEU522      0.0001
     57  N        168.4760  138.7130   49.5250 N.am  523  THR523     -0.1939
     58  CA       167.7380  139.9860   49.4670 C.3   523  THR523      0.2028
     59  C        168.1810  140.9080   50.5930 C.2   523  THR523      0.2642
     60  O        168.2100  142.1170   50.3800 O.2   523  THR523     -0.2714
     61  CB       166.2230  139.7660   49.3580 C.3   523  THR523      0.1808
     62  OG1      166.0080  138.9610   48.1980 O.3   523  THR523     -0.2208
     63  CG2      165.4570  141.0540   49.1520 C.3   523  THR523      0.0379
     64  N        168.6230  140.3540   51.7300 N.am  524  GLN524     -0.1976
     65  CA       169.1550  141.1550   52.8300 C.3   524  GLN524      0.1601
     66  C        170.3850  141.9450   52.3580 C.2   524  GLN524      0.2287
     67  O        170.4360  143.1580   52.5720 O.2   524  GLN524     -0.2864
     68  CB       169.4420  140.2800   54.0500 C.3   524  GLN524      0.0394
     69  CG       168.1600  140.0090   54.8500 C.3   524  GLN524      0.0908
     70  CD       168.1720  138.7350   55.6500 C.2   524  GLN524      0.2608
     71  OE1      169.2260  138.2050   56.0320 O.2   524  GLN524     -0.2717
     72  NE2      166.9820  138.2330   55.9520 N.am  524  GLN524     -0.0878
     73  N        169.3860  144.4940   49.3290 N.3   527  ASN527     -0.1240
     74  CA       168.6870  145.6730   49.8550 C.3   527  ASN527      0.1653
     75  C        169.6020  146.6940   50.5100 C.2   527  ASN527      0.2266
     76  O        169.4040  147.8990   50.3210 O.2   527  ASN527     -0.2867
     77  CB       167.5750  145.2470   50.8030 C.3   527  ASN527      0.1155
     78  CG       166.3520  144.7370   50.0860 C.2   527  ASN527      0.2627
     79  OD1      166.3480  144.5480   48.8550 O.2   527  ASN527     -0.2716
     80  ND2      165.2680  144.5470   50.8410 N.am  527  ASN527     -0.0877
     81  N        160.9480  139.2830   39.6150 N.3   537  LEU537     -0.1245
     82  CA       161.0940  137.9520   40.2080 C.3   537  LEU537      0.1561
     83  C        160.4670  136.9240   39.2930 C.2   537  LEU537      0.2260
     84  O        159.3500  137.1250   38.8050 O.2   537  LEU537     -0.2867
     85  CB       160.4580  137.8380   41.5980 C.3   537  LEU537      0.0270
     86  CG       160.7700  136.5460   42.3580 C.3   537  LEU537      0.0019
     87  CD1      162.1960  136.5510   42.9010 C.3   537  LEU537      0.0001
     88  CD2      159.7560  136.3010   43.4590 C.3   537  LEU537      0.0001
     89  N        159.3140  133.0830   39.4370 N.3   539  THR539     -0.1218
     90  CA       158.9550  131.9800   40.3130 C.3   539  THR539      0.1862
     91  C        158.0240  130.9830   39.6080 C.2   539  THR539      0.2287
     92  O        157.3150  131.3530   38.6680 O.2   539  THR539     -0.2866
     93  CB       158.3810  132.5100   41.6390 C.3   539  THR539      0.1770
     94  OG1      158.2380  131.4140   42.5440 O.3   539  THR539     -0.2211
     95  CG2      157.0480  133.2260   41.4770 C.3   539  THR539      0.0375
     96  N        155.8810  129.0120   41.6080 N.3   541  THR541     -0.1204
     97  CA       154.7650  128.9160   42.5590 C.3   541  THR541      0.1979
     98  C        153.7780  130.0630   42.3790 C.2   541  THR541      0.2460
     99  O        154.1900  131.1570   41.9790 O.2   541  THR541     -0.2732
    100  CB       155.3010  129.0010   44.0150 C.3   541  THR541      0.1783
    101  OG1      155.8170  130.3070   44.2500 O.3   541  THR541     -0.2211
    102  CG2      156.3800  127.9830   44.3180 C.3   541  THR541      0.0376
    103  N        152.4960  129.9000   42.7730 N.am  542  PRO542     -0.2717
    104  CA       151.5790  131.0650   42.7420 C.3   542  PRO542      0.1535
    105  C        151.7440  131.8790   44.0380 C.2   542  PRO542      0.2598
    106  O        152.5400  131.4840   44.8950 O.2   542  PRO542     -0.2715
    107  CB       150.1970  130.4180   42.6580 C.3   542  PRO542      0.0310
    108  CG       150.3760  129.0610   43.3070 C.3   542  PRO542      0.0237
    109  CD       151.8280  128.6950   43.3170 C.3   542  PRO542      0.0939
    110  N        150.9910  132.9850   44.2090 N.am  543  LEU543     -0.1964
    111  CA       151.0780  133.7940   45.4330 C.3   543  LEU543      0.1728
    112  C        150.6480  132.9500   46.6500 C.2   543  LEU543      0.2616
    113  O        149.5270  132.4270   46.6780 O.2   543  LEU543     -0.2715
    114  CB       150.2320  135.0640   45.2890 C.3   543  LEU543      0.0311
    115  CG       150.6660  136.2900   46.0720 C.3   543  LEU543      0.0022
    116  CD1      152.1470  136.5850   45.8790 C.3   543  LEU543      0.0001
    117  CD2      149.8630  137.4920   45.6570 C.3   543  LEU543      0.0001
    118  N        151.5760  132.7530   47.6010 N.am  544  GLN544     -0.1977
    119  CA       151.3620  131.9190   48.7840 C.3   544  GLN544      0.1601
    120  C        150.3910  132.4940   49.8070 C.2   544  GLN544      0.2287
    121  O        150.2830  133.7100   49.9510 O.2   544  GLN544     -0.2864
    122  CB       152.6880  131.5630   49.4590 C.3   544  GLN544      0.0394
    123  CG       153.6050  130.6730   48.6290 C.3   544  GLN544      0.0908
    124  CD       152.9730  129.3380   48.3240 C.2   544  GLN544      0.2608
    125  OE1      152.8320  128.4740   49.1970 O.2   544  GLN544     -0.2717
    126  NE2      152.5620  129.1530   47.0750 N.am  544  GLN544     -0.0878
    127  N        154.7080  134.7910   56.3700 N.3   548  PRO548     -0.2102
    128  CA       156.1610  134.9170   56.2570 C.3   548  PRO548      0.1504
    129  C        156.6500  135.0830   54.8060 C.2   548  PRO548      0.2576
    130  O        157.4570  135.9720   54.5340 O.2   548  PRO548     -0.2718
    131  CB       156.6510  133.6290   56.9070 C.3   548  PRO548      0.0282
    132  CG       155.5890  133.2910   57.8880 C.3   548  PRO548      0.0208
    133  CD       154.3640  133.5500   57.0890 C.3   548  PRO548      0.0893
    134  N        156.1310  134.2810   53.8740 N.am  549  GLU549     -0.1966
    135  CA       156.4870  134.3370   52.4430 C.3   549  GLU549      0.1733
    136  C        156.0700  135.6640   51.8070 C.2   549  GLU549      0.2616
    137  O        156.8260  136.2230   51.0080 O.2   549  GLU549     -0.2715
    138  CB       155.8800  133.1410   51.6720 C.3   549  GLU549      0.0429
    139  CG       156.6480  131.8410   51.8790 C.3   549  GLU549      0.1163
    140  CD       156.5250  131.0540   53.1800 C.2   549  GLU549      0.3649
    141  OE1      155.8210  131.4940   54.1200 O.co2 549  GLU549     -0.2457
    142  OE2      157.1400  129.9640   53.2460 O.co2 549  GLU549     -0.2457
    143  N        154.8770  136.1760   52.1710 N.am  550  LEU550     -0.1963
    144  CA       154.3840  137.4560   51.6630 C.3   550  LEU550      0.1728
    145  C        155.2450  138.5870   52.2040 C.2   550  LEU550      0.2616
    146  O        155.5960  139.4880   51.4340 O.2   550  LEU550     -0.2715
    147  CB       152.9070  137.6780   51.9800 C.3   550  LEU550      0.0311
    148  CG       151.9060  136.8160   51.2180 C.3   550  LEU550      0.0022
    149  CD1      150.6440  136.6370   52.0250 C.3   550  LEU550      0.0001
    150  CD2      151.5960  137.4080   49.8380 C.3   550  LEU550      0.0001
    151  N        155.6670  138.4930   53.4960 N.am  551  TRP551     -0.1960
    152  CA       156.6070  139.4460   54.1020 C.3   551  TRP551      0.1771
    153  C        157.8780  139.4850   53.2330 C.2   551  TRP551      0.2620
    154  O        158.2040  140.5460   52.7260 O.2   551  TRP551     -0.2715
    155  CB       156.9320  139.1050   55.5780 C.3   551  TRP551      0.0590
    156  CG       157.9520  140.0050   56.2270 C.ar  551  TRP551      0.0006
    157  CD1      159.1830  139.6430   56.6900 C.ar  551  TRP551      0.0946
    158  CD2      157.8160  141.4110   56.5060 C.ar  551  TRP551      0.0152
    159  NE1      159.8380  140.7390   57.2120 N.ar  551  TRP551     -0.2442
    160  CE2      159.0220  141.8370   57.1120 C.ar  551  TRP551      0.0810
    161  CE3      156.7930  142.3550   56.3050 C.ar  551  TRP551      0.0012
    162  CZ2      159.2170  143.1570   57.5500 C.ar  551  TRP551      0.0191
    163  CZ3      157.0070  143.6670   56.7070 C.ar  551  TRP551      0.0001
    164  CH2      158.2000  144.0530   57.3330 C.ar  551  TRP551      0.0015
    165  N        158.5040  138.3240   52.9590 N.am  552  ALA552     -0.1963
    166  CA       159.7070  138.2090   52.1090 C.3   552  ALA552      0.1728
    167  C        159.4920  138.8300   50.7330 C.2   552  ALA552      0.2616
    168  O        160.2310  139.7550   50.3700 O.2   552  ALA552     -0.2715
    169  CB       160.1330  136.7590   51.9710 C.3   552  ALA552      0.0334
    170  N        158.4470  138.3720   49.9990 N.am  553  LEU553     -0.1977
    171  CA       158.1010  138.9230   48.6830 C.3   553  LEU553      0.1596
    172  C        158.0490  140.4670   48.7170 C.2   553  LEU553      0.2287
    173  O        158.6510  141.0960   47.8310 O.2   553  LEU553     -0.2864
    174  CB       156.7880  138.3270   48.1490 C.3   553  LEU553      0.0297
    175  CG       156.3740  138.7940   46.7480 C.3   553  LEU553      0.0022
    176  CD1      157.3000  138.2400   45.6570 C.3   553  LEU553      0.0001
    177  CD2      154.9710  138.3920   46.4530 C.3   553  LEU553      0.0001
    178  N        159.6070  142.6000   50.8850 N.3   555  ASN555     -0.1225
    179  CA       160.9690  143.1330   51.0600 C.3   555  ASN555      0.1785
    180  C        161.8000  143.0330   49.7420 C.2   555  ASN555      0.2597
    181  O        162.7490  143.8010   49.5430 O.2   555  ASN555     -0.2718
    182  CB       161.6710  142.4060   52.1980 C.3   555  ASN555      0.1169
    183  CG       161.1430  142.7150   53.5870 C.2   555  ASN555      0.2627
    184  OD1      161.8540  143.2770   54.4200 O.2   555  ASN555     -0.2716
    185  ND2      159.8960  142.3650   53.8880 N.am  555  ASN555     -0.0877
    186  N        161.4340  142.0830   48.8480 N.am  556  PHE556     -0.1976
    187  CA       162.0720  141.9570   47.5530 C.3   556  PHE556      0.1639
    188  C        161.5370  143.0810   46.6590 C.2   556  PHE556      0.2290
    189  O        162.3420  143.8030   46.1030 O.2   556  PHE556     -0.2864
    190  CB       161.8660  140.5460   46.9140 C.3   556  PHE556      0.0560
    191  CG       162.4430  140.4410   45.5130 C.ar  556  PHE556     -0.0200
    192  CD1      163.8220  140.3130   45.3160 C.ar  556  PHE556     -0.0042
    193  CD2      161.6240  140.6010   44.3900 C.ar  556  PHE556     -0.0042
    194  CE1      164.3670  140.3380   44.0290 C.ar  556  PHE556     -0.0003
    195  CE2      162.1710  140.6380   43.1010 C.ar  556  PHE556     -0.0003
    196  CZ       163.5380  140.4980   42.9290 C.ar  556  PHE556     -0.0000
    197  N        162.1690  145.2580   60.6160 N.3   566  SER566     -0.1202
    198  CA       162.8070  143.9650   60.4200 C.3   566  SER566      0.2020
    199  C        161.8440  142.7950   60.2330 C.2   566  SER566      0.2619
    200  O        162.1800  141.8720   59.4880 O.2   566  SER566     -0.2717
    201  CB       163.7430  143.6670   61.5860 C.3   566  SER566      0.2103
    202  OG       163.0590  143.7740   62.8260 O.3   566  SER566     -0.2182
    203  N        160.6840  142.7950   60.9400 N.am  567  THR567     -0.1952
    204  CA       159.7200  141.6800   60.9240 C.3   567  THR567      0.1897
    205  C        158.2970  142.0440   60.5250 C.2   567  THR567      0.2313
    206  O        157.9040  143.1900   60.6880 O.2   567  THR567     -0.2863
    207  CB       159.6590  141.0430   62.3170 C.3   567  THR567      0.1794
    208  OG1      159.0790  141.9740   63.2370 O.3   567  THR567     -0.2208
    209  CG2      161.0070  140.5770   62.8080 C.3   567  THR567      0.0378
    210  N        151.6880  140.6760   39.8330 N.3   605  LEU605     -0.1245
    211  CA       151.9580  139.2890   39.4890 C.3   605  LEU605      0.1561
    212  C        151.2410  138.9070   38.2070 C.2   605  LEU605      0.2260
    213  O        150.0820  139.2680   38.0190 O.2   605  LEU605     -0.2867
    214  CB       151.5160  138.3670   40.6390 C.3   605  LEU605      0.0270
    215  CG       151.9850  136.9070   40.5750 C.3   605  LEU605      0.0019
    216  CD1      152.3280  136.3880   41.9420 C.3   605  LEU605      0.0001
    217  CD2      150.9320  136.0240   39.9790 C.3   605  LEU605      0.0001
@<TRIPOS>BOND
     1     4     3    2
     2   213   212    2
     3   212   211    1
     4     3     2    1
     5    92    91    2
     6    84    83    2
     7    83    82    1
     8    89    90    1
     9     1     2    1
    10   211   210    1
    11   211   214    1
    12     2     5    1
    13     9    10    1
    14    91    90    1
    15    81    82    1
    16    12    11    2
    17   217   215    1
    18    11    10    1
    19    82    85    1
    20    90    93    1
    21    10    13    1
    22   215   214    1
    23   215   216    1
    24     5     7    1
    25     5     6    1
    26    16    17    1
    27    95    93    1
    28    85    86    1
    29    96    97    1
    30    93    94    1
    31    18    17    1
    32    18    19    2
    33    13    15    1
    34    13    14    1
    35    99    98    2
    36     6     8    1
    37    17    20    1
    38    86    87    1
    39    86    88    1
    40    98    97    1
    41    98   103   am
    42    97   100    1
    43   107   104    1
    44   107   108    1
    45   104   103    1
    46   104   105    1
    47   103   109    1
    48   196   195   ar
    49   196   194   ar
    50   195   193   ar
    51    21    20    1
    52    21    22    1
    53   108   109    1
    54   100   101    1
    55   100   102    1
    56   194   192   ar
    57   105   110   am
    58   105   106    2
    59   110   111    1
    60    24    22   ar
    61    22    23   ar
    62   193   191   ar
    63    42    41   ar
    64    42    40   ar
    65   114   111    1
    66   114   115    1
    67   192   191   ar
    68   111   112    1
    69   191   190    1
    70   176   175    1
    71   117   115    1
    72    41    39   ar
    73    55    54    1
    74    40    38   ar
    75   116   115    1
    76    56    54    1
    77   189   188    2
    78    25    26    1
    79   177   175    1
    80    54    53    1
    81   112   113    2
    82   112   118   am
    83   188   187    1
    84   175   174    1
    85    39    38   ar
    86   190   187    1
    87    38    37    1
    88   126   124   am
    89    26    29    1
    90    26    27    1
    91    29    30    1
    92   187   186    1
    93   118   119    1
    94   173   172    2
    95    53    50    1
    96   174   171    1
    97    37    34    1
    98    62    61    1
    99    27    28    2
   100   124   123    1
   101   124   125    2
   102   123   122    1
   103    52    51    2
   104    30    31    1
   105   171   172    1
   106   171   170    1
   107   119   122    1
   108   119   120    1
   109   186   180   am
   110    79    78    2
   111    34    35    1
   112    34    33    1
   113    51    50    1
   114    51    57   am
   115    50    49    1
   116    63    61    1
   117    36    35    2
   118    73    74    1
   119    61    58    1
   120    58    57    1
   121    58    59    1
   122    31    32    1
   123   181   180    2
   124   180   179    1
   125    35    43   am
   126   120   121    2
   127   150   148    1
   128    74    75    1
   129    74    77    1
   130   170   167   am
   131    78    77    1
   132    78    80   am
   133    76    75    2
   134   168   167    2
   135    60    59    2
   136    59    64   am
   137   167   166    1
   138   178   179    1
   139   137   136    2
   140   179   182    1
   141    43    44    1
   142   148   147    1
   143   148   149    1
   144   146   145    2
   145   144   147    1
   146   144   143    1
   147   144   145    1
   148   138   139    1
   149   138   135    1
   150    64    65    1
   151   136   143   am
   152   136   135    1
   153   139   140    1
   154   169   166    1
   155    44    45    1
   156    44    47    1
   157   166   165    1
   158   182   183    1
   159   145   151   am
   160    66    67    2
   161    66    65    1
   162    45    46    2
   163   135   134    1
   164   154   153    2
   165    48    47    1
   166    65    68    1
   167   165   153   am
   168   140   142   ar
   169   140   141   ar
   170   153   152    1
   171   151   152    1
   172   183   185   am
   173   183   184    2
   174   134   129   am
   175    68    69    1
   176   152   155    1
   177   130   129    2
   178   129   128    1
   179    69    70    1
   180   155   156    1
   181    70    72   am
   182    70    71    2
   183   156   158   ar
   184   156   157   ar
   185   128   127    1
   186   128   131    1
   187   161   158   ar
   188   161   163   ar
   189   127   133    1
   190   158   160   ar
   191   157   159   ar
   192   163   164   ar
   193   131   132    1
   194   133   132    1
   195   160   159   ar
   196   160   162   ar
   197   164   162   ar
   198   200   199    2
   199   199   198    1
   200   199   203   am
   201   198   197    1
   202   198   201    1
   203   205   206    2
   204   205   204    1
   205   204   203    1
   206   204   207    1
   207   201   202    1
   208   207   209    1
   209   207   208    1
