@<TRIPOS>MOLECULE
tmp/6eg7A00.pdb
 81 78 0 0 0
SMALL
GASTEIGER

@<TRIPOS>ATOM
      1  N         61.5000   58.5670    8.2510 N.3     9  LYS9       -0.1245
      2  CA        60.4750   59.1950    9.0660 C.3     9  LYS9        0.1561
      3  C         60.7930   60.6770    9.1690 C.2     9  LYS9        0.2260
      4  O         59.9000   61.5150    9.0800 O.2     9  LYS9       -0.2867
      5  CB        60.3140   58.4790   10.4030 C.3     9  LYS9        0.0271
      6  CG        59.6640   57.1130   10.2200 C.3     9  LYS9        0.0035
      7  CD        59.4510   56.2880   11.4610 C.3     9  LYS9        0.0206
      8  CE        58.7640   54.9730   11.1500 C.3     9  LYS9        0.1093
      9  NZ        57.6960   55.1800   10.1430 N.3     9  LYS9       -0.1314
     10  N         56.9080   58.9990   19.6860 N.3    78  GLU78      -0.1231
     11  CA        55.9870   58.0000   19.1700 C.3    78  GLU78       0.1699
     12  C         56.6100   57.2110   18.0250 C.2    78  GLU78       0.2592
     13  O         56.6640   55.9870   18.0850 O.2    78  GLU78      -0.2718
     14  CB        54.6660   58.6420   18.7630 C.3    78  GLU78       0.0402
     15  CG        53.7090   58.7940   19.9270 C.3    78  GLU78       0.1161
     16  CD        52.4240   59.5170   19.5610 C.2    78  GLU78       0.3649
     17  OE1       52.3510   60.0860   18.4460 O.co2  78  GLU78      -0.2457
     18  OE2       51.5030   59.5250   20.3950 O.co2  78  GLU78      -0.2457
     19  N         57.0770   57.9230   16.9970 N.am   79  VAL79      -0.1980
     20  CA        57.7060   57.2530   15.8210 C.3    79  VAL79       0.1595
     21  C         58.8240   58.1460   15.2760 C.2    79  VAL79       0.2287
     22  O         59.1180   58.0410   14.0690 O.2    79  VAL79      -0.2864
     23  CB        56.6630   56.9320   14.7330 C.3    79  VAL79       0.0276
     24  CG1       56.0280   58.1940   14.1710 C.3    79  VAL79       0.0022
     25  CG2       57.2540   56.0850   13.6170 C.3    79  VAL79       0.0022
     26  N         66.1020   51.9370   15.8590 N.3    86  GLU86      -0.1245
     27  CA        65.6820   50.9680   14.8660 C.3    86  GLU86       0.1567
     28  C         66.6900   50.9970   13.7310 C.2    86  GLU86       0.2260
     29  O         67.3030   49.9880   13.4040 O.2    86  GLU86      -0.2867
     30  CB        64.2500   51.2550   14.4340 C.3    86  GLU86       0.0388
     31  CG        63.2380   50.8140   15.4800 C.3    86  GLU86       0.1160
     32  CD        61.8070   51.2820   15.2470 C.2    86  GLU86       0.3649
     33  OE1       61.4940   51.6920   14.0870 O.co2  86  GLU86      -0.2457
     34  OE2       60.9920   51.2140   16.2230 O.co2  86  GLU86      -0.2457
     35  N         62.0520   47.0160   10.9110 N.3   109  PRO109     -0.2102
     36  CA        60.7680   46.7540   11.5420 C.3   109  PRO109      0.1504
     37  C         59.9300   45.8810   10.5990 C.2   109  PRO109      0.2576
     38  O         60.0110   46.0050    9.3720 O.2   109  PRO109     -0.2718
     39  CB        60.1570   48.1590   11.6200 C.3   109  PRO109      0.0282
     40  CG        61.3580   49.0650   11.7660 C.3   109  PRO109      0.0208
     41  CD        62.3520   48.4430   10.8010 C.3   109  PRO109      0.0893
     42  N         59.1130   44.9900   11.1800 N.am  110  ALA110     -0.1966
     43  CA        58.4010   44.0220   10.3780 C.3   110  ALA110      0.1728
     44  C         57.3450   43.3440   11.2420 C.2   110  ALA110      0.2616
     45  O         57.4230   43.3780   12.4600 O.2   110  ALA110     -0.2715
     46  CB        59.3860   43.0350    9.8200 C.3   110  ALA110      0.0334
     47  N         56.3450   42.7310   10.5990 N.am  111  LYS111     -0.1977
     48  CA        55.3140   41.9930   11.2990 C.3   111  LYS111      0.1596
     49  C         55.7540   40.5360   11.3490 C.2   111  LYS111      0.2287
     50  O         55.7890   39.8620   10.3300 O.2   111  LYS111     -0.2864
     51  CB        53.9990   42.1060   10.5370 C.3   111  LYS111      0.0298
     52  CG        53.3700   43.4820   10.5860 C.3   111  LYS111      0.0038
     53  CD        51.8640   43.4560   10.4950 C.3   111  LYS111      0.0206
     54  CE        51.2780   44.8520   10.3790 C.3   111  LYS111      0.1093
     55  NZ        51.0960   45.2490    8.9530 N.3   111  LYS111     -0.1314
     56  N         53.8440   43.4250   15.0720 N.3   138  ASP138     -0.1225
     57  CA        54.8540   44.4400   14.8320 C.3   138  ASP138      0.1805
     58  C         56.0010   44.2380   15.8160 C.2   138  ASP138      0.2598
     59  O         55.7890   44.1290   17.0240 O.2   138  ASP138     -0.2718
     60  CB        54.2990   45.8470   15.0170 C.3   138  ASP138      0.1424
     61  CG        53.2680   46.2360   13.9860 C.2   138  ASP138      0.3668
     62  OD1       53.0680   45.4240   13.0600 O.co2 138  ASP138     -0.2456
     63  OD2       52.6750   47.3480   14.1140 O.co2 138  ASP138     -0.2456
     64  N         57.2170   44.1410   15.2820 N.am  139  HIS139     -0.1961
     65  CA        58.4240   44.2640   16.0690 C.3   139  HIS139      0.1787
     66  C         59.2410   45.4420   15.5450 C.2   139  HIS139      0.2620
     67  O         59.2720   45.7470   14.3470 O.2   139  HIS139     -0.2715
     68  CB        59.2190   42.9610   16.0130 C.3   139  HIS139      0.0785
     69  CG        58.4480   41.7800   16.4930 C.ar  139  HIS139      0.0821
     70  ND1       57.9970   41.6600   17.7970 N.ar  139  HIS139     -0.2267
     71  CD2       58.0480   40.6590   15.8570 C.ar  139  HIS139      0.1154
     72  CE1       57.3410   40.5180   17.9280 C.ar  139  HIS139      0.1986
     73  NE2       57.3550   39.8840   16.7540 N.ar  139  HIS139     -0.2212
     74  N         59.9280   46.0930   16.4790 N.am  140  ASP140     -0.1971
     75  CA        60.7610   47.2490   16.2000 C.3   140  ASP140      0.1709
     76  C         61.8810   46.8690   15.2450 C.2   140  ASP140      0.2293
     77  O         62.2620   47.7000   14.4380 O.2   140  ASP140     -0.2864
     78  CB        61.2360   47.8760   17.5000 C.3   140  ASP140      0.1436
     79  CG        60.0830   48.5180   18.2300 C.2   140  ASP140      0.3671
     80  OD1       59.0900   48.7870   17.5820 O.co2 140  ASP140     -0.2456
     81  OD2       60.1960   48.7490   19.4390 O.co2 140  ASP140     -0.2456
@<TRIPOS>BOND
     1     1     2    1
     2    55    54    1
     3     2     3    1
     4     2     5    1
     5     4     3    2
     6    38    37    2
     7    46    43    1
     8     9     8    1
     9     6     5    1
    10     6     7    1
    11    50    49    2
    12    43    42    1
    13    43    44    1
    14    54    53    1
    15    53    52    1
    16    51    52    1
    17    51    48    1
    18    47    44   am
    19    47    48    1
    20    37    42   am
    21    37    36    1
    22    41    35    1
    23    41    40    1
    24    35    36    1
    25     8     7    1
    26    44    45    2
    27    48    49    1
    28    36    39    1
    29    39    40    1
    30    62    61   ar
    31    29    28    2
    32    25    23    1
    33    28    27    1
    34    61    63   ar
    35    61    60    1
    36    22    21    2
    37    33    32   ar
    38    24    23    1
    39    67    66    2
    40    30    27    1
    41    30    31    1
    42    77    76    2
    43    23    20    1
    44    57    60    1
    45    57    56    1
    46    57    58    1
    47    27    26    1
    48    76    75    1
    49    32    31    1
    50    32    34   ar
    51    21    20    1
    52    64    58   am
    53    64    65    1
    54    66    65    1
    55    66    74   am
    56    58    59    2
    57    20    19    1
    58    71    69   ar
    59    71    73   ar
    60    68    65    1
    61    68    69    1
    62    75    74    1
    63    75    78    1
    64    69    70   ar
    65    73    72   ar
    66    19    12   am
    67    78    79    1
    68    80    79   ar
    69    70    72   ar
    70    12    13    2
    71    12    11    1
    72    79    81   ar
    73    17    16   ar
    74    14    11    1
    75    14    15    1
    76    11    10    1
    77    16    15    1
    78    16    18   ar
