@<TRIPOS>MOLECULE
tmp/6eg9B00.pdb
 211 202 0 0 0
SMALL
GASTEIGER

@<TRIPOS>ATOM
      1  N        -10.8740  -21.2640  -27.9510 N.3    28  MET28      -0.1245
      2  CA       -11.0300  -22.6590  -27.5680 C.3    28  MET28       0.1570
      3  C        -10.9900  -22.8310  -26.0590 C.2    28  MET28       0.2261
      4  O        -11.6770  -23.7060  -25.5140 O.2    28  MET28      -0.2867
      5  CB        -9.9370  -23.5120  -28.2020 C.3    28  MET28       0.0387
      6  CG        -9.9490  -23.5520  -29.7090 C.3    28  MET28       0.0595
      7  SD        -8.4260  -24.2940  -30.3170 S.3    28  MET28      -0.1393
      8  CE        -8.4280  -25.8140  -29.3850 C.3    28  MET28       0.0692
      9  N         -6.2560  -19.9410  -25.5670 N.3    36  VAL36      -0.1245
     10  CA        -6.1030  -20.7990  -26.7410 C.3    36  VAL36       0.1561
     11  C         -7.2150  -20.5080  -27.7380 C.2    36  VAL36       0.2260
     12  O         -8.4060  -20.6100  -27.4000 O.2    36  VAL36      -0.2867
     13  CB        -6.1080  -22.2870  -26.3650 C.3    36  VAL36       0.0252
     14  CG1       -5.9040  -23.1400  -27.6170 C.3    36  VAL36       0.0019
     15  CG2       -5.0150  -22.5830  -25.3380 C.3    36  VAL36       0.0019
     16  N         -4.2060  -24.7340  -33.1860 N.3    47  ALA47      -0.1245
     17  CA        -4.5360  -24.1340  -31.8970 C.3    47  ALA47       0.1562
     18  C         -3.3880  -23.2140  -31.4970 C.2    47  ALA47       0.2260
     19  O         -2.2300  -23.6380  -31.4590 O.2    47  ALA47      -0.2867
     20  CB        -4.7780  -25.2110  -30.8360 C.3    47  ALA47       0.0290
     21  N         -1.9630  -20.7760  -28.5910 N.3    49  LYS49      -0.1245
     22  CA        -1.9300  -20.2120  -27.2480 C.3    49  LYS49       0.1561
     23  C         -1.1780  -18.8880  -27.2900 C.2    49  LYS49       0.2260
     24  O          0.0170  -18.8610  -27.6070 O.2    49  LYS49      -0.2867
     25  CB        -1.2750  -21.1610  -26.2450 C.3    49  LYS49       0.0271
     26  CG        -1.2900  -20.6120  -24.8260 C.3    49  LYS49       0.0035
     27  CD        -1.0520  -21.6870  -23.7790 C.3    49  LYS49       0.0206
     28  CE         0.3320  -22.2970  -23.9000 C.3    49  LYS49       0.1093
     29  NZ         0.6060  -23.2520  -22.7890 N.3    49  LYS49      -0.1314
     30  N          8.9750  -24.4520  -22.9210 N.3    66  GLU66      -0.1245
     31  CA         8.0120  -25.2450  -23.6730 C.3    66  GLU66       0.1567
     32  C          8.5330  -25.5470  -25.0690 C.2    66  GLU66       0.2260
     33  O          8.4430  -26.6870  -25.5420 O.2    66  GLU66      -0.2867
     34  CB         6.6690  -24.5240  -23.7550 C.3    66  GLU66       0.0388
     35  CG         5.6000  -25.1230  -22.8650 C.3    66  GLU66       0.1160
     36  CD         4.2100  -24.9220  -23.4320 C.2    66  GLU66       0.3649
     37  OE1        3.6120  -23.8540  -23.1790 O.co2  66  GLU66      -0.2457
     38  OE2        3.7170  -25.8300  -24.1350 O.co2  66  GLU66      -0.2457
     39  N         11.3490  -28.2660  -24.6650 N.3    69  VAL69      -0.1231
     40  CA        10.8880  -29.6290  -24.3900 C.3    69  VAL69       0.1692
     41  C         10.1100  -30.1970  -25.5700 C.2    69  VAL69       0.2591
     42  O         10.3180  -31.3490  -25.9700 O.2    69  VAL69      -0.2718
     43  CB        10.0510  -29.6640  -23.1090 C.3    69  VAL69       0.0266
     44  CG1        9.5620  -31.0740  -22.8470 C.3    69  VAL69       0.0020
     45  CG2       10.8750  -29.1670  -21.9220 C.3    69  VAL69       0.0020
     46  N          9.1900  -29.4140  -26.1380 N.am   70  MET70      -0.1979
     47  CA         8.3630  -29.9240  -27.2250 C.3    70  MET70       0.1605
     48  C          9.1600  -30.0790  -28.5130 C.2    70  MET70       0.2287
     49  O          8.7960  -30.8910  -29.3710 O.2    70  MET70      -0.2864
     50  CB         7.1630  -29.0060  -27.4490 C.3    70  MET70       0.0413
     51  CG         6.1360  -29.0740  -26.3300 C.3    70  MET70       0.0598
     52  SD         5.7410  -30.7740  -25.8870 S.3    70  MET70      -0.1393
     53  CE         4.5890  -31.2150  -27.1880 C.3    70  MET70       0.0692
     54  N         10.3300  -33.5020  -28.2060 N.3    73  CYS73      -0.1235
     55  CA         9.2560  -34.4530  -27.9470 C.3    73  CYS73       0.1677
     56  C          8.3660  -34.4980  -29.1870 C.2    73  CYS73       0.2270
     57  O          7.4130  -33.7230  -29.3140 O.2    73  CYS73      -0.2867
     58  CB         8.4700  -34.0750  -26.6940 C.3    73  CYS73       0.0956
     59  SG         9.3800  -34.3310  -25.1530 S.3    73  CYS73      -0.0801
     60  N          1.8110  -37.7070  -28.6390 N.3    78  LEU78      -0.1231
     61  CA         1.9130  -36.3900  -28.0130 C.3    78  LEU78       0.1693
     62  C          1.4000  -35.3050  -28.9590 C.2    78  LEU78       0.2591
     63  O          1.4870  -35.4620  -30.1790 O.2    78  LEU78      -0.2718
     64  CB         3.3640  -36.0750  -27.6090 C.3    78  LEU78       0.0284
     65  CG         4.0490  -36.9830  -26.5840 C.3    78  LEU78       0.0019
     66  CD1        5.2700  -36.2730  -26.0140 C.3    78  LEU78       0.0001
     67  CD2        3.0800  -37.3590  -25.4800 C.3    78  LEU78       0.0001
     68  N          0.9500  -34.1950  -28.3830 N.am   79  VAL79      -0.1980
     69  CA         0.5080  -33.0640  -29.1730 C.3    79  VAL79       0.1595
     70  C          1.7220  -32.6500  -29.9940 C.2    79  VAL79       0.2287
     71  O          2.8600  -32.7740  -29.5420 O.2    79  VAL79      -0.2864
     72  CB         0.0580  -31.8900  -28.2880 C.3    79  VAL79       0.0276
     73  CG1       -1.4590  -31.7760  -28.2890 C.3    79  VAL79       0.0022
     74  CG2        0.5860  -32.0600  -26.8720 C.3    79  VAL79       0.0022
     75  N          0.0470  -25.1890  -32.1770 N.3    95  TYR95      -0.1227
     76  CA        -0.0250  -26.6420  -32.1920 C.3    95  TYR95       0.1736
     77  C         -1.0160  -27.0840  -33.2620 C.2    95  TYR95       0.2595
     78  O         -1.8320  -26.2950  -33.7450 O.2    95  TYR95      -0.2718
     79  CB        -0.4510  -27.1820  -30.8220 C.3    95  TYR95       0.0548
     80  CG         0.6550  -27.1600  -29.7940 C.ar   95  TYR95      -0.0200
     81  CD1        1.0000  -25.9810  -29.1430 C.ar   95  TYR95      -0.0009
     82  CD2        1.3530  -28.3180  -29.4710 C.ar   95  TYR95      -0.0009
     83  CE1        2.0130  -25.9560  -28.2040 C.ar   95  TYR95       0.0417
     84  CE2        2.3630  -28.3040  -28.5340 C.ar   95  TYR95       0.0417
     85  CZ         2.6930  -27.1220  -27.9040 C.ar   95  TYR95       0.1957
     86  OH         3.7020  -27.1090  -26.9690 O.3    95  TYR95      -0.2866
     87  N         -0.9540  -28.3630  -33.6120 N.am   96  VAL96      -0.1966
     88  CA        -1.8660  -28.9280  -34.6010 C.3    96  VAL96       0.1727
     89  C         -3.2030  -29.2400  -33.9390 C.2    96  VAL96       0.2616
     90  O         -3.2570  -29.8950  -32.8910 O.2    96  VAL96      -0.2715
     91  CB        -1.2580  -30.1760  -35.2530 C.3    96  VAL96       0.0290
     92  CG1       -2.2750  -30.8440  -36.1550 C.3    96  VAL96       0.0023
     93  CG2       -0.0200  -29.7920  -36.0580 C.3    96  VAL96       0.0023
     94  N         -4.2830  -28.7620  -34.5520 N.am   97  TYR97      -0.1960
     95  CA        -5.6130  -28.8790  -33.9700 C.3    97  TYR97       0.1771
     96  C         -6.0950  -30.3250  -33.9890 C.2    97  TYR97       0.2619
     97  O         -5.9110  -31.0410  -34.9770 O.2    97  TYR97      -0.2715
     98  CB        -6.5790  -27.9870  -34.7390 C.3    97  TYR97       0.0574
     99  CG        -8.0010  -28.0290  -34.2630 C.ar   97  TYR97      -0.0198
    100  CD1       -8.3960  -27.3240  -33.1330 C.ar   97  TYR97      -0.0009
    101  CD2       -8.9540  -28.7720  -34.9450 C.ar   97  TYR97      -0.0009
    102  CE1       -9.7040  -27.3590  -32.6960 C.ar   97  TYR97       0.0417
    103  CE2      -10.2640  -28.8130  -34.5170 C.ar   97  TYR97       0.0417
    104  CZ       -10.6330  -28.1050  -33.3920 C.ar   97  TYR97       0.1957
    105  OH       -11.9400  -28.1460  -32.9640 O.3    97  TYR97      -0.2866
    106  N         -6.7170  -30.7550  -32.8900 N.am   98  MET98      -0.1977
    107  CA        -7.2200  -32.1180  -32.7800 C.3    98  MET98       0.1605
    108  C         -8.7360  -32.1080  -32.8830 C.2    98  MET98       0.2287
    109  O         -9.4160  -31.6740  -31.9370 O.2    98  MET98      -0.2864
    110  CB        -6.7600  -32.7610  -31.4710 C.3    98  MET98       0.0413
    111  CG        -5.3030  -32.4610  -31.1570 C.3    98  MET98       0.0598
    112  SD        -4.2040  -33.1810  -32.3930 S.3    98  MET98      -0.1393
    113  CE        -4.7710  -34.8680  -32.3590 C.3    98  MET98       0.0692
    114  N        -11.4230  -33.3150  -30.1690 N.3   101  GLY101     -0.1210
    115  CA       -11.4070  -32.7510  -28.8250 C.3   101  GLY101      0.1956
    116  C        -10.7030  -33.6460  -27.8250 C.2   101  GLY101      0.2612
    117  O         -9.7630  -34.3740  -28.1580 O.2   101  GLY101     -0.2717
    118  N        -11.1650  -33.5950  -26.5780 N.am  102  SER102     -0.1952
    119  CA       -10.5150  -34.2840  -25.4750 C.3   102  SER102      0.1924
    120  C        -11.2810  -35.5480  -25.1110 C.2   102  SER102      0.2314
    121  O        -12.4640  -35.7050  -25.4270 O.2   102  SER102     -0.2863
    122  CB       -10.3980  -33.3790  -24.2430 C.3   102  SER102      0.2116
    123  OG       -11.5850  -33.4160  -23.4730 O.3   102  SER102     -0.2180
    124  N          7.2670  -39.8380  -22.5960 N.3   135  LEU135     -0.1245
    125  CA         7.6720  -38.7780  -21.6730 C.3   135  LEU135      0.1561
    126  C          8.6230  -39.3020  -20.6000 C.2   135  LEU135      0.2260
    127  O          9.6150  -38.6470  -20.2580 O.2   135  LEU135     -0.2867
    128  CB         6.4410  -38.1470  -21.0250 C.3   135  LEU135      0.0270
    129  CG         5.5990  -37.2030  -21.8880 C.3   135  LEU135      0.0019
    130  CD1        4.4290  -36.6570  -21.0840 C.3   135  LEU135      0.0001
    131  CD2        6.4550  -36.0700  -22.4390 C.3   135  LEU135      0.0001
    132  N         10.9150  -36.8760  -18.3930 N.3   140  HIS140     -0.1226
    133  CA         9.9080  -35.8500  -18.1800 C.3   140  HIS140      0.1752
    134  C          8.8120  -36.3930  -17.2740 C.2   140  HIS140      0.2596
    135  O          8.3720  -37.5370  -17.4310 O.2   140  HIS140     -0.2718
    136  CB         9.2960  -35.3860  -19.5030 C.3   140  HIS140      0.0759
    137  CG        10.2530  -34.6450  -20.3810 C.ar  140  HIS140      0.0818
    138  ND1       10.7260  -33.3890  -20.0690 N.ar  140  HIS140     -0.2268
    139  CD2       10.8210  -34.9790  -21.5640 C.ar  140  HIS140      0.1154
    140  CE1       11.5560  -32.9870  -21.0140 C.ar  140  HIS140      0.1986
    141  NE2       11.6230  -33.9290  -21.9380 N.ar  140  HIS140     -0.2212
    142  N          8.3900  -35.5740  -16.3150 N.am  141  ILE141     -0.1966
    143  CA         7.2070  -35.8440  -15.5090 C.3   141  ILE141      0.1727
    144  C          6.0980  -34.9610  -16.0470 C.2   141  ILE141      0.2616
    145  O          6.3070  -33.7620  -16.2500 O.2   141  ILE141     -0.2715
    146  CB         7.4620  -35.5540  -14.0200 C.3   141  ILE141      0.0290
    147  CG1        8.6580  -36.3610  -13.5120 C.3   141  ILE141      0.0022
    148  CG2        6.2170  -35.8460  -13.1980 C.3   141  ILE141      0.0023
    149  CD1        9.2450  -35.8300  -12.2220 C.3   141  ILE141      0.0001
    150  N          4.9230  -35.5390  -16.2960 N.am  142  HIS142     -0.1959
    151  CA         3.8510  -34.7200  -16.8540 C.3   142  HIS142      0.1787
    152  C          3.3310  -33.7160  -15.8300 C.2   142  HIS142      0.2620
    153  O          3.2340  -32.5170  -16.1190 O.2   142  HIS142     -0.2715
    154  CB         2.7100  -35.5850  -17.3760 C.3   142  HIS142      0.0785
    155  CG         1.7460  -34.8210  -18.2260 C.ar  142  HIS142      0.0821
    156  ND1        0.9110  -33.8540  -17.7100 N.ar  142  HIS142     -0.2267
    157  CD2        1.5030  -34.8570  -19.5570 C.ar  142  HIS142      0.1154
    158  CE1        0.1940  -33.3290  -18.6870 C.ar  142  HIS142      0.1986
    159  NE2        0.5290  -33.9240  -19.8170 N.ar  142  HIS142     -0.2212
    160  N          2.9860  -34.1930  -14.6320 N.am  143  ARG143     -0.1977
    161  CA         2.5220  -33.4600  -13.4580 C.3   143  ARG143      0.1597
    162  C          1.0570  -33.0270  -13.5510 C.2   143  ARG143      0.2287
    163  O          0.5220  -32.5460  -12.5520 O.2   143  ARG143     -0.2864
    164  CB         3.3690  -32.2100  -13.1520 C.3   143  ARG143      0.0334
    165  CG         4.8170  -32.4950  -12.8170 C.3   143  ARG143      0.0492
    166  CD         5.1620  -31.9340  -11.4560 C.3   143  ARG143      0.2205
    167  NE         5.6830  -30.5760  -11.5600 N.pl3 143  ARG143     -0.0865
    168  CZ         5.6900  -29.7080  -10.5560 C.cat 143  ARG143      0.5346
    169  NH1        5.2010  -30.0630   -9.3760 N.pl3 143  ARG143      0.1354
    170  NH2        6.1830  -28.4880  -10.7310 N.pl3 143  ARG143      0.1354
    171  N         -6.0850  -35.5420  -25.9390 N.3   151  LEU151     -0.1245
    172  CA        -6.8020  -35.1310  -27.1360 C.3   151  LEU151      0.1561
    173  C         -6.9000  -36.2890  -28.1280 C.2   151  LEU151      0.2260
    174  O         -6.2730  -37.3370  -27.9700 O.2   151  LEU151     -0.2867
    175  CB        -6.1150  -33.9280  -27.7760 C.3   151  LEU151      0.0270
    176  CG        -5.9050  -32.7970  -26.7670 C.3   151  LEU151      0.0019
    177  CD1       -5.2560  -31.5910  -27.4190 C.3   151  LEU151      0.0001
    178  CD2       -7.2260  -32.4190  -26.1120 C.3   151  LEU151      0.0001
    179  N         -1.3230  -36.8600  -25.8790 N.3   160  ILE160     -0.1231
    180  CA        -1.1560  -36.2150  -24.5860 C.3   160  ILE160      0.1692
    181  C         -0.8140  -34.7470  -24.7850 C.2   160  ILE160      0.2593
    182  O         -0.0620  -34.3850  -25.6980 O.2   160  ILE160     -0.2718
    183  CB        -0.0780  -36.9510  -23.7760 C.3   160  ILE160      0.0266
    184  CG1       -0.5170  -38.4030  -23.5750 C.3   160  ILE160      0.0019
    185  CG2        0.2000  -36.2310  -22.4600 C.3   160  ILE160      0.0020
    186  CD1        0.0930  -39.0570  -22.4060 C.3   160  ILE160      0.0001
    187  N         -1.3950  -33.8920  -23.9450 N.am  161  SER161     -0.1938
    188  CA        -1.1640  -32.4540  -23.9740 C.3   161  SER161      0.2055
    189  C         -0.9670  -31.9410  -22.5490 C.2   161  SER161      0.2643
    190  O         -1.1000  -32.6820  -21.5720 O.2   161  SER161     -0.2714
    191  CB        -2.3290  -31.7210  -24.6510 C.3   161  SER161      0.2130
    192  OG        -3.5100  -31.8260  -23.8780 O.3   161  SER161     -0.2179
    193  N         -0.6390  -30.6550  -22.4310 N.am  162  ASP162     -0.1957
    194  CA        -0.5760  -30.0140  -21.1230 C.3   162  ASP162      0.1840
    195  C         -0.8620  -28.5250  -21.2420 C.2   162  ASP162      0.2622
    196  O         -0.2080  -27.8220  -22.0170 O.2   162  ASP162     -0.2715
    197  CB         0.7900  -30.2130  -20.4550 C.3   162  ASP162      0.1450
    198  CG         0.8440  -29.5900  -19.0690 C.2   162  ASP162      0.3671
    199  OD1       -0.1410  -29.7520  -18.3190 O.co2 162  ASP162     -0.2456
    200  OD2        1.8510  -28.9290  -18.7380 O.co2 162  ASP162     -0.2456
    201  N         -1.8210  -28.0550  -20.4520 N.am  163  PHE163     -0.1974
    202  CA        -2.0310  -26.6270  -20.2100 C.3   163  PHE163      0.1639
    203  C         -2.9140  -26.4280  -18.9810 C.2   163  PHE163      0.2290
    204  O         -2.5120  -25.7760  -18.0160 O.2   163  PHE163     -0.2864
    205  CB        -2.6500  -25.9060  -21.4210 C.3   163  PHE163      0.0560
    206  CG        -3.6150  -26.7380  -22.2360 C.ar  163  PHE163     -0.0200
    207  CD1       -4.7730  -27.2730  -21.6870 C.ar  163  PHE163     -0.0042
    208  CD2       -3.3600  -26.9600  -23.5790 C.ar  163  PHE163     -0.0042
    209  CE1       -5.6360  -28.0320  -22.4580 C.ar  163  PHE163     -0.0003
    210  CE2       -4.2210  -27.7110  -24.3540 C.ar  163  PHE163     -0.0003
    211  CZ        -5.3600  -28.2480  -23.7940 C.ar  163  PHE163     -0.0000
@<TRIPOS>BOND
     1    92    91    1
     2    93    91    1
     3    91    88    1
     4    97    96    2
     5   101   103   ar
     6   101    99   ar
     7    98    99    1
     8    98    95    1
     9    88    89    1
    10    88    87    1
    11    94    95    1
    12    94    89   am
    13   103   104   ar
    14    99   100   ar
    15    96    95    1
    16    96   106   am
    17    89    90    2
    18    78    77    2
    19    87    77   am
    20   104   105    1
    21   104   102   ar
    22    77    76    1
    23    16    17    1
    24   100   102   ar
    25   106   107    1
    26   108   107    1
    27   108   109    2
    28   107   110    1
    29   112   113    1
    30   112   111    1
    31    76    75    1
    32    76    79    1
    33    17    18    1
    34    17    20    1
    35    18    19    2
    36   110   111    1
    37    79    80    1
    38     7     6    1
    39     7     8    1
    40    63    62    2
    41   114   115    1
    42    70    71    2
    43    70    69    1
    44    80    82   ar
    45    80    81   ar
    46     6     5    1
    47    82    84   ar
    48    49    48    2
    49    57    56    2
    50    56    55    1
    51    69    68    1
    52    69    72    1
    53    81    83   ar
    54    62    68   am
    55    62    61    1
    56   115   116    1
    57    60    61    1
    58    21    22    1
    59    84    85   ar
    60    48    47    1
    61    73    72    1
    62    72    74    1
    63    54    55    1
    64    83    85   ar
    65     5     2    1
    66   117   116    2
    67   173   174    2
    68   173   172    1
    69    61    64    1
    70     1     2    1
    71    55    58    1
    72    85    86    1
    73   116   118   am
    74   175   172    1
    75   175   176    1
    76    11    12    2
    77    11    10    1
    78    14    13    1
    79    64    65    1
    80    24    23    2
    81     2     3    1
    82    50    47    1
    83    50    51    1
    84   177   176    1
    85    23    22    1
    86    22    25    1
    87    47    46    1
    88    53    52    1
    89   172   171    1
    90   176   178    1
    91    10    13    1
    92    10     9    1
    93    58    59    1
    94    65    66    1
    95    65    67    1
    96   118   119    1
    97    13    15    1
    98    51    52    1
    99    25    26    1
   100    46    41   am
   101     3     4    2
   102    42    41    2
   103   179   180    1
   104   182   181    2
   105    41    40    1
   106    33    32    2
   107   119   120    1
   108   119   122    1
   109   121   120    2
   110    32    31    1
   111    26    27    1
   112   181   180    1
   113   181   187   am
   114    39    40    1
   115   191   188    1
   116   191   192    1
   117   180   183    1
   118    40    43    1
   119   210   211   ar
   120   210   208   ar
   121   122   123    1
   122    38    36   ar
   123   188   187    1
   124   188   189    1
   125    28    27    1
   126    28    29    1
   127   211   209   ar
   128   183   184    1
   129   183   185    1
   130    34    31    1
   131    34    35    1
   132    31    30    1
   133   208   206   ar
   134   184   186    1
   135    36    37   ar
   136    36    35    1
   137    43    44    1
   138    43    45    1
   139   124   125    1
   140   189   193   am
   141   189   190    2
   142   209   207   ar
   143   131   129    1
   144   193   194    1
   145   206   207   ar
   146   206   205    1
   147   196   195    2
   148   141   139   ar
   149   141   140   ar
   150   129   130    1
   151   129   128    1
   152   125   128    1
   153   125   126    1
   154   139   137   ar
   155   205   202    1
   156   195   194    1
   157   195   201   am
   158   194   197    1
   159   140   138   ar
   160   126   127    2
   161   197   198    1
   162   201   202    1
   163   137   138   ar
   164   137   136    1
   165   202   203    1
   166   159   157   ar
   167   159   158   ar
   168   157   155   ar
   169   136   133    1
   170   198   200   ar
   171   198   199   ar
   172   203   204    2
   173   158   156   ar
   174   132   133    1
   175   155   156   ar
   176   155   154    1
   177   133   134    1
   178   135   134    2
   179   154   151    1
   180   134   142   am
   181   151   150    1
   182   151   152    1
   183   142   143    1
   184   150   144   am
   185   145   144    2
   186   153   152    2
   187   144   143    1
   188   152   160   am
   189   143   146    1
   190   160   161    1
   191   146   147    1
   192   146   148    1
   193   162   161    1
   194   162   163    2
   195   147   149    1
   196   161   164    1
   197   164   165    1
   198   165   166    1
   199   167   166    1
   200   167   168    2
   201   170   168    1
   202   168   169    1
