@<TRIPOS>MOLECULE
tmp/6egdA00.pdb
 211 199 0 0 0
SMALL
GASTEIGER

@<TRIPOS>ATOM
      1  N        -23.2140  -13.9820   -5.1160 N.3    24  ILE24      -0.1245
      2  CA       -23.1160  -13.7530   -3.6770 C.3    24  ILE24       0.1561
      3  C        -24.3550  -13.0520   -3.1400 C.2    24  ILE24       0.2260
      4  O        -24.9040  -13.4340   -2.1190 O.2    24  ILE24      -0.2867
      5  CB       -21.8800  -12.8940   -3.3390 C.3    24  ILE24       0.0252
      6  CG1      -20.5970  -13.7140   -3.4640 C.3    24  ILE24       0.0019
      7  CG2      -22.0040  -12.2880   -1.9410 C.3    24  ILE24       0.0019
      8  CD1      -20.6050  -14.9610   -2.6380 C.3    24  ILE24       0.0001
      9  N        -20.8390  -17.2520   -6.6180 N.3    30  LYS30      -0.1231
     10  CA       -20.0950  -16.6650   -7.7300 C.3    30  LYS30       0.1693
     11  C        -19.7680  -15.2070   -7.4460 C.2    30  LYS30       0.2592
     12  O        -20.6510  -14.4270   -7.1140 O.2    30  LYS30      -0.2718
     13  CB       -20.8830  -16.7810   -9.0320 C.3    30  LYS30       0.0285
     14  CG       -20.2220  -16.1140  -10.2380 C.3    30  LYS30       0.0035
     15  CD       -21.1910  -16.1110  -11.4120 C.3    30  LYS30       0.0206
     16  CE       -20.4890  -16.3860  -12.7190 C.3    30  LYS30       0.1093
     17  NZ       -21.4840  -16.4880  -13.8250 N.3    30  LYS30      -0.1314
     18  N        -18.4890  -14.8650   -7.5560 N.am   31  MET31      -0.1965
     19  CA       -18.0180  -13.5050   -7.2920 C.3    31  MET31       0.1736
     20  C        -17.6680  -12.8160   -8.5920 C.2    31  MET31       0.2617
     21  O        -17.7140  -11.5990   -8.6810 O.2    31  MET31      -0.2715
     22  CB       -16.7960  -13.5180   -6.3790 C.3    31  MET31       0.0427
     23  CG       -17.0330  -14.2710   -5.0860 C.3    31  MET31       0.0599
     24  SD       -15.8270  -13.8960   -3.8280 S.3    31  MET31      -0.1393
     25  CE       -14.3040  -14.5160   -4.5810 C.3    31  MET31       0.0692
     26  N        -17.3090  -13.6090   -9.5980 N.am   32  GLY32      -0.1955
     27  CA       -16.9250  -13.0550  -10.8760 C.3    32  GLY32       0.1869
     28  C        -16.5180  -14.1300  -11.8610 C.2    32  GLY32       0.2309
     29  O        -16.3600  -15.3010  -11.5000 O.2    32  GLY32      -0.2863
     30  N        -12.1460  -14.7240  -17.3930 N.3    35  GLY35      -0.1225
     31  CA       -10.9320  -15.1740  -18.0090 C.3    35  GLY35       0.1811
     32  C        -10.7260  -16.6270  -17.7050 C.2    35  GLY35       0.2280
     33  O        -10.1720  -16.9940  -16.6840 O.2    35  GLY35      -0.2866
     34  N        -14.8330  -17.2440  -10.7170 N.3    39  VAL39      -0.1245
     35  CA       -14.2410  -17.1520   -9.3900 C.3    39  VAL39       0.1561
     36  C        -15.3480  -17.2430   -8.3560 C.2    39  VAL39       0.2260
     37  O        -16.3320  -16.4970   -8.4010 O.2    39  VAL39      -0.2867
     38  CB       -13.4250  -15.8610   -9.2220 C.3    39  VAL39       0.0252
     39  CG1      -12.8450  -15.7700   -7.8360 C.3    39  VAL39       0.0019
     40  CG2      -12.3180  -15.8240  -10.2500 C.3    39  VAL39       0.0019
     41  N        -16.6280  -17.8570   -4.1470 N.3    41  LYS41      -0.1245
     42  CA       -16.2850  -17.6940   -2.7420 C.3    41  LYS41       0.1561
     43  C        -16.1850  -19.0720   -2.1160 C.2    41  LYS41       0.2260
     44  O        -17.1200  -19.8530   -2.2280 O.2    41  LYS41      -0.2867
     45  CB       -17.3220  -16.8540   -1.9950 C.3    41  LYS41       0.0271
     46  CG       -17.0940  -16.8460   -0.4800 C.3    41  LYS41       0.0035
     47  CD       -17.9520  -15.8240    0.2590 C.3    41  LYS41       0.0206
     48  CE       -17.3780  -14.4230    0.1220 C.3    41  LYS41       0.1093
     49  NZ       -18.1920  -13.4200    0.8800 N.3    41  LYS41      -0.1314
     50  N        -10.6220  -17.0260   -2.4100 N.3    50  ALA50      -0.1245
     51  CA       -11.2320  -16.9960   -3.7430 C.3    50  ALA50       0.1562
     52  C        -10.8190  -18.2590   -4.4530 C.2    50  ALA50       0.2260
     53  O         -9.6320  -18.5900   -4.4810 O.2    50  ALA50      -0.2867
     54  CB       -10.7950  -15.7670   -4.5280 C.3    50  ALA50       0.0290
     55  N        -10.8020  -20.0170   -8.0910 N.3    52  LYS52      -0.1245
     56  CA       -11.0460  -19.9280   -9.5250 C.3    52  LYS52       0.1561
     57  C        -11.0910  -21.3220  -10.1410 C.2    52  LYS52       0.2260
     58  O        -10.1090  -22.0570  -10.1000 O.2    52  LYS52      -0.2867
     59  CB        -9.9850  -19.0960  -10.2270 C.3    52  LYS52       0.0271
     60  CG       -10.3800  -18.7390  -11.6660 C.3    52  LYS52       0.0035
     61  CD        -9.1820  -18.3550  -12.5250 C.3    52  LYS52       0.0206
     62  CE        -8.3770  -17.2250  -11.9150 C.3    52  LYS52       0.1093
     63  NZ        -7.1860  -16.8720  -12.7620 N.3    52  LYS52      -0.1314
     64  N         -1.6220  -10.3520   -6.0730 N.3    80  VAL80      -0.1245
     65  CA        -2.4120  -11.3010   -5.3070 C.3    80  VAL80       0.1561
     66  C         -1.6020  -12.5500   -4.9640 C.2    80  VAL80       0.2260
     67  O         -0.8180  -13.0320   -5.7750 O.2    80  VAL80      -0.2867
     68  CB        -3.6700  -11.7170   -6.0850 C.3    80  VAL80       0.0252
     69  CG1       -4.5580  -10.5090   -6.3410 C.3    80  VAL80       0.0019
     70  CG2       -3.2770  -12.3840   -7.4090 C.3    80  VAL80       0.0019
     71  N         -6.8600  -18.4890   -4.1460 N.3    96  TYR96      -0.1227
     72  CA        -6.1730  -17.2430   -3.7950 C.3    96  TYR96       0.1736
     73  C         -6.6260  -16.6570   -2.4760 C.2    96  TYR96       0.2595
     74  O         -7.7260  -16.9510   -2.0020 O.2    96  TYR96      -0.2718
     75  CB        -6.3990  -16.1660   -4.8580 C.3    96  TYR96       0.0548
     76  CG        -6.0030  -16.5440   -6.2560 C.ar   96  TYR96      -0.0200
     77  CD1       -4.7420  -16.2200   -6.7630 C.ar   96  TYR96      -0.0009
     78  CD2       -6.9020  -17.2020   -7.0880 C.ar   96  TYR96      -0.0009
     79  CE1       -4.3900  -16.5620   -8.0630 C.ar   96  TYR96       0.0417
     80  CE2       -6.5650  -17.5350   -8.3680 C.ar   96  TYR96       0.0417
     81  CZ        -5.3150  -17.2160   -8.8550 C.ar   96  TYR96       0.1957
     82  OH        -5.0050  -17.5750  -10.1430 O.3    96  TYR96      -0.2866
     83  N         -5.7760  -15.8090   -1.9000 N.am   97  VAL97      -0.1966
     84  CA        -6.1800  -15.0150   -0.7490 C.3    97  VAL97       0.1727
     85  C         -7.3820  -14.1720   -1.1900 C.2    97  VAL97       0.2616
     86  O         -7.4420  -13.6810   -2.3210 O.2    97  VAL97      -0.2715
     87  CB        -5.0480  -14.1140   -0.2260 C.3    97  VAL97       0.0290
     88  CG1       -5.5810  -13.1490    0.8500 C.3    97  VAL97       0.0023
     89  CG2       -3.9160  -14.9600    0.3530 C.3    97  VAL97       0.0023
     90  N         -8.3560  -14.0590   -0.3040 N.am   98  TYR98      -0.1960
     91  CA        -9.5710  -13.3160   -0.5720 C.3    98  TYR98       0.1771
     92  C         -9.2900  -11.8020   -0.5840 C.2    98  TYR98       0.2619
     93  O         -8.6170  -11.2900    0.2960 O.2    98  TYR98      -0.2715
     94  CB       -10.6130  -13.6720    0.4980 C.3    98  TYR98       0.0574
     95  CG       -11.9550  -12.9960    0.3740 C.ar   98  TYR98      -0.0198
     96  CD1      -12.4740  -12.2510    1.4280 C.ar   98  TYR98      -0.0009
     97  CD2      -12.7210  -13.1230   -0.7780 C.ar   98  TYR98      -0.0009
     98  CE1      -13.7270  -11.6470    1.3380 C.ar   98  TYR98       0.0417
     99  CE2      -13.9780  -12.5190   -0.8770 C.ar   98  TYR98       0.0417
    100  CZ       -14.4710  -11.7830    0.1830 C.ar   98  TYR98       0.1957
    101  OH       -15.7040  -11.1890    0.0980 O.3    98  TYR98      -0.2866
    102  N         -9.8020  -11.1090   -1.5910 N.am   99  MET99      -0.1964
    103  CA        -9.6260   -9.6650   -1.7310 C.3    99  MET99       0.1722
    104  C        -10.9870   -9.0080   -1.5160 C.2    99  MET99       0.2458
    105  O        -11.7660   -8.8980   -2.4530 O.2    99  MET99      -0.2730
    106  CB        -9.0510   -9.3290   -3.1220 C.3    99  MET99       0.0427
    107  CG        -7.6430   -9.9450   -3.3900 C.3    99  MET99       0.0599
    108  SD        -6.3720   -9.2500   -2.3350 S.3    99  MET99      -0.1393
    109  CE        -6.3720   -7.5550   -2.8930 C.3    99  MET99       0.0692
    110  N        -11.2670   -8.5880   -0.2680 N.am  100  PRO100     -0.2716
    111  CA       -12.5940   -8.2110    0.2480 C.3   100  PRO100      0.1536
    112  C        -13.2970   -7.1210   -0.5670 C.2   100  PRO100      0.2599
    113  O        -14.5090   -7.1330   -0.6570 O.2   100  PRO100     -0.2715
    114  CB       -12.2970   -7.7020    1.6690 C.3   100  PRO100      0.0310
    115  CG       -10.9250   -8.1900    1.9900 C.3   100  PRO100      0.0237
    116  CD       -10.1960   -8.3780    0.7290 C.3   100  PRO100      0.0939
    117  N        -12.5590   -6.1900   -1.1440 N.am  101  ASN101     -0.1959
    118  CA       -13.2040   -5.1580   -1.9520 C.3   101  ASN101      0.1819
    119  C        -13.2560   -5.4550   -3.4560 C.2   101  ASN101      0.2622
    120  O        -13.4960   -4.5520   -4.2600 O.2   101  ASN101     -0.2715
    121  CB       -12.5230   -3.8210   -1.7100 C.3   101  ASN101      0.1195
    122  CG       -13.0230   -3.1600   -0.4560 C.2   101  ASN101      0.2630
    123  OD1      -14.2390   -3.0660   -0.2430 O.2   101  ASN101     -0.2716
    124  ND2      -12.1000   -2.7230    0.3950 N.am  101  ASN101     -0.0877
    125  N        -13.0680   -6.7180   -3.8270 N.am  102  GLY102     -0.1940
    126  CA       -13.3130   -7.1540   -5.1920 C.3   102  GLY102      0.2014
    127  C        -12.4100   -6.5310   -6.2410 C.2   102  GLY102      0.2639
    128  O        -11.2900   -6.1300   -5.9320 O.2   102  GLY102     -0.2714
    129  N        -12.9000   -6.4520   -7.4820 N.am  103  SER103     -0.1949
    130  CA       -12.0820   -5.9550   -8.5960 C.3   103  SER103      0.1924
    131  C        -12.2840   -4.4580   -8.8260 C.2   103  SER103      0.2314
    132  O        -13.3520   -3.9080   -8.5230 O.2   103  SER103     -0.2863
    133  CB       -12.4110   -6.7140   -9.8890 C.3   103  SER103      0.2116
    134  OG       -13.6260   -6.2310  -10.4440 O.3   103  SER103     -0.2180
    135  N        -15.3390   -3.9080  -10.6850 N.3   106  ASP106     -0.1225
    136  CA       -16.5560   -3.9170   -9.8580 C.3   106  ASP106      0.1805
    137  C        -16.7340   -2.5490   -9.1920 C.2   106  ASP106      0.2597
    138  O        -17.8120   -1.9850   -9.2240 O.2   106  ASP106     -0.2718
    139  CB       -16.5220   -4.9890   -8.7650 C.3   106  ASP106      0.1424
    140  CG       -16.5940   -6.4020   -9.3040 C.2   106  ASP106      0.3668
    141  OD1      -16.2270   -7.3300   -8.5470 O.co2 106  ASP106     -0.2456
    142  OD2      -17.0080   -6.5930  -10.4580 O.co2 106  ASP106     -0.2456
    143  N        -15.6670   -2.0330   -8.5910 N.am  107  ARG107     -0.1979
    144  CA       -15.7650   -0.8020   -7.8180 C.3   107  ARG107      0.1597
    145  C        -15.9940    0.4310   -8.7340 C.2   107  ARG107      0.2287
    146  O        -16.7320    1.3420   -8.3700 O.2   107  ARG107     -0.2864
    147  CB       -14.5160   -0.6280   -6.9360 C.3   107  ARG107      0.0334
    148  CG       -14.3180   -1.7270   -5.8610 C.3   107  ARG107      0.0492
    149  CD       -15.3560   -1.6630   -4.6980 C.3   107  ARG107      0.2205
    150  NE       -16.7060   -1.9510   -5.1750 N.pl3 107  ARG107     -0.0865
    151  CZ       -17.1510   -3.1730   -5.4500 C.cat 107  ARG107      0.5346
    152  NH1      -18.3770   -3.3330   -5.9090 N.pl3 107  ARG107      0.1354
    153  NH2      -16.3710   -4.2360   -5.2650 N.pl3 107  ARG107      0.1354
    154  N        -20.7120   -1.9250   -8.7010 N.3   111  LEU111     -0.1231
    155  CA       -21.4560   -3.1690   -8.6320 C.3   111  LEU111      0.1693
    156  C        -22.1480   -3.2970   -7.2850 C.2   111  LEU111      0.2592
    157  O        -21.5230   -3.1090   -6.2450 O.2   111  LEU111     -0.2718
    158  CB       -20.5250   -4.3640   -8.8740 C.3   111  LEU111      0.0284
    159  CG       -21.2230   -5.7060   -9.1100 C.3   111  LEU111      0.0019
    160  CD1      -22.2860   -5.5640  -10.1850 C.3   111  LEU111      0.0001
    161  CD2      -20.2270   -6.7910   -9.5000 C.3   111  LEU111      0.0001
    162  N        -23.4470   -3.5910   -7.3220 N.am  112  ASP112     -0.1974
    163  CA       -24.2520   -3.8070   -6.1220 C.3   112  ASP112      0.1709
    164  C        -24.4280   -2.5360   -5.2930 C.2   112  ASP112      0.2293
    165  O        -24.5380   -2.5860   -4.0650 O.2   112  ASP112     -0.2864
    166  CB       -23.6360   -4.9160   -5.2750 C.3   112  ASP112      0.1436
    167  CG       -23.7450   -6.2750   -5.9400 C.2   112  ASP112      0.3671
    168  OD1      -24.8570   -6.6160   -6.4040 O.co2 112  ASP112     -0.2456
    169  OD2      -22.7210   -6.9940   -6.0090 O.co2 112  ASP112     -0.2456
    170  N        -22.4950   -0.2280   -4.4420 N.3   114  THR114     -0.1218
    171  CA       -21.4010    0.2050   -3.5820 C.3   114  THR114      0.1862
    172  C        -21.0110    1.6320   -3.9280 C.2   114  THR114      0.2287
    173  O        -21.1090    2.0410   -5.0830 O.2   114  THR114     -0.2866
    174  CB       -20.1610   -0.6970   -3.7170 C.3   114  THR114      0.1770
    175  OG1      -19.7420   -0.7280   -5.0880 O.3   114  THR114     -0.2211
    176  CG2      -20.4630   -2.1280   -3.2340 C.3   114  THR114      0.0375
    177  N        -10.5890   -5.6020  -14.5470 N.3   149  ALA149     -0.1231
    178  CA       -11.0600   -6.8500  -13.9680 C.3   149  ALA149      0.1694
    179  C         -9.9730   -7.6440  -13.2220 C.2   149  ALA149      0.2592
    180  O        -10.2970   -8.4360  -12.3380 O.2   149  ALA149     -0.2718
    181  CB       -11.6910   -7.7260  -15.0490 C.3   149  ALA149      0.0304
    182  N         -8.7030   -7.4300  -13.5610 N.am  150  ASN150     -0.1974
    183  CA        -7.6180   -8.2270  -12.9780 C.3   150  ASN150      0.1688
    184  C         -6.8190   -7.4740  -11.9240 C.2   150  ASN150      0.2292
    185  O         -5.7570   -7.9150  -11.4850 O.2   150  ASN150     -0.2864
    186  CB        -6.6800   -8.7200  -14.0830 C.3   150  ASN150      0.1181
    187  CG        -7.3210   -9.7950  -14.9340 C.2   150  ASN150      0.2629
    188  OD1       -8.2720  -10.4430  -14.4950 O.2   150  ASN150     -0.2716
    189  ND2       -6.8180   -9.9850  -16.1660 N.am  150  ASN150     -0.0877
    190  N         -7.2810   -6.3860   -8.2150 N.3   152  LEU152     -0.1245
    191  CA        -8.1230   -6.6420   -7.0640 C.3   152  LEU152      0.1561
    192  C         -7.7680   -5.7010   -5.9200 C.2   152  LEU152      0.2260
    193  O         -6.7000   -5.0830   -5.9330 O.2   152  LEU152     -0.2867
    194  CB        -7.9940   -8.1170   -6.6330 C.3   152  LEU152      0.0270
    195  CG        -8.6080   -8.9630   -7.7570 C.3   152  LEU152      0.0019
    196  CD1       -7.7880  -10.1820   -8.0250 C.3   152  LEU152      0.0001
    197  CD2      -10.0680   -9.3100   -7.4400 C.3   152  LEU152      0.0001
    198  N         -3.5380   -9.6480  -10.6800 N.3   162  SER162     -0.1202
    199  CA        -3.6860  -11.0710  -10.8250 C.3   162  SER162      0.2020
    200  C         -3.8920  -11.5230  -12.2620 C.2   162  SER162      0.2618
    201  O         -3.7500  -10.7750  -13.1790 O.2   162  SER162     -0.2717
    202  CB        -4.8090  -11.5770   -9.9750 C.3   162  SER162      0.2103
    203  OG        -6.0260  -11.3420  -10.6150 O.3   162  SER162     -0.2182
    204  N         -4.2840  -12.7750  -12.3990 N.am  163  ASP163     -0.1973
    205  CA        -4.4830  -13.4200  -13.6790 C.3   163  ASP163      0.1709
    206  C         -3.2450  -13.5230  -14.5240 C.2   163  ASP163      0.2293
    207  O         -3.1070  -12.8620  -15.5030 O.2   163  ASP163     -0.2864
    208  CB        -5.5910  -12.7330  -14.4480 C.3   163  ASP163      0.1436
    209  CG        -6.4140  -13.6930  -15.2540 C.2   163  ASP163      0.3671
    210  OD1       -6.1490  -14.8940  -15.2170 O.co2 163  ASP163     -0.2456
    211  OD2       -7.3290  -13.2490  -15.9400 O.co2 163  ASP163     -0.2456
@<TRIPOS>BOND
     1    31    32    1
     2    31    30    1
     3    32    33    2
     4   189   187   am
     5   211   209   ar
     6   207   206    2
     7   209   210   ar
     8   209   208    1
     9   181   178    1
    10   187   188    2
    11   187   186    1
    12   177   178    1
    13   206   205    1
    14   208   205    1
    15   186   183    1
    16   178   179    1
    17    17    16    1
    18   205   204    1
    19   182   179   am
    20   182   183    1
    21   179   180    2
    22   201   200    2
    23   183   184    1
    24    63    62    1
    25    16    15    1
    26    61    62    1
    27    61    60    1
    28   204   200   am
    29   200   199    1
    30   184   185    2
    31    28    29    2
    32    28    27    1
    33    60    59    1
    34    15    14    1
    35    27    26    1
    36   199   198    1
    37   199   202    1
    38    34    35    1
    39   135   136    1
    40   203   202    1
    41   142   140   ar
    42   134   133    1
    43    40    38    1
    44    14    13    1
    45    59    56    1
    46   160   159    1
    47    82    81    1
    48    57    58    2
    49    57    56    1
    50   133   130    1
    51   136   137    1
    52   136   139    1
    53    26    20   am
    54    56    55    1
    55   161   159    1
    56    35    38    1
    57    35    36    1
    58   140   139    1
    59   140   141   ar
    60   138   137    2
    61    38    39    1
    62   137   143   am
    63   159   158    1
    64    13    10    1
    65   158   155    1
    66    81    80   ar
    67    81    79   ar
    68   131   130    1
    69   131   132    2
    70   145   146    2
    71   145   144    1
    72   154   155    1
    73    21    20    2
    74   155   156    1
    75   130   129    1
    76    20    19    1
    77   143   144    1
    78    37    36    2
    79    80    78   ar
    80   190   191    1
    81    79    77   ar
    82   196   195    1
    83   144   147    1
    84   195   197    1
    85   195   194    1
    86    10    11    1
    87    10     9    1
    88    18    11   am
    89    18    19    1
    90   129   127   am
    91    11    12    2
    92    70    68    1
    93   162   156   am
    94   162   163    1
    95    19    22    1
    96   156   157    2
    97    78    76   ar
    98   191   194    1
    99   191   192    1
   100   147   148    1
   101    77    76   ar
   102   168   167   ar
   103    22    23    1
   104    69    68    1
   105    76    75    1
   106   127   128    2
   107   127   126    1
   108   163   164    1
   109   163   166    1
   110    68    65    1
   111    64    65    1
   112   169   167   ar
   113   167   166    1
   114   193   192    2
   115   152   151    1
   116   148   149    1
   117    67    66    2
   118   151   153    1
   119   151   150    2
   120    65    66    1
   121   164   165    2
   122   126   125    1
   123   150   149    1
   124     1     2    1
   125   175   174    1
   126    23    24    1
   127   173   172    2
   128    75    72    1
   129    25    24    1
   130    54    51    1
   131    53    52    2
   132    52    51    1
   133   170   171    1
   134   120   119    2
   135    41    42    1
   136    71    72    1
   137   172   171    1
   138   125   119   am
   139    72    73    1
   140    51    50    1
   141   174   171    1
   142   174   176    1
   143     2     5    1
   144     2     3    1
   145     6     5    1
   146     6     8    1
   147   119   118    1
   148   107   106    1
   149   107   108    1
   150     5     7    1
   151     3     4    2
   152   106   103    1
   153   109   108    1
   154    42    43    1
   155    42    45    1
   156    73    74    2
   157    73    83   am
   158   105   104    2
   159    86    85    2
   160    44    43    2
   161    45    46    1
   162   118   121    1
   163   118   117    1
   164    83    84    1
   165   103   102    1
   166   103   104    1
   167   121   122    1
   168   102    92   am
   169   104   110   am
   170    85    84    1
   171    85    90   am
   172   117   112   am
   173    99    97   ar
   174    99   100   ar
   175    97    95   ar
   176    84    87    1
   177   113   112    2
   178    92    91    1
   179    92    93    2
   180    91    90    1
   181    91    94    1
   182   112   111    1
   183    46    47    1
   184   122   123    2
   185   122   124   am
   186   110   111    1
   187   110   116    1
   188    87    89    1
   189    87    88    1
   190   101   100    1
   191    48    47    1
   192    48    49    1
   193   100    98   ar
   194   111   114    1
   195    95    94    1
   196    95    96   ar
   197   116   115    1
   198    98    96   ar
   199   114   115    1
