@<TRIPOS>MOLECULE
tmp/6egeB00.pdb
 181 171 0 0 0
SMALL
GASTEIGER

@<TRIPOS>ATOM
      1  N          8.7660  -23.1290  -62.1250 N.3    21  ILE21      -0.1245
      2  CA         8.9220  -22.9580  -63.5680 C.3    21  ILE21       0.1561
      3  C         10.3860  -23.1020  -63.9660 C.2    21  ILE21       0.2260
      4  O         10.6980  -23.6890  -65.0050 O.2    21  ILE21      -0.2867
      5  CB         8.4310  -21.5540  -64.0100 C.3    21  ILE21       0.0252
      6  CG1        6.9410  -21.3560  -63.7110 C.3    21  ILE21       0.0019
      7  CG2        8.6770  -21.3070  -65.5060 C.3    21  ILE21       0.0019
      8  CD1        6.0480  -22.4320  -64.2400 C.3    21  ILE21       0.0001
      9  N          4.2700  -21.3260  -59.9830 N.3    28  MET28      -0.1230
     10  CA         4.6220  -19.9240  -60.2060 C.3    28  MET28       0.1702
     11  C          4.7320  -19.1330  -58.9150 C.2    28  MET28       0.2592
     12  O          5.4390  -18.1240  -58.8720 O.2    28  MET28      -0.2718
     13  CB         3.5960  -19.2310  -61.0930 C.3    28  MET28       0.0401
     14  CG         3.4640  -19.8760  -62.4470 C.3    28  MET28       0.0596
     15  SD         2.5640  -18.8830  -63.6450 S.3    28  MET28      -0.1393
     16  CE         0.9120  -18.8640  -62.9480 C.3    28  MET28       0.0692
     17  N          4.0060  -19.5580  -57.8880 N.am   29  GLY29      -0.1957
     18  CA         4.0280  -18.8600  -56.6180 C.3    29  GLY29       0.1869
     19  C          3.2490  -19.6190  -55.5660 C.2    29  GLY29       0.2309
     20  O          2.5110  -20.5490  -55.8710 O.2    29  GLY29      -0.2863
     21  N         -0.0720  -21.3350  -56.7150 N.3    36  VAL36      -0.1245
     22  CA        -0.5190  -20.9070  -58.0340 C.3    36  VAL36       0.1561
     23  C          0.3530  -21.5760  -59.0800 C.2    36  VAL36       0.2260
     24  O          1.5830  -21.4780  -59.0490 O.2    36  VAL36      -0.2867
     25  CB        -0.5030  -19.3660  -58.1980 C.3    36  VAL36       0.0252
     26  CG1       -0.9810  -18.9580  -59.5940 C.3    36  VAL36       0.0019
     27  CG2       -1.3260  -18.6970  -57.0870 C.3    36  VAL36       0.0019
     28  N         -3.7710  -19.3190  -65.1030 N.3    47  ALA47      -0.1245
     29  CA        -3.2120  -19.4650  -63.7570 C.3    47  ALA47       0.1562
     30  C         -4.1940  -20.2740  -62.9410 C.2    47  ALA47       0.2260
     31  O         -5.3860  -19.9800  -62.9160 O.2    47  ALA47      -0.2867
     32  CB        -2.9570  -18.1200  -63.1140 C.3    47  ALA47       0.0290
     33  N         -5.0070  -21.5810  -59.2560 N.3    49  LYS49      -0.1245
     34  CA        -4.7290  -21.5280  -57.8370 C.3    49  LYS49       0.1561
     35  C         -5.3970  -22.7160  -57.1580 C.2    49  LYS49       0.2260
     36  O         -6.6200  -22.8540  -57.1940 O.2    49  LYS49      -0.2867
     37  CB        -5.2070  -20.2040  -57.2360 C.3    49  LYS49       0.0271
     38  CG        -4.8550  -20.0550  -55.7640 C.3    49  LYS49       0.0035
     39  CD        -5.1580  -18.6590  -55.2470 C.3    49  LYS49       0.0206
     40  CE        -6.6490  -18.4360  -55.0750 C.3    49  LYS49       0.1093
     41  NZ        -6.9370  -17.0800  -54.5250 N.3    49  LYS49      -0.1314
     42  N         -7.8830   -8.8740  -61.4240 N.3    73  VAL73      -0.1245
     43  CA        -7.6930  -10.0080  -62.3240 C.3    73  VAL73       0.1561
     44  C         -9.0080  -10.7470  -62.5760 C.2    73  VAL73       0.2260
     45  O         -9.8190  -10.8960  -61.6760 O.2    73  VAL73      -0.2867
     46  CB        -6.6870  -11.0120  -61.7920 C.3    73  VAL73       0.0252
     47  CG1       -5.3710  -10.3320  -61.5240 C.3    73  VAL73       0.0019
     48  CG2       -7.1960  -11.6680  -60.5440 C.3    73  VAL73       0.0019
     49  N         -7.6910  -18.4740  -63.3980 N.3    84  TYR84      -0.1227
     50  CA        -7.6510  -17.0500  -63.7070 C.3    84  TYR84       0.1736
     51  C         -6.9250  -16.8300  -65.0160 C.2    84  TYR84       0.2595
     52  O         -6.1210  -17.6510  -65.4440 O.2    84  TYR84      -0.2718
     53  CB        -6.8250  -16.2800  -62.6740 C.3    84  TYR84       0.0548
     54  CG        -7.2770  -16.3770  -61.2470 C.ar   84  TYR84      -0.0200
     55  CD1       -8.0430  -15.3810  -60.6780 C.ar   84  TYR84      -0.0009
     56  CD2       -6.9160  -17.4620  -60.4600 C.ar   84  TYR84      -0.0009
     57  CE1       -8.4480  -15.4580  -59.3630 C.ar   84  TYR84       0.0417
     58  CE2       -7.3160  -17.5490  -59.1480 C.ar   84  TYR84       0.0417
     59  CZ        -8.0840  -16.5440  -58.6060 C.ar   84  TYR84       0.1957
     60  OH        -8.4920  -16.6240  -57.2960 O.3    84  TYR84      -0.2866
     61  N         -7.2010  -15.6900  -65.6280 N.am   85  VAL85      -0.1966
     62  CA        -6.4260  -15.2510  -66.7620 C.3    85  VAL85       0.1727
     63  C         -4.9650  -15.1080  -66.3290 C.2    85  VAL85       0.2616
     64  O         -4.6610  -14.5700  -65.2580 O.2    85  VAL85      -0.2715
     65  CB        -6.9760  -13.9180  -67.3020 C.3    85  VAL85       0.0290
     66  CG1       -6.0890  -13.3560  -68.4240 C.3    85  VAL85       0.0023
     67  CG2       -8.4160  -14.1250  -67.7650 C.3    85  VAL85       0.0023
     68  N         -4.0780  -15.6000  -67.1770 N.am   86  TYR86      -0.1960
     69  CA        -2.6410  -15.5490  -66.9350 C.3    86  TYR86       0.1771
     70  C         -2.0900  -14.1330  -67.0660 C.2    86  TYR86       0.2619
     71  O         -2.3890  -13.4230  -68.0270 O.2    86  TYR86      -0.2715
     72  CB        -1.9580  -16.4560  -67.9300 C.3    86  TYR86       0.0574
     73  CG        -0.4510  -16.4250  -67.8920 C.ar   86  TYR86      -0.0198
     74  CD1        0.2740  -15.8440  -68.9180 C.ar   86  TYR86      -0.0009
     75  CD2        0.2480  -17.0500  -66.8690 C.ar   86  TYR86      -0.0009
     76  CE1        1.6540  -15.8340  -68.9040 C.ar   86  TYR86       0.0417
     77  CE2        1.6280  -17.0510  -66.8440 C.ar   86  TYR86       0.0417
     78  CZ         2.3290  -16.4360  -67.8580 C.ar   86  TYR86       0.1957
     79  OH         3.7070  -16.4440  -67.8630 O.3    86  TYR86      -0.2866
     80  N         -1.2610  -13.7470  -66.0990 N.am   87  MET87      -0.1964
     81  CA        -0.6820  -12.4070  -66.0480 C.3    87  MET87       0.1722
     82  C          0.8130  -12.5160  -66.3040 C.2    87  MET87       0.2458
     83  O          1.5710  -12.9110  -65.4220 O.2    87  MET87      -0.2730
     84  CB        -0.9480  -11.7850  -64.6770 C.3    87  MET87       0.0427
     85  CG        -2.4400  -11.5900  -64.3840 C.3    87  MET87       0.0599
     86  SD        -3.2060  -10.2740  -65.3370 S.3    87  MET87      -0.1393
     87  CE        -2.6480   -8.8110  -64.4850 C.3    87  MET87       0.0692
     88  N          1.2660  -12.1970  -67.5230 N.am   88  PRO88      -0.2716
     89  CA         2.6110  -12.6620  -67.8480 C.3    88  PRO88       0.1536
     90  C          3.7420  -12.0370  -67.0540 C.2    88  PRO88       0.2599
     91  O          4.7950  -12.6510  -66.9360 O.2    88  PRO88      -0.2715
     92  CB         2.7620  -12.2960  -69.3280 C.3    88  PRO88       0.0310
     93  CG         1.7390  -11.2540  -69.5770 C.3    88  PRO88       0.0237
     94  CD         0.5910  -11.6250  -68.7000 C.3    88  PRO88       0.0939
     95  N          3.5490  -10.8460  -66.5080 N.am   89  ASN89      -0.1959
     96  CA         4.6280  -10.2250  -65.7350 C.3    89  ASN89       0.1819
     97  C          4.5610  -10.5110  -64.2420 C.2    89  ASN89       0.2622
     98  O          5.3020   -9.9310  -63.4520 O.2    89  ASN89      -0.2715
     99  CB         4.7200   -8.7450  -66.0790 C.3    89  ASN89       0.1195
    100  CG         5.3950   -8.5360  -67.4150 C.2    89  ASN89       0.2630
    101  OD1        6.5010   -9.0540  -67.6500 O.2    89  ASN89      -0.2716
    102  ND2        4.7430   -7.8170  -68.3040 N.am   89  ASN89      -0.0877
    103  N          3.7310  -11.4810  -63.8820 N.am   90  GLY90      -0.1940
    104  CA         3.7280  -12.0300  -62.5440 C.3    90  GLY90       0.2014
    105  C          3.3190  -11.0110  -61.5210 C.2    90  GLY90       0.2639
    106  O          2.5430  -10.0960  -61.7780 O.2    90  GLY90      -0.2714
    107  N          3.8220  -11.1980  -60.3130 N.am   91  SER91      -0.1949
    108  CA         3.4280  -10.3360  -59.2200 C.3    91  SER91       0.1924
    109  C          4.3530   -9.1400  -59.0890 C.2    91  SER91       0.2314
    110  O          5.5300   -9.1880  -59.4910 O.2    91  SER91      -0.2863
    111  CB         3.4020  -11.0890  -57.8950 C.3    91  SER91       0.2116
    112  OG         4.7120  -11.4300  -57.4870 O.3    91  SER91      -0.2180
    113  N          7.3870  -10.1610  -57.1880 N.3    94  ASP94      -0.1225
    114  CA         8.4180  -10.8140  -57.9780 C.3    94  ASP94       0.1805
    115  C          9.1950   -9.7990  -58.8360 C.2    94  ASP94       0.2597
    116  O         10.4190   -9.9120  -58.9750 O.2    94  ASP94      -0.2718
    117  CB         7.8000  -11.9340  -58.8300 C.3    94  ASP94       0.1424
    118  CG         7.3450  -13.1450  -57.9820 C.2    94  ASP94       0.3668
    119  OD1        6.9020  -14.1480  -58.5750 O.co2  94  ASP94      -0.2456
    120  OD2        7.4540  -13.1090  -56.7420 O.co2  94  ASP94      -0.2456
    121  N          8.5200   -8.7920  -59.3750 N.am   95  ARG95      -0.1979
    122  CA         9.2130   -7.8010  -60.1890 C.3    95  ARG95       0.1597
    123  C         10.0570   -6.8470  -59.3400 C.2    95  ARG95       0.2287
    124  O         11.1320   -6.4390  -59.7600 O.2    95  ARG95      -0.2864
    125  CB         8.2360   -7.0030  -61.0390 C.3    95  ARG95       0.0334
    126  CG         7.4450   -7.8580  -62.0460 C.3    95  ARG95       0.0492
    127  CD         8.2820   -8.3550  -63.2440 C.3    95  ARG95       0.2205
    128  NE         9.2620   -9.3660  -62.8710 N.pl3  95  ARG95      -0.0865
    129  CZ         8.9840  -10.6320  -62.5660 C.cat  95  ARG95       0.5346
    130  NH1        9.9500  -11.4690  -62.2340 N.pl3  95  ARG95       0.1354
    131  NH2        7.7420  -11.0830  -62.5830 N.pl3  95  ARG95       0.1354
    132  N         13.8200  -14.1140  -61.5060 N.3   100  ASP100     -0.1239
    133  CA        13.9300  -14.7130  -62.8280 C.3   100  ASP100      0.1674
    134  C         14.5850  -13.8430  -63.8930 C.2   100  ASP100      0.2266
    135  O         14.3010  -13.9960  -65.0880 O.2   100  ASP100     -0.2867
    136  CB        12.5580  -15.1900  -63.2550 C.3   100  ASP100      0.1410
    137  CG        11.9950  -16.1870  -62.2770 C.2   100  ASP100      0.3668
    138  OD1       12.7280  -17.1340  -61.9190 O.co2 100  ASP100     -0.2456
    139  OD2       10.8500  -16.0260  -61.8340 O.co2 100  ASP100     -0.2456
    140  N         14.4840  -10.6830  -64.6290 N.3   102  THR102     -0.1218
    141  CA        13.8000   -9.5730  -65.2760 C.3   102  THR102      0.1862
    142  C         14.4590   -8.2520  -64.9330 C.2   102  THR102      0.2287
    143  O         15.1110   -8.1180  -63.8890 O.2   102  THR102     -0.2866
    144  CB        12.3070   -9.5230  -64.9200 C.3   102  THR102      0.1770
    145  OG1       12.1530   -9.4490  -63.4960 O.3   102  THR102     -0.2211
    146  CG2       11.5910  -10.7680  -65.4490 C.3   102  THR102      0.0375
    147  N          2.3950   -9.4000  -53.3380 N.3   137  ALA137     -0.1231
    148  CA         2.2240  -10.7280  -53.9300 C.3   137  ALA137      0.1694
    149  C          0.8710  -10.8870  -54.5750 C.2   137  ALA137      0.2592
    150  O          0.7110  -11.7770  -55.4030 O.2   137  ALA137     -0.2718
    151  CB         2.3870  -11.8110  -52.8920 C.3   137  ALA137      0.0304
    152  N         -0.0840  -10.0400  -54.1990 N.am  138  ASN138     -0.1974
    153  CA        -1.4430  -10.1280  -54.7150 C.3   138  ASN138      0.1688
    154  C         -1.7880   -9.0460  -55.7410 C.2   138  ASN138      0.2292
    155  O         -2.9600   -8.8570  -56.0690 O.2   138  ASN138     -0.2864
    156  CB        -2.4630  -10.0710  -53.5590 C.3   138  ASN138      0.1181
    157  CG        -2.4710  -11.3330  -52.7290 C.2   138  ASN138      0.2629
    158  OD1       -2.0160  -12.3770  -53.1790 O.2   138  ASN138     -0.2716
    159  ND2       -2.9990  -11.2500  -51.5160 N.am  138  ASN138     -0.0877
    160  N         -0.9200   -8.3130  -59.5250 N.3   140  LEU140     -0.1245
    161  CA        -0.3760   -8.9810  -60.6920 C.3   140  LEU140      0.1561
    162  C         -0.2300   -7.9740  -61.8260 C.2   140  LEU140      0.2260
    163  O         -0.8380   -6.9020  -61.8290 O.2   140  LEU140     -0.2867
    164  CB        -1.2870  -10.1460  -61.1180 C.3   140  LEU140      0.0270
    165  CG        -1.3030  -11.4130  -60.2520 C.3   140  LEU140      0.0019
    166  CD1        0.0770  -12.0650  -60.1510 C.3   140  LEU140      0.0001
    167  CD2       -1.8350  -11.1570  -58.8470 C.3   140  LEU140      0.0001
    168  N         -5.6340   -9.3180  -57.1120 N.3   150  SER150     -0.1202
    169  CA        -6.2560  -10.6340  -57.0180 C.3   150  SER150      0.2020
    170  C         -6.3390  -11.0910  -55.5780 C.2   150  SER150      0.2618
    171  O         -6.1070  -10.3120  -54.6610 O.2   150  SER150     -0.2717
    172  CB        -5.4910  -11.6760  -57.8310 C.3   150  SER150      0.2103
    173  OG        -6.3160  -12.8000  -58.0930 O.3   150  SER150     -0.2182
    174  N         -6.5990  -12.3670  -55.4160 N.am  151  ASP151     -0.1973
    175  CA        -6.6230  -13.0420  -54.1100 C.3   151  ASP151      0.1709
    176  C         -7.6890  -12.5590  -53.1450 C.2   151  ASP151      0.2293
    177  O         -7.4300  -11.8950  -52.1990 O.2   151  ASP151     -0.2864
    178  CB        -5.2530  -12.9490  -53.4910 C.3   151  ASP151      0.1436
    179  CG        -4.8130  -14.1990  -52.8570 C.2   151  ASP151      0.3671
    180  OD1       -4.2460  -15.0480  -53.5320 O.co2 151  ASP151     -0.2456
    181  OD2       -4.9890  -14.3030  -51.6570 O.co2 151  ASP151     -0.2456
@<TRIPOS>BOND
     1    93    92    1
     2    93    94    1
     3    92    89    1
     4    74    76   ar
     5    74    73   ar
     6    76    78   ar
     7    94    88    1
     8    66    65    1
     9   102   100   am
    10    71    70    2
    11    72    73    1
    12    72    69    1
    13    73    75   ar
    14    79    78    1
    15    78    77   ar
    16    89    88    1
    17    89    90    1
    18    67    65    1
    19   101   100    2
    20    88    82   am
    21   100    99    1
    22    65    62    1
    23    68    69    1
    24    68    63   am
    25    70    69    1
    26    70    80   am
    27    90    91    2
    28    90    95   am
    29    75    77   ar
    30    62    63    1
    31    62    61    1
    32    95    96    1
    33    63    64    2
    34    82    81    1
    35    82    83    2
    36    80    81    1
    37    99    96    1
    38    81    84    1
    39    96    97    1
    40    61    51   am
    41     7     5    1
    42   146   144    1
    43    52    51    2
    44    86    87    1
    45    86    85    1
    46   141   142    1
    47   141   144    1
    48   141   140    1
    49    28    29    1
    50   135   134    2
    51    51    50    1
    52     4     3    2
    53   142   143    2
    54   144   145    1
    55    84    85    1
    56    97   103   am
    57    97    98    2
    58     8     6    1
    59     5     6    1
    60     5     2    1
    61     3     2    1
    62   134   133    1
    63   103   104    1
    64    29    32    1
    65    29    30    1
    66    50    49    1
    67    50    53    1
    68    15    16    1
    69    15    14    1
    70     2     1    1
    71   136   133    1
    72   136   137    1
    73   127   128    1
    74   127   126    1
    75    30    31    2
    76   128   129    2
    77   133   132    1
    78    53    54    1
    79   131   129    1
    80    44    43    1
    81    44    45    2
    82   129   130    1
    83   104   105    1
    84    14    13    1
    85    43    46    1
    86    43    42    1
    87   137   138   ar
    88   137   139   ar
    89   126   125    1
    90   163   162    2
    91   162   161    1
    92    46    47    1
    93    46    48    1
    94   106   105    2
    95   105   107   am
    96    54    55   ar
    97    54    56   ar
    98   164   161    1
    99   164   165    1
   100    13    10    1
   101   125   122    1
   102   161   160    1
   103    55    57   ar
   104    56    58   ar
   105   107   108    1
   106   165   166    1
   107   165   167    1
   108    10     9    1
   109    10    11    1
   110   122   121    1
   111   122   123    1
   112   124   123    2
   113    26    25    1
   114   110   109    2
   115   121   115   am
   116    57    59   ar
   117    33    34    1
   118   108   109    1
   119   108   111    1
   120    58    59   ar
   121    23    24    2
   122    23    22    1
   123   116   115    2
   124    11    12    2
   125    11    17   am
   126   115   114    1
   127   117   118    1
   128   117   114    1
   129    59    60    1
   130   119   118   ar
   131    25    22    1
   132    25    27    1
   133   173   172    1
   134    22    21    1
   135   118   120   ar
   136   114   113    1
   137   111   112    1
   138    17    18    1
   139    34    37    1
   140    34    35    1
   141   172   169    1
   142    37    38    1
   143    36    35    2
   144   168   169    1
   145   169   170    1
   146    18    19    1
   147   155   154    2
   148    20    19    2
   149    38    39    1
   150   154   153    1
   151   170   174   am
   152   170   171    2
   153   174   175    1
   154   150   149    2
   155    39    40    1
   156    40    41    1
   157   153   152    1
   158   153   156    1
   159   149   152   am
   160   149   148    1
   161   175   178    1
   162   175   176    1
   163   148   147    1
   164   148   151    1
   165   156   157    1
   166   180   179   ar
   167   178   179    1
   168   158   157    2
   169   176   177    2
   170   179   181   ar
   171   157   159   am
