@<TRIPOS>MOLECULE
tmp/6egfA00.pdb
 184 173 0 0 0
SMALL
GASTEIGER

@<TRIPOS>ATOM
      1  N         75.1840  -12.0390  -19.8150 N.3    29  MET29      -0.1230
      2  CA        73.7720  -12.1790  -20.1430 C.3    29  MET29       0.1702
      3  C         72.9250  -11.0500  -19.5790 C.2    29  MET29       0.2593
      4  O         71.7910  -10.8570  -20.0310 O.2    29  MET29      -0.2718
      5  CB        73.2310  -13.5050  -19.6050 C.3    29  MET29       0.0401
      6  CG        74.0010  -14.7240  -20.0530 C.3    29  MET29       0.0596
      7  SD        73.6080  -16.1580  -19.0360 S.3    29  MET29      -0.1393
      8  CE        71.8250  -16.0580  -19.0080 C.3    29  MET29       0.0692
      9  N         73.4450  -10.3180  -18.6110 N.am   30  GLY30      -0.1942
     10  CA        72.6820   -9.3030  -17.9130 C.3    30  GLY30       0.2014
     11  C         73.1860   -9.1760  -16.4910 C.2    30  GLY30       0.2639
     12  O         74.1380   -9.8360  -16.0820 O.2    30  GLY30      -0.2714
     13  N         72.5210   -8.3040  -15.7390 N.am   31  GLU31      -0.1963
     14  CA        72.8900   -8.0850  -14.3500 C.3    31  GLU31       0.1733
     15  C         71.6480   -7.7430  -13.5430 C.2    31  GLU31       0.2617
     16  O         70.7670   -7.0200  -14.0170 O.2    31  GLU31      -0.2715
     17  CB        73.9420   -6.9770  -14.2200 C.3    31  GLU31       0.0429
     18  CG        73.5570   -5.6600  -14.8680 C.3    31  GLU31       0.1163
     19  CD        74.6950   -4.6580  -14.8570 C.2    31  GLU31       0.3649
     20  OE1       75.8630   -5.0840  -14.9770 O.co2  31  GLU31      -0.2457
     21  OE2       74.4230   -3.4470  -14.7210 O.co2  31  GLU31      -0.2457
     22  N         71.5850   -8.2740  -12.3240 N.am   32  GLY32      -0.1940
     23  CA        70.4600   -8.0320  -11.4440 C.3    32  GLY32       0.2014
     24  C         70.8800   -7.7770  -10.0120 C.2    32  GLY32       0.2639
     25  O         71.7740   -6.9660   -9.7560 O.2    32  GLY32      -0.2714
     26  N         70.2420   -8.4720   -9.0680 N.am   33  GLY33      -0.1939
     27  CA        70.5490   -8.2540   -7.6650 C.3    33  GLY33       0.2014
     28  C         71.9630   -8.6470   -7.2870 C.2    33  GLY33       0.2638
     29  O         72.5650   -8.0330   -6.4020 O.2    33  GLY33      -0.2714
     30  N         72.5150   -9.6640   -7.9480 N.am   34  PHE34      -0.1973
     31  CA        73.8570  -10.1350   -7.6280 C.3    34  PHE34       0.1639
     32  C         74.8100   -9.9230   -8.7970 C.2    34  PHE34       0.2290
     33  O         75.5610  -10.8310   -9.1670 O.2    34  PHE34      -0.2864
     34  CB        73.8220  -11.6100   -7.2260 C.3    34  PHE34       0.0560
     35  CG        73.0080  -11.8790   -5.9960 C.ar   34  PHE34      -0.0200
     36  CD1       73.5900  -11.8320   -4.7400 C.ar   34  PHE34      -0.0042
     37  CD2       71.6570  -12.1680   -6.0930 C.ar   34  PHE34      -0.0042
     38  CE1       72.8420  -12.0740   -3.6040 C.ar   34  PHE34      -0.0003
     39  CE2       70.9030  -12.4110   -4.9620 C.ar   34  PHE34      -0.0003
     40  CZ        71.4970  -12.3640   -3.7160 C.ar   34  PHE34      -0.0000
     41  N         75.4820  -11.7830  -14.7320 N.3    37  VAL37      -0.1245
     42  CA        75.2100  -13.1970  -14.9630 C.3    37  VAL37       0.1561
     43  C         75.9160  -13.6030  -16.2480 C.2    37  VAL37       0.2260
     44  O         75.7100  -12.9830  -17.2980 O.2    37  VAL37      -0.2867
     45  CB        73.7000  -13.4770  -15.0520 C.3    37  VAL37       0.0252
     46  CG1       73.4520  -14.9400  -15.3840 C.3    37  VAL37       0.0019
     47  CG2       73.0160  -13.0950  -13.7520 C.3    37  VAL37       0.0019
     48  N         74.2620  -20.8460  -16.9460 N.3    48  ALA48      -0.1245
     49  CA        74.2910  -19.4550  -16.5150 C.3    48  ALA48       0.1562
     50  C         74.9780  -19.4020  -15.1590 C.2    48  ALA48       0.2260
     51  O         74.5410  -20.0680  -14.2130 O.2    48  ALA48      -0.2867
     52  CB        72.8800  -18.8690  -16.4340 C.3    48  ALA48       0.0290
     53  N         76.3190  -17.1820  -11.8970 N.3    50  LYS50      -0.1245
     54  CA        75.9490  -15.9940  -11.1420 C.3    50  LYS50       0.1561
     55  C         76.9040  -15.8410   -9.9670 C.2    50  LYS50       0.2260
     56  O         77.0650  -16.7720   -9.1720 O.2    50  LYS50      -0.2867
     57  CB        74.5000  -16.0990  -10.6530 C.3    50  LYS50       0.0271
     58  CG        73.7710  -14.7770  -10.5130 C.3    50  LYS50       0.0035
     59  CD        72.2670  -15.0040  -10.4640 C.3    50  LYS50       0.0206
     60  CE        71.5010  -13.6930  -10.4380 C.3    50  LYS50       0.1093
     61  NZ        70.0390  -13.9080  -10.6180 N.3    50  LYS50      -0.1314
     62  N         63.9520  -23.5010  -12.3220 N.3    83  VAL83      -0.1245
     63  CA        65.2550  -23.5840  -12.9710 C.3    83  VAL83       0.1561
     64  C         66.1680  -24.4810  -12.1490 C.2    83  VAL83       0.2260
     65  O         66.3510  -24.2710  -10.9430 O.2    83  VAL83      -0.2867
     66  CB        65.8630  -22.1860  -13.1460 C.3    83  VAL83       0.0252
     67  CG1       67.2620  -22.2900  -13.7360 C.3    83  VAL83       0.0019
     68  CG2       64.9720  -21.3300  -14.0270 C.3    83  VAL83       0.0019
     69  N         73.4270  -22.3460  -12.9380 N.3    99  TYR99      -0.1227
     70  CA        72.0790  -22.7320  -13.3200 C.3    99  TYR99       0.1736
     71  C         72.0690  -23.2660  -14.7470 C.2    99  TYR99       0.2595
     72  O         72.9980  -23.0390  -15.5270 O.2    99  TYR99      -0.2718
     73  CB        71.1100  -21.5490  -13.2090 C.3    99  TYR99       0.0548
     74  CG        70.8510  -21.0800  -11.7960 C.ar   99  TYR99      -0.0200
     75  CD1       69.8640  -21.6720  -11.0180 C.ar   99  TYR99      -0.0009
     76  CD2       71.5840  -20.0370  -11.2440 C.ar   99  TYR99      -0.0009
     77  CE1       69.6190  -21.2440   -9.7280 C.ar   99  TYR99       0.0417
     78  CE2       71.3470  -19.6010   -9.9530 C.ar   99  TYR99       0.0417
     79  CZ        70.3630  -20.2080   -9.2000 C.ar   99  TYR99       0.1957
     80  OH        70.1210  -19.7790   -7.9140 O.3    99  TYR99      -0.2866
     81  N         70.9980  -23.9850  -15.0800 N.am  100  VAL100     -0.1966
     82  CA        70.7880  -24.4150  -16.4560 C.3   100  VAL100      0.1727
     83  C         70.3800  -23.2140  -17.2960 C.2   100  VAL100      0.2616
     84  O         69.4930  -22.4390  -16.9110 O.2   100  VAL100     -0.2715
     85  CB        69.7300  -25.5250  -16.5220 C.3   100  VAL100      0.0290
     86  CG1       69.4920  -25.9430  -17.9670 C.3   100  VAL100      0.0023
     87  CG2       70.1570  -26.7160  -15.6830 C.3   100  VAL100      0.0023
     88  N         71.0300  -23.0480  -18.4440 N.am  101  TYR101     -0.1960
     89  CA        70.6880  -21.9540  -19.3410 C.3   101  TYR101      0.1771
     90  C         69.3450  -22.2260  -20.0080 C.2   101  TYR101      0.2619
     91  O         69.1210  -23.3070  -20.5620 O.2   101  TYR101     -0.2715
     92  CB        71.7810  -21.7750  -20.3940 C.3   101  TYR101      0.0574
     93  CG        71.5610  -20.6120  -21.3340 C.ar  101  TYR101     -0.0198
     94  CD1       71.0420  -20.8110  -22.6080 C.ar  101  TYR101     -0.0009
     95  CD2       71.8780  -19.3150  -20.9510 C.ar  101  TYR101     -0.0009
     96  CE1       70.8440  -19.7490  -23.4720 C.ar  101  TYR101      0.0417
     97  CE2       71.6840  -18.2480  -21.8080 C.ar  101  TYR101      0.0417
     98  CZ        71.1670  -18.4700  -23.0660 C.ar  101  TYR101      0.1957
     99  OH        70.9710  -17.4090  -23.9200 O.3   101  TYR101     -0.2866
    100  N         68.4450  -21.2470  -19.9410 N.am  102  MET102     -0.1977
    101  CA        67.1480  -21.3610  -20.5870 C.3   102  MET102      0.1605
    102  C         67.2190  -20.6900  -21.9490 C.2   102  MET102      0.2287
    103  O         67.3400  -19.4570  -22.0170 O.2   102  MET102     -0.2864
    104  CB        66.0580  -20.7270  -19.7270 C.3   102  MET102      0.0413
    105  CG        65.8200  -21.4750  -18.4230 C.3   102  MET102      0.0598
    106  SD        65.3730  -23.1990  -18.7050 S.3   102  MET102     -0.1393
    107  CE        66.3650  -24.0210  -17.4640 C.3   102  MET102      0.0692
    108  N         65.1300  -17.5130  -22.8920 N.3   105  GLY105     -0.1210
    109  CA        65.2030  -16.3350  -22.0510 C.3   105  GLY105      0.1956
    110  C         64.0450  -16.2150  -21.0710 C.2   105  GLY105      0.2612
    111  O         63.3870  -17.1920  -20.7020 O.2   105  GLY105     -0.2717
    112  N         63.8030  -14.9780  -20.6520 N.am  106  SER106     -0.1952
    113  CA        62.7770  -14.6860  -19.6640 C.3   106  SER106      0.1924
    114  C         61.4560  -14.3280  -20.3360 C.2   106  SER106      0.2314
    115  O         61.4100  -13.8960  -21.4910 O.2   106  SER106     -0.2863
    116  CB        63.2120  -13.5390  -18.7530 C.3   106  SER106      0.2116
    117  OG        62.9900  -12.2870  -19.3780 O.3   106  SER106     -0.2180
    118  N         61.4900  -10.7630  -21.6410 N.3   109  ASP109     -0.1239
    119  CA        62.0550  -10.5070  -22.9620 C.3   109  ASP109      0.1674
    120  C         61.0990  -10.9330  -24.0700 C.2   109  ASP109      0.2266
    121  O         61.0010  -10.2640  -25.1050 O.2   109  ASP109     -0.2867
    122  CB        63.3960  -11.2240  -23.1150 C.3   109  ASP109      0.1410
    123  CG        64.3580  -10.9120  -21.9880 C.2   109  ASP109      0.3668
    124  OD1       64.5590  -11.7860  -21.1190 O.co2 109  ASP109     -0.2456
    125  OD2       64.9080   -9.7920  -21.9660 O.co2 109  ASP109     -0.2456
    126  N         60.5810  -12.6910   -4.8440 N.3   148  ASN148     -0.1240
    127  CA        61.0170  -11.8700   -5.9700 C.3   148  ASN148      0.1653
    128  C         60.3910  -12.3880   -7.2650 C.2   148  ASN148      0.2266
    129  O         61.0730  -12.6350   -8.2610 O.2   148  ASN148     -0.2867
    130  CB        62.5440  -11.8350   -6.0540 C.3   148  ASN148      0.1155
    131  CG        63.0540  -10.7440   -6.9770 C.2   148  ASN148      0.2627
    132  OD1       62.3340   -9.7980   -7.3010 O.2   148  ASN148     -0.2716
    133  ND2       64.3050  -10.8700   -7.4060 N.am  148  ASN148     -0.0877
    134  N         58.6610  -12.0590  -10.6600 N.3   150  LYS150     -0.1245
    135  CA        58.5200  -11.0810  -11.7310 C.3   150  LYS150      0.1561
    136  C         58.8020  -11.7830  -13.0510 C.2   150  LYS150      0.2260
    137  O         59.3720  -12.8780  -13.0790 O.2   150  LYS150     -0.2867
    138  CB        59.4550   -9.8810  -11.5370 C.3   150  LYS150      0.0271
    139  CG        60.9110  -10.2440  -11.3010 C.3   150  LYS150      0.0035
    140  CD        61.7520   -8.9970  -11.0750 C.3   150  LYS150      0.0206
    141  CE        63.2040   -9.3480  -10.8020 C.3   150  LYS150      0.1093
    142  NZ        64.0470   -8.1330  -10.6240 N.3   150  LYS150     -0.1314
    143  N         60.9140  -11.2100  -15.2610 N.3   152  ALA152     -0.1231
    144  CA        62.3350  -11.4460  -15.4840 C.3   152  ALA152      0.1694
    145  C         62.8250  -12.7120  -14.7940 C.2   152  ALA152      0.2592
    146  O         63.8550  -13.2620  -15.1980 O.2   152  ALA152     -0.2718
    147  CB        63.1510  -10.2450  -15.0040 C.3   152  ALA152      0.0304
    148  N         62.1210  -13.1790  -13.7630 N.am  153  ASN153     -0.1974
    149  CA        62.4800  -14.4000  -13.0570 C.3   153  ASN153      0.1688
    150  C         61.6160  -15.5860  -13.4630 C.2   153  ASN153      0.2292
    151  O         61.6420  -16.6210  -12.7900 O.2   153  ASN153     -0.2864
    152  CB        62.4000  -14.1840  -11.5440 C.3   153  ASN153      0.1181
    153  CG        63.5030  -13.2830  -11.0280 C.2   153  ASN153      0.2629
    154  OD1       64.4940  -13.0420  -11.7160 O.2   153  ASN153     -0.2716
    155  ND2       63.3410  -12.7860   -9.8070 N.am  153  ASN153     -0.0877
    156  N         61.5790  -17.9170  -16.5280 N.3   155  LEU155     -0.1245
    157  CA        62.3420  -18.2660  -17.7150 C.3   155  LEU155      0.1561
    158  C         61.6000  -19.3150  -18.5380 C.2   155  LEU155      0.2260
    159  O         60.6570  -19.9600  -18.0740 O.2   155  LEU155     -0.2867
    160  CB        63.7320  -18.7700  -17.3220 C.3   155  LEU155      0.0270
    161  CG        64.5090  -17.8600  -16.3680 C.3   155  LEU155      0.0019
    162  CD1       65.8660  -18.4560  -16.0640 C.3   155  LEU155      0.0001
    163  CD2       64.6520  -16.4570  -16.9400 C.3   155  LEU155      0.0001
    164  N         62.9680  -18.8100  -11.6890 N.3   165  SER165     -0.1202
    165  CA        64.3880  -18.6980  -11.3980 C.3   165  SER165      0.2020
    166  C         64.6130  -17.8650  -10.1430 C.2   165  SER165      0.2618
    167  O         63.7060  -17.2040   -9.6280 O.2   165  SER165     -0.2717
    168  CB        65.1470  -18.0730  -12.5750 C.3   165  SER165      0.2103
    169  OG        64.9380  -16.6740  -12.6320 O.3   165  SER165     -0.2182
    170  N         65.8530  -17.9200   -9.6540 N.am  166  ASP166     -0.1973
    171  CA        66.3390  -17.0470   -8.5860 C.3   166  ASP166      0.1709
    172  C         65.6050  -17.2660   -7.2660 C.2   166  ASP166      0.2293
    173  O         65.5040  -16.3500   -6.4470 O.2   166  ASP166     -0.2864
    174  CB        66.2600  -15.5730   -8.9950 C.3   166  ASP166      0.1436
    175  CG        67.2070  -15.2330  -10.1260 C.2   166  ASP166      0.3671
    176  OD1       68.2130  -15.9520  -10.3000 O.co2 166  ASP166     -0.2456
    177  OD2       66.9480  -14.2430  -10.8390 O.co2 166  ASP166     -0.2456
    178  N         62.7890   -2.7120   -7.9650 N.3   176  THR176     -0.1218
    179  CA        61.8970   -3.8050   -8.3360 C.3   176  THR176      0.1862
    180  C         60.5900   -3.7180   -7.5490 C.2   176  THR176      0.2287
    181  O         59.9560   -4.7310   -7.2520 O.2   176  THR176     -0.2866
    182  CB        62.5600   -5.1800   -8.1010 C.3   176  THR176      0.1770
    183  OG1       61.6460   -6.2260   -8.4540 O.3   176  THR176     -0.2211
    184  CG2       62.9810   -5.3330   -6.6420 C.3   176  THR176      0.0375
@<TRIPOS>BOND
     1   121   120    2
     2   120   119    1
     3    99    98    1
     4    96    98   ar
     5    96    94   ar
     6   122   119    1
     7   122   123    1
     8    98    97   ar
     9   119   118    1
    10   108   109    1
    11    94    93   ar
    12   109   110    1
    13   103   102    2
    14   123   125   ar
    15   123   124   ar
    16   102   101    1
    17    97    95   ar
    18   115   114    2
    19    93    95   ar
    20    93    92    1
    21   110   111    2
    22   110   112   am
    23   112   113    1
    24   101   100    1
    25   101   104    1
    26    91    90    2
    27    92    89    1
    28   114   113    1
    29     2     1    1
    30     2     5    1
    31     2     3    1
    32     6     5    1
    33     6     7    1
    34     4     3    2
    35    90   100   am
    36    90    89    1
    37   104   105    1
    38   113   116    1
    39     3     9   am
    40   117   116    1
    41    89    88    1
    42     7     8    1
    43   106   105    1
    44   106   107    1
    45     9    10    1
    46   158   159    2
    47   158   157    1
    48    88    83   am
    49    86    85    1
    50    10    11    1
    51   157   160    1
    52   157   156    1
    53   160   161    1
    54    44    43    2
    55    83    84    2
    56    83    82    1
    57    48    49    1
    58   163   161    1
    59    85    82    1
    60    85    87    1
    61    49    52    1
    62    49    50    1
    63    11    12    2
    64    11    13   am
    65    82    81    1
    66   161   162    1
    67    43    42    1
    68    13    14    1
    69    72    71    2
    70   144   143    1
    71   144   147    1
    72   144   145    1
    73    46    45    1
    74   146   145    2
    75    50    51    2
    76    81    71   am
    77    45    42    1
    78    45    47    1
    79    20    19   ar
    80    42    41    1
    81    18    19    1
    82    18    17    1
    83    19    21   ar
    84   145   148   am
    85    71    70    1
    86    14    17    1
    87    14    15    1
    88    68    66    1
    89    16    15    2
    90   148   149    1
    91    67    66    1
    92    15    22   am
    93   150   149    1
    94   150   151    2
    95    70    73    1
    96    70    69    1
    97    73    74    1
    98    66    63    1
    99   137   136    2
   100   149   152    1
   101   136   135    1
   102    63    62    1
   103    63    64    1
   104   169   168    1
   105   168   165    1
   106    22    23    1
   107    64    65    2
   108    53    54    1
   109    74    76   ar
   110    74    75   ar
   111   135   138    1
   112   135   134    1
   113   154   153    2
   114   164   165    1
   115   152   153    1
   116   138   139    1
   117    23    24    1
   118   165   166    1
   119   139   140    1
   120    76    78   ar
   121    54    57    1
   122    54    55    1
   123   140   141    1
   124   153   155   am
   125    75    77   ar
   126   177   175   ar
   127   141   142    1
   128    57    58    1
   129    61    60    1
   130    58    59    1
   131    59    60    1
   132   176   175   ar
   133   166   170   am
   134   166   167    2
   135   175   174    1
   136    24    25    2
   137    24    26   am
   138    55    56    2
   139    78    79   ar
   140    77    79   ar
   141   170   171    1
   142    79    80    1
   143    33    32    2
   144    26    27    1
   145   174   171    1
   146    32    31    1
   147   171   172    1
   148   183   182    1
   149   179   182    1
   150   179   178    1
   151   179   180    1
   152   129   128    2
   153   182   184    1
   154    30    31    1
   155    30    28   am
   156    27    28    1
   157    31    34    1
   158   180   181    2
   159   133   131   am
   160   132   131    2
   161    28    29    2
   162   172   173    2
   163   128   127    1
   164    34    35    1
   165   131   130    1
   166    37    35   ar
   167    37    39   ar
   168   130   127    1
   169    35    36   ar
   170   127   126    1
   171    39    40   ar
   172    36    38   ar
   173    40    38   ar
