@<TRIPOS>MOLECULE
tmp/6eguA01.pdb
 103 103 0 0 0
SMALL
GASTEIGER

@<TRIPOS>ATOM
      1  N         25.3930   -7.9900   52.1380 N.3    82  ARG82      -0.1231
      2  CA        25.9220   -6.7710   52.7280 C.3    82  ARG82       0.1694
      3  C         24.9420   -5.6190   52.5490 C.2    82  ARG82       0.2592
      4  O         24.4380   -5.3830   51.4510 O.2    82  ARG82      -0.2718
      5  CB        27.2760   -6.4180   52.1100 C.3    82  ARG82       0.0321
      6  CG        27.8720   -5.1260   52.6410 C.3    82  ARG82       0.0489
      7  CD        29.2820   -4.9050   52.1290 C.3    82  ARG82       0.2205
      8  NE        29.3060   -4.5420   50.7180 N.pl3  82  ARG82      -0.0865
      9  CZ        29.3530   -3.2910   50.2710 C.cat  82  ARG82       0.5346
     10  NH1       29.3810   -2.2790   51.1290 N.pl3  82  ARG82       0.1354
     11  NH2       29.3720   -3.0530   48.9690 N.pl3  82  ARG82       0.1354
     12  N         24.6560   -4.9110   53.6340 N.am   83  ARG83      -0.1966
     13  CA        23.8500   -3.6970   53.5470 C.3    83  ARG83       0.1729
     14  C         24.6890   -2.4910   53.9510 C.2    83  ARG83       0.2616
     15  O         25.6030   -2.6080   54.7680 O.2    83  ARG83      -0.2715
     16  CB        22.6020   -3.7850   54.4350 C.3    83  ARG83       0.0348
     17  CG        21.7340   -5.0250   54.2230 C.3    83  ARG83       0.0492
     18  CD        21.4480   -5.2960   52.7530 C.3    83  ARG83       0.2205
     19  NE        20.7040   -4.2200   52.1020 N.pl3  83  ARG83      -0.0865
     20  CZ        19.3760   -4.1430   52.0650 C.cat  83  ARG83       0.5346
     21  NH1       18.7850   -3.1320   51.4410 N.pl3  83  ARG83       0.1354
     22  NH2       18.6370   -5.0720   52.6550 N.pl3  83  ARG83       0.1354
     23  N         24.3740   -1.3380   53.3690 N.am   84  CYS84      -0.1954
     24  CA        24.9950   -0.0760   53.7530 C.3    84  CYS84       0.1843
     25  C         24.5740    0.3210   55.1570 C.2    84  CYS84       0.2625
     26  O         23.5760   -0.1840   55.6730 O.2    84  CYS84      -0.2714
     27  CB        24.6180    1.0340   52.7700 C.3    84  CYS84       0.0997
     28  SG        25.2240    0.7870   51.1010 S.3    84  CYS84      -0.0797
     29  N         25.3270    1.2310   55.7700 N.am   85  HIS85      -0.1959
     30  CA        24.9720    1.7440   57.0890 C.3    85  HIS85       0.1787
     31  C         23.6240    2.4440   57.0020 C.2    85  HIS85       0.2620
     32  O         23.3160    3.0540   55.9790 O.2    85  HIS85      -0.2715
     33  CB        26.0410    2.7020   57.6210 C.3    85  HIS85       0.0785
     34  CG        25.9900    2.8980   59.1050 C.ar   85  HIS85       0.0821
     35  ND1       26.5740    2.0190   59.9920 N.ar   85  HIS85      -0.2267
     36  CD2       25.4190    3.8680   59.8590 C.ar   85  HIS85       0.1154
     37  CE1       26.3680    2.4410   61.2280 C.ar   85  HIS85       0.1986
     38  NE2       25.6680    3.5600   61.1750 N.ar   85  HIS85      -0.2212
     39  N         22.8340    2.3250   58.0710 N.am   86  LEU86      -0.1963
     40  CA        21.4670    2.8550   58.1620 C.3    86  LEU86       0.1728
     41  C         20.4570    2.1040   57.2950 C.2    86  LEU86       0.2616
     42  O         19.2880    2.4730   57.2490 O.2    86  LEU86      -0.2715
     43  CB        21.4190    4.3370   57.7950 C.3    86  LEU86       0.0311
     44  CG        22.2390    5.2990   58.6430 C.3    86  LEU86       0.0022
     45  CD1       21.7630    6.7190   58.3680 C.3    86  LEU86       0.0001
     46  CD2       22.1260    4.9530   60.1190 C.3    86  LEU86       0.0001
     47  N         20.9020    1.0560   56.6110 N.am   87  VAL87      -0.1977
     48  CA        19.9920    0.2330   55.8250 C.3    87  VAL87       0.1596
     49  C         19.7430   -1.1050   56.5160 C.2    87  VAL87       0.2287
     50  O         20.6760   -1.7480   56.9890 O.2    87  VAL87      -0.2864
     51  CB        20.5330   -0.0230   54.4060 C.3    87  VAL87       0.0276
     52  CG1       19.4680   -0.6790   53.5480 C.3    87  VAL87       0.0022
     53  CG2       20.9870    1.2740   53.7780 C.3    87  VAL87       0.0022
     54  N         32.3060    1.8000   47.9870 N.3   130  CYS130     -0.1221
     55  CA        31.6670    0.5380   48.3330 C.3   130  CYS130      0.1808
     56  C         30.1590    0.6060   48.1160 C.2   130  CYS130      0.2602
     57  O         29.3930   -0.1180   48.7500 O.2   130  CYS130     -0.2717
     58  CB        31.9850    0.1610   49.7780 C.3   130  CYS130      0.0970
     59  SG        33.7520   -0.0630   50.0830 S.3   130  CYS130     -0.0800
     60  N         29.7420    1.4900   47.2160 N.am  131  GLY131     -0.1942
     61  CA        28.3570    1.5590   46.7920 C.3   131  GLY131      0.2014
     62  C         27.3870    2.0650   47.8410 C.2   131  GLY131      0.2639
     63  O         26.2250    1.6610   47.8520 O.2   131  GLY131     -0.2714
     64  N         27.8590    2.9530   48.7150 N.am  132  CYS132     -0.1953
     65  CA        27.0160    3.5300   49.7640 C.3   132  CYS132      0.1843
     66  C         27.1480    5.0500   49.8300 C.2   132  CYS132      0.2625
     67  O         28.2500    5.5810   49.7770 O.2   132  CYS132     -0.2714
     68  CB        27.3730    2.9370   51.1340 C.3   132  CYS132      0.0997
     69  SG        27.2100    1.1420   51.3020 S.3   132  CYS132     -0.0797
     70  N         26.0290    5.7520   49.9650 N.am  133  PHE133     -0.1960
     71  CA        26.0800    7.1900   50.2230 C.3   133  PHE133      0.1771
     72  C         26.6330    7.4790   51.6200 C.2   133  PHE133      0.2619
     73  O         27.3720    8.4480   51.8180 O.2   133  PHE133     -0.2715
     74  CB        24.6970    7.8200   50.0660 C.3   133  PHE133      0.0574
     75  CG        24.3420    8.1420   48.6470 C.ar  133  PHE133     -0.0200
     76  CD1       25.1510    8.9800   47.8940 C.ar  133  PHE133     -0.0042
     77  CD2       23.2040    7.6100   48.0610 C.ar  133  PHE133     -0.0042
     78  CE1       24.8330    9.2810   46.5850 C.ar  133  PHE133     -0.0003
     79  CE2       22.8810    7.9090   46.7520 C.ar  133  PHE133     -0.0003
     80  CZ        23.6940    8.7490   46.0160 C.ar  133  PHE133     -0.0000
     81  N         26.2710    6.6330   52.5810 N.am  134  ASN134     -0.1972
     82  CA        26.7280    6.7790   53.9590 C.3   134  ASN134      0.1688
     83  C         28.1690    6.2860   54.1100 C.2   134  ASN134      0.2292
     84  O         28.5350    5.2330   53.5770 O.2   134  ASN134     -0.2864
     85  CB        25.7900    6.0200   54.9040 C.3   134  ASN134      0.1181
     86  CG        25.9690    6.4180   56.3600 C.2   134  ASN134      0.2629
     87  OD1       27.0090    6.1540   56.9640 O.2   134  ASN134     -0.2716
     88  ND2       24.9450    7.0420   56.9350 N.am  134  ASN134     -0.0877
     89  N         31.7360   -7.6320   48.9920 N.3   268  ASP268     -0.1239
     90  CA        30.5350   -8.3160   48.5090 C.3   268  ASP268      0.1674
     91  C         30.7810   -9.8000   48.2420 C.2   268  ASP268      0.2266
     92  O         29.8520  -10.5400   47.9230 O.2   268  ASP268     -0.2867
     93  CB        29.9960   -7.6400   47.2490 C.3   268  ASP268      0.1410
     94  CG        29.3710   -6.2840   47.5390 C.2   268  ASP268      0.3668
     95  OD1       28.5740   -6.1860   48.4980 O.co2 268  ASP268     -0.2456
     96  OD2       29.6870   -5.3200   46.8130 O.co2 268  ASP268     -0.2456
     97  N         19.6280   -7.9210   47.9580 N.3   442  PRO442     -0.2116
     98  CA        18.9700   -7.1580   49.0260 C.3   442  PRO442      0.1372
     99  C         17.4480   -7.1100   48.8790 C.2   442  PRO442      0.2244
    100  O         16.9360   -6.9740   47.7660 O.2   442  PRO442     -0.2868
    101  CB        19.5780   -5.7560   48.8820 C.3   442  PRO442      0.0268
    102  CG        20.1190   -5.7050   47.4870 C.3   442  PRO442      0.0207
    103  CD        20.5830   -7.0960   47.1990 C.3   442  PRO442      0.0892
@<TRIPOS>BOND
     1    80    78   ar
     2    80    79   ar
     3    78    76   ar
     4    79    77   ar
     5    61    60    1
     6    61    62    1
     7    96    94   ar
     8   103   102    1
     9   103    97    1
    10    60    56   am
    11    93    94    1
    12    93    90    1
    13   102   101    1
    14    94    95   ar
    15   100    99    2
    16    62    63    2
    17    62    64   am
    18    76    75   ar
    19    92    91    2
    20    97    98    1
    21    54    55    1
    22    77    75   ar
    23    56    55    1
    24    56    57    2
    25    91    90    1
    26    55    58    1
    27    90    89    1
    28    75    74    1
    29    64    65    1
    30    99    98    1
    31   101    98    1
    32    11     9    1
    33    65    66    1
    34    65    68    1
    35    67    66    2
    36    58    59    1
    37    66    70   am
    38    70    71    1
    39    74    71    1
    40    71    72    1
    41     9     8    2
    42     9    10    1
    43     8     7    1
    44    28    69    1
    45    28    27    1
    46    68    69    1
    47    21    20    1
    48     4     3    2
    49    72    73    2
    50    72    81   am
    51    20    19    2
    52    20    22    1
    53    19    18    1
    54     5     6    1
    55     5     2    1
    56     7     6    1
    57     1     2    1
    58     3     2    1
    59     3    12   am
    60    81    82    1
    61    18    17    1
    62    27    24    1
    63    23    24    1
    64    23    14   am
    65    13    12    1
    66    13    14    1
    67    13    16    1
    68    52    51    1
    69    84    83    2
    70    24    25    1
    71    53    51    1
    72    14    15    2
    73    82    83    1
    74    82    85    1
    75    17    16    1
    76    51    48    1
    77    85    86    1
    78    25    26    2
    79    25    29   am
    80    29    30    1
    81    48    49    1
    82    48    47    1
    83    32    31    2
    84    86    88   am
    85    86    87    2
    86    49    50    2
    87    47    41   am
    88    31    30    1
    89    31    39   am
    90    30    33    1
    91    42    41    2
    92    41    40    1
    93    33    34    1
    94    43    40    1
    95    43    44    1
    96    39    40    1
    97    45    44    1
    98    44    46    1
    99    34    36   ar
   100    34    35   ar
   101    36    38   ar
   102    35    37   ar
   103    38    37   ar
