@<TRIPOS>MOLECULE
tmp/6eguB01.pdb
 98 97 0 0 0
SMALL
GASTEIGER

@<TRIPOS>ATOM
      1  N         35.9960    4.0030   75.9630 N.3    81  ARG81      -0.1231
      2  CA        36.2850    4.4370   74.6040 C.3    81  ARG81       0.1694
      3  C         36.6140    5.9240   74.5510 C.2    81  ARG81       0.2592
      4  O         35.9180    6.7470   75.1470 O.2    81  ARG81      -0.2718
      5  CB        35.1140    4.1340   73.6690 C.3    81  ARG81       0.0321
      6  CG        35.4180    4.4400   72.2090 C.3    81  ARG81       0.0489
      7  CD        34.3480    3.8920   71.2870 C.3    81  ARG81       0.2205
      8  NE        33.1150    4.6680   71.3500 N.pl3  81  ARG81      -0.0865
      9  CZ        32.7740    5.5990   70.4650 C.cat  81  ARG81       0.5346
     10  NH1       33.5730    5.8720   69.4410 N.pl3  81  ARG81       0.1354
     11  NH2       31.6310    6.2570   70.6040 N.pl3  81  ARG81       0.1354
     12  N         37.6840    6.2620   73.8400 N.am   82  ARG82      -0.1966
     13  CA        38.0440    7.6590   73.6320 C.3    82  ARG82       0.1729
     14  C         38.1060    7.9660   72.1500 C.2    82  ARG82       0.2616
     15  O         38.5080    7.1230   71.3520 O.2    82  ARG82      -0.2715
     16  CB        39.3830    7.9880   74.2860 C.3    82  ARG82       0.0348
     17  CG        39.4290    7.6980   75.7640 C.3    82  ARG82       0.0492
     18  CD        39.8530    8.9250   76.5340 C.3    82  ARG82       0.2205
     19  NE        38.7950    9.9230   76.6320 N.pl3  82  ARG82      -0.0865
     20  CZ        38.8170   10.9430   77.4830 C.cat  82  ARG82       0.5346
     21  NH1       37.8160   11.8120   77.5090 N.pl3  82  ARG82       0.1354
     22  NH2       39.8400   11.0910   78.3150 N.pl3  82  ARG82       0.1354
     23  N         37.7080    9.1790   71.7860 N.am   83  CYS83      -0.1954
     24  CA        37.7610    9.5990   70.3990 C.3    83  CYS83       0.1843
     25  C         39.2030    9.7750   69.9530 C.2    83  CYS83       0.2625
     26  O         40.1100    9.8890   70.7790 O.2    83  CYS83      -0.2714
     27  CB        36.9850   10.8970   70.1980 C.3    83  CYS83       0.0997
     28  SG        35.2210   10.7580   70.5330 S.3    83  CYS83      -0.0797
     29  N         39.4100    9.7860   68.6420 N.am   84  HIS84      -0.1959
     30  CA        40.7320   10.0150   68.0920 C.3    84  HIS84       0.1787
     31  C         41.1890   11.4330   68.4300 C.2    84  HIS84       0.2620
     32  O         40.3680   12.3470   68.5110 O.2    84  HIS84      -0.2715
     33  CB        40.7330    9.7860   66.5830 C.3    84  HIS84       0.0785
     34  CG        42.0820    9.4580   66.0310 C.ar   84  HIS84       0.0821
     35  ND1       42.5750    8.1710   65.9920 N.ar   84  HIS84      -0.2267
     36  CD2       43.0520   10.2500   65.5150 C.ar   84  HIS84       0.1154
     37  CE1       43.7870    8.1840   65.4670 C.ar   84  HIS84       0.1986
     38  NE2       44.1000    9.4340   65.1700 N.ar   84  HIS84      -0.2212
     39  N         42.4970   11.5910   68.6390 N.am   85  LEU85      -0.1963
     40  CA        43.1180   12.8480   69.0740 C.3    85  LEU85       0.1728
     41  C         42.7110   13.2380   70.4970 C.2    85  LEU85       0.2616
     42  O         42.9150   14.3760   70.9200 O.2    85  LEU85      -0.2715
     43  CB        42.7900   13.9960   68.1110 C.3    85  LEU85       0.0311
     44  CG        43.3270   13.9180   66.6820 C.3    85  LEU85       0.0022
     45  CD1       43.2540   15.2890   66.0250 C.3    85  LEU85       0.0001
     46  CD2       44.7460   13.3840   66.6640 C.3    85  LEU85       0.0001
     47  N         42.1480   12.2840   71.2300 N.am   86  VAL86      -0.1977
     48  CA        41.7650   12.4860   72.6220 C.3    86  VAL86       0.1596
     49  C         42.4880   11.4770   73.5080 C.2    86  VAL86       0.2287
     50  O         42.4780   10.2790   73.2210 O.2    86  VAL86      -0.2864
     51  CB        40.2430   12.3360   72.8220 C.3    86  VAL86       0.0276
     52  CG1       39.8790   12.4300   74.2960 C.3    86  VAL86       0.0022
     53  CG2       39.4910   13.3680   72.0060 C.3    86  VAL86       0.0022
     54  N         29.7230    9.4430   68.1580 N.3   130  GLY130     -0.1210
     55  CA        29.9630   10.4080   69.2140 C.3   130  GLY130      0.1956
     56  C         31.3240   11.0760   69.1900 C.2   130  GLY130      0.2612
     57  O         31.8060   11.5400   70.2220 O.2   130  GLY130     -0.2717
     58  N         31.9490   11.1400   68.0210 N.am  131  CYS131     -0.1956
     59  CA        33.2430   11.8000   67.9170 C.3   131  CYS131      0.1843
     60  C         33.2480   12.8410   66.8030 C.2   131  CYS131      0.2625
     61  O         32.6660   12.6300   65.7430 O.2   131  CYS131     -0.2714
     62  CB        34.3500   10.7690   67.6900 C.3   131  CYS131      0.0997
     63  SG        34.5190    9.5650   69.0420 S.3   131  CYS131     -0.0797
     64  N         33.8890   13.9770   67.0520 N.am  132  PHE132     -0.1960
     65  CA        34.0360   14.9820   66.0130 C.3   132  PHE132      0.1771
     66  C         35.0250   14.4820   64.9700 C.2   132  PHE132      0.2619
     67  O         34.7680   14.5500   63.7690 O.2   132  PHE132     -0.2715
     68  CB        34.4950   16.3210   66.5950 C.3   132  PHE132      0.0574
     69  CG        34.7620   17.3700   65.5540 C.ar  132  PHE132     -0.0200
     70  CD1       33.7290   17.8760   64.7800 C.ar  132  PHE132     -0.0042
     71  CD2       36.0480   17.8480   65.3440 C.ar  132  PHE132     -0.0042
     72  CE1       33.9720   18.8410   63.8180 C.ar  132  PHE132     -0.0003
     73  CE2       36.2970   18.8140   64.3850 C.ar  132  PHE132     -0.0003
     74  CZ        35.2570   19.3110   63.6200 C.ar  132  PHE132     -0.0000
     75  N         36.1530   13.9670   65.4470 N.am  133  ASN133     -0.1972
     76  CA        37.1750   13.3970   64.5790 C.3   133  ASN133      0.1688
     77  C         36.6750   12.1360   63.8720 C.2   133  ASN133      0.2292
     78  O         36.0450   11.2790   64.4930 O.2   133  ASN133     -0.2864
     79  CB        38.4330   13.0870   65.3900 C.3   133  ASN133      0.1181
     80  CG        39.6660   12.9760   64.5250 C.2   133  ASN133      0.2629
     81  OD1       39.7850   12.0610   63.7110 O.2   133  ASN133     -0.2716
     82  ND2       40.5970   13.9050   64.6980 N.am  133  ASN133     -0.0877
     83  N         30.6070    1.2490   72.5570 N.3   267  ASP267     -0.1239
     84  CA        30.7330    1.6350   73.9600 C.3   267  ASP267      0.1674
     85  C         30.4370    0.4740   74.9040 C.2   267  ASP267      0.2266
     86  O         30.7020    0.5510   76.1060 O.2   267  ASP267     -0.2867
     87  CB        29.8230    2.8200   74.2670 C.3   267  ASP267      0.1410
     88  CG        30.3490    4.1100   73.6790 C.2   267  ASP267      0.3668
     89  OD1       31.5850    4.3000   73.6840 O.co2 267  ASP267     -0.2456
     90  OD2       29.5340    4.9240   73.1980 O.co2 267  ASP267     -0.2456
     91  N         33.1540    6.0760   83.0130 N.3   440  ASN440     -0.1240
     92  CA        32.5050    7.3310   82.6230 C.3   440  ASN440      0.1653
     93  C         31.4470    7.1490   81.5360 C.2   440  ASN440      0.2266
     94  O         31.0380    8.1110   80.8830 O.2   440  ASN440     -0.2867
     95  CB        33.5510    8.3520   82.1600 C.3   440  ASN440      0.1155
     96  CG        34.2560    9.0340   83.3200 C.2   440  ASN440      0.2627
     97  OD1       34.1400    8.6080   84.4690 O.2   440  ASN440     -0.2716
     98  ND2       34.9920   10.1000   83.0220 N.am  440  ASN440     -0.0877
@<TRIPOS>BOND
     1    74    72   ar
     2    74    73   ar
     3    81    80    2
     4    67    66    2
     5    72    70   ar
     6    77    78    2
     7    77    76    1
     8    73    71   ar
     9    80    82   am
    10    80    79    1
    11    76    79    1
    12    76    75    1
    13    70    69   ar
    14    66    75   am
    15    66    65    1
    16    38    37   ar
    17    38    36   ar
    18    71    69   ar
    19    37    35   ar
    20    36    34   ar
    21    69    68    1
    22    61    60    2
    23    35    34   ar
    24    65    68    1
    25    65    64    1
    26    45    44    1
    27    34    33    1
    28    33    30    1
    29    46    44    1
    30    44    43    1
    31    60    64   am
    32    60    59    1
    33    62    59    1
    34    62    63    1
    35    59    58    1
    36    58    56   am
    37    30    31    1
    38    30    29    1
    39    43    40    1
    40    54    55    1
    41    31    32    2
    42    31    39   am
    43    39    40    1
    44    29    25   am
    45    63    28    1
    46    40    41    1
    47    56    55    1
    48    56    57    2
    49    10     9    1
    50    25    24    1
    51    25    26    2
    52    27    24    1
    53    27    28    1
    54    24    23    1
    55     9    11    1
    56     9     8    2
    57    41    42    2
    58    41    47   am
    59    47    48    1
    60     7     8    1
    61     7     6    1
    62    15    14    2
    63    23    14   am
    64    53    51    1
    65    14    13    1
    66     6     5    1
    67    83    84    1
    68    48    51    1
    69    48    49    1
    70    51    52    1
    71    90    88   ar
    72    50    49    2
    73    13    12    1
    74    13    16    1
    75     5     2    1
    76    88    89   ar
    77    88    87    1
    78    12     3   am
    79    84    87    1
    80    84    85    1
    81    16    17    1
    82     3     2    1
    83     3     4    2
    84     2     1    1
    85    85    86    2
    86    17    18    1
    87    18    19    1
    88    19    20    2
    89    20    21    1
    90    20    22    1
    91    94    93    2
    92    93    92    1
    93    95    92    1
    94    95    96    1
    95    92    91    1
    96    98    96   am
    97    96    97    2
