@<TRIPOS>MOLECULE
tmp/6egyA01.pdb
 87 81 0 0 0
SMALL
GASTEIGER

@<TRIPOS>ATOM
      1  N         18.8260    9.1330    8.5460 N.3     6  GLY6       -0.1210
      2  CA        18.7370    9.0340    7.0870 C.3     6  GLY6        0.1956
      3  C         17.4160    8.4580    6.6130 C.2     6  GLY6        0.2613
      4  O         16.3840    8.6540    7.2500 O.2     6  GLY6       -0.2717
      5  N         17.4540    7.7610    5.4810 N.am    7  SER7       -0.1938
      6  CA        16.2800    7.1050    4.9140 C.3     7  SER7        0.2055
      7  C         16.1950    5.6510    5.3670 C.2     7  SER7        0.2643
      8  O         17.0540    4.8400    5.0220 O.2     7  SER7       -0.2714
      9  CB        16.3310    7.1500    3.3900 C.3     7  SER7        0.2130
     10  OG        15.2360    6.4460    2.8380 O.3     7  SER7       -0.2179
     11  N         15.1500    5.3230    6.1230 N.am    8  ALA8       -0.1963
     12  CA        14.8640    3.9330    6.5000 C.3     8  ALA8        0.1728
     13  C         14.5280    3.0560    5.2860 C.2     8  ALA8        0.2616
     14  O         14.8100    1.8610    5.2930 O.2     8  ALA8       -0.2715
     15  CB        13.7350    3.8790    7.5220 C.3     8  ALA8        0.0334
     16  N         13.9410    3.6560    4.2480 N.am    9  LYS9       -0.1977
     17  CA        13.5440    2.9300    3.0330 C.3     9  LYS9        0.1596
     18  C         14.7760    2.4020    2.2830 C.2     9  LYS9        0.2287
     19  O         14.8060    1.2410    1.8780 O.2     9  LYS9       -0.2864
     20  CB        12.6940    3.8400    2.1290 C.3     9  LYS9        0.0298
     21  CG        11.9300    3.1530    0.9980 C.3     9  LYS9        0.0038
     22  CD        10.5880    2.5880    1.4490 C.3     9  LYS9        0.0206
     23  CE         9.6820    2.2260    0.2770 C.3     9  LYS9        0.1093
     24  NZ         8.9420    3.4090   -0.2550 N.3     9  LYS9       -0.1314
     25  N         16.5570   -0.2920    4.4200 N.3    12  ALA12      -0.1245
     26  CA        15.9670   -1.6220    4.2800 C.3    12  ALA12       0.1562
     27  C         16.4990   -2.3370    3.0500 C.2    12  ALA12       0.2260
     28  O         16.7700   -3.5330    3.1110 O.2    12  ALA12      -0.2867
     29  CB        14.4540   -1.5350    4.2210 C.3    12  ALA12       0.0290
     30  N         18.6290   -5.6690    3.1770 N.3    16  LYS16      -0.1245
     31  CA        18.2040   -6.8390    2.4180 C.3    16  LYS16       0.1561
     32  C         19.2020   -7.3030    1.3490 C.2    16  LYS16       0.2260
     33  O         19.3000   -8.4980    1.0790 O.2    16  LYS16      -0.2867
     34  CB        16.7840   -6.6130    1.8650 C.3    16  LYS16       0.0271
     35  CG        15.7010   -7.1390    2.8330 C.3    16  LYS16       0.0035
     36  CD        14.4750   -6.2430    3.0600 C.3    16  LYS16       0.0206
     37  CE        13.8730   -6.4740    4.4430 C.3    16  LYS16       0.1093
     38  NZ        12.8210   -5.4730    4.7700 N.3    16  LYS16      -0.1314
     39  N         16.0280   -9.6590   11.4760 N.3    25  VAL25      -0.1245
     40  CA        15.7950   -8.5420   12.4190 C.3    25  VAL25       0.1561
     41  C         14.4810   -8.6010   13.2050 C.2    25  VAL25       0.2260
     42  O         14.4070   -8.0490   14.3030 O.2    25  VAL25      -0.2867
     43  CB        15.9050   -7.1590   11.7200 C.3    25  VAL25       0.0252
     44  CG1       17.3530   -6.8520   11.3690 C.3    25  VAL25       0.0019
     45  CG2       15.0320   -7.0810   10.4760 C.3    25  VAL25       0.0019
     46  N         19.4890    3.8550   10.5460 N.3   101  THR101     -0.1203
     47  CA        18.1430    4.4160   10.6640 C.3   101  THR101      0.1994
     48  C         17.0790    3.3230   10.5210 C.2   101  THR101      0.2617
     49  O         16.1370    3.2730   11.3220 O.2   101  THR101     -0.2717
     50  CB        17.8860    5.5260    9.6170 C.3   101  THR101      0.1784
     51  OG1       18.8920    6.5360    9.7290 O.3   101  THR101     -0.2211
     52  CG2       16.5250    6.1730    9.8220 C.3   101  THR101      0.0376
     53  N         17.2290    2.4620    9.5090 N.am  102  TYR102     -0.1975
     54  CA        16.3530    1.2850    9.3410 C.3   102  TYR102      0.1639
     55  C         16.4590    0.3420   10.5270 C.2   102  TYR102      0.2290
     56  O         15.4420   -0.1550   11.0270 O.2   102  TYR102     -0.2864
     57  CB        16.6680    0.5120    8.0430 C.3   102  TYR102      0.0560
     58  CG        16.1390   -0.9170    8.0050 C.ar  102  TYR102     -0.0198
     59  CD1       14.8170   -1.1770    7.6950 C.ar  102  TYR102     -0.0009
     60  CD2       16.9680   -2.0060    8.2840 C.ar  102  TYR102     -0.0009
     61  CE1       14.3280   -2.4750    7.6570 C.ar  102  TYR102      0.0417
     62  CE2       16.4810   -3.3090    8.2620 C.ar  102  TYR102      0.0417
     63  CZ        15.1580   -3.5370    7.9440 C.ar  102  TYR102      0.1957
     64  OH        14.6350   -4.8100    7.9010 O.3   102  TYR102     -0.2866
     65  N         14.6650    1.1020   13.9460 N.3   105  LYS105     -0.1231
     66  CA        13.2280    0.8390   13.8880 C.3   105  LYS105      0.1693
     67  C         12.8940   -0.6430   13.6930 C.2   105  LYS105      0.2591
     68  O         11.9780   -1.1550   14.3390 O.2   105  LYS105     -0.2718
     69  CB        12.5780    1.6800   12.7880 C.3   105  LYS105      0.0285
     70  CG        12.7030    3.1720   13.0420 C.3   105  LYS105      0.0035
     71  CD        11.9950    4.0120   12.0030 C.3   105  LYS105      0.0206
     72  CE        11.7240    5.4230   12.5300 C.3   105  LYS105      0.1093
     73  NZ        10.5800    5.4850   13.5010 N.3   105  LYS105     -0.1314
     74  N         13.6360   -1.3240   12.8180 N.am  106  ALA106     -0.1980
     75  CA        13.3520   -2.7220   12.4780 C.3   106  ALA106      0.1597
     76  C         13.6140   -3.6970   13.6190 C.2   106  ALA106      0.2287
     77  O         12.9280   -4.7110   13.7270 O.2   106  ALA106     -0.2864
     78  CB        14.1360   -3.1380   11.2450 C.3   106  ALA106      0.0319
     79  N         13.0160   -2.9430   16.6540 N.3   108  GLU108     -0.1245
     80  CA        12.0260   -2.4870   17.6520 C.3   108  GLU108      0.1567
     81  C         12.6490   -1.6470   18.7610 C.2   108  GLU108      0.2260
     82  O         11.9920   -1.3240   19.7570 O.2   108  GLU108     -0.2867
     83  CB        11.2150   -3.6580   18.2400 C.3   108  GLU108      0.0388
     84  CG        10.5770   -4.6030   17.2210 C.3   108  GLU108      0.1160
     85  CD         9.4320   -3.9910   16.4320 C.2   108  GLU108      0.3649
     86  OE1        8.2620   -4.3650   16.7060 O.co2 108  GLU108     -0.2457
     87  OE2        9.6920   -3.1420   15.5420 O.co2 108  GLU108     -0.2457
@<TRIPOS>BOND
     1    24    23    1
     2    23    22    1
     3    21    22    1
     4    21    20    1
     5    33    32    2
     6    32    31    1
     7    34    31    1
     8    34    35    1
     9    19    18    2
    10    20    17    1
    11    18    17    1
    12    31    30    1
    13    35    36    1
    14    10     9    1
    15    17    16    1
    16    27    28    2
    17    27    26    1
    18    36    37    1
    19     9     6    1
    20    29    26    1
    21    16    13   am
    22    26    25    1
    23    37    38    1
    24     6     7    1
    25     6     5    1
    26     8     7    2
    27    13    14    2
    28    13    12    1
    29     7    11   am
    30     5     3   am
    31    11    12    1
    32    12    15    1
    33     3     2    1
    34     3     4    2
    35     2     1    1
    36    61    59   ar
    37    61    63   ar
    38    59    58   ar
    39    64    63    1
    40    63    62   ar
    41    58    57    1
    42    58    60   ar
    43    57    54    1
    44    62    60   ar
    45    54    53    1
    46    54    55    1
    47    53    48   am
    48    50    51    1
    49    50    52    1
    50    50    47    1
    51    45    43    1
    52    48    47    1
    53    48    49    2
    54    55    56    2
    55    46    47    1
    56    78    75    1
    57    44    43    1
    58    39    40    1
    59    43    40    1
    60    71    72    1
    61    71    70    1
    62    40    41    1
    63    75    74    1
    64    75    76    1
    65    72    73    1
    66    69    70    1
    67    69    66    1
    68    74    67   am
    69    41    42    2
    70    76    77    2
    71    67    66    1
    72    67    68    2
    73    66    65    1
    74    87    85   ar
    75    85    86   ar
    76    85    84    1
    77    79    80    1
    78    84    83    1
    79    80    83    1
    80    80    81    1
    81    81    82    2
