@<TRIPOS>MOLECULE
tmp/6eh2A01.pdb
 143 134 0 0 0
SMALL
GASTEIGER

@<TRIPOS>ATOM
      1  N        -17.4980  -29.3850   32.7170 N.3    51  LEU51      -0.1245
      2  CA       -16.3270  -29.6110   31.8880 C.3    51  LEU51       0.1561
      3  C        -15.1410  -28.8240   32.4290 C.2    51  LEU51       0.2260
      4  O        -14.1760  -28.5910   31.7130 O.2    51  LEU51      -0.2867
      5  CB       -16.6230  -29.2160   30.4430 C.3    51  LEU51       0.0270
      6  CG       -17.8310  -29.9510   29.8690 C.3    51  LEU51       0.0019
      7  CD1      -18.2540  -29.3570   28.5490 C.3    51  LEU51       0.0001
      8  CD2      -17.5110  -31.4330   29.7190 C.3    51  LEU51       0.0001
      9  N        -12.7200  -18.0890   38.1290 N.3    53  PHE53      -0.1241
     10  CA       -13.8660  -17.1960   37.9930 C.3    53  PHE53       0.1605
     11  C        -15.1870  -17.9600   37.9350 C.2    53  PHE53       0.2264
     12  O        -16.2200  -17.4360   38.3740 O.2    53  PHE53      -0.2867
     13  CB       -13.7060  -16.3180   36.7470 C.3    53  PHE53       0.0534
     14  CG       -13.3660  -17.0740   35.4900 C.ar   53  PHE53      -0.0203
     15  CD1      -14.3680  -17.5850   34.6770 C.ar   53  PHE53      -0.0042
     16  CD2      -12.0320  -17.2590   35.1150 C.ar   53  PHE53      -0.0042
     17  CE1      -14.0510  -18.2710   33.5010 C.ar   53  PHE53      -0.0003
     18  CE2      -11.7040  -17.9470   33.9370 C.ar   53  PHE53      -0.0003
     19  CZ       -12.7150  -18.4510   33.1330 C.ar   53  PHE53      -0.0000
     20  N        -17.5870  -24.2400   33.4490 N.3    56  VAL56      -0.1245
     21  CA       -18.0790  -24.4930   32.0960 C.3    56  VAL56       0.1561
     22  C        -18.8590  -25.7960   32.1440 C.2    56  VAL56       0.2260
     23  O        -18.3120  -26.8290   32.5480 O.2    56  VAL56      -0.2867
     24  CB       -16.9390  -24.5880   31.0660 C.3    56  VAL56       0.0252
     25  CG1      -17.4920  -24.8830   29.6910 C.3    56  VAL56       0.0019
     26  CG2      -16.1140  -23.3060   31.0250 C.3    56  VAL56       0.0019
     27  N        -22.1470  -25.4150   25.5000 N.3    69  ALA69      -0.1245
     28  CA       -21.1870  -25.2600   26.5810 C.3    69  ALA69       0.1562
     29  C        -21.4880  -23.9260   27.2580 C.2    69  ALA69       0.2260
     30  O        -21.2980  -22.8650   26.6550 O.2    69  ALA69      -0.2867
     31  CB       -19.7520  -25.3100   26.0530 C.3    69  ALA69       0.0290
     32  N        -20.7360  -21.2070   29.9450 N.3    71  LYS71      -0.1245
     33  CA       -19.7820  -20.6100   30.8740 C.3    71  LYS71       0.1561
     34  C        -20.5530  -19.8720   31.9640 C.2    71  LYS71       0.2260
     35  O        -21.3660  -18.9920   31.6630 O.2    71  LYS71      -0.2867
     36  CB       -18.8450  -19.6710   30.1090 C.3    71  LYS71       0.0271
     37  CG       -17.6490  -20.3720   29.5020 C.3    71  LYS71       0.0035
     38  CD       -16.6410  -19.3750   28.9740 C.3    71  LYS71       0.0206
     39  CE       -16.7510  -19.2530   27.4710 C.3    71  LYS71       0.1093
     40  NZ       -15.6190  -18.4820   26.8820 N.3    71  LYS71      -0.1314
     41  N        -15.4410  -19.5610   18.0690 N.3   103  VAL103     -0.1245
     42  CA       -16.5920  -20.1500   18.7380 C.3   103  VAL103      0.1561
     43  C        -17.7300  -19.1490   18.7530 C.2   103  VAL103      0.2260
     44  O        -17.5250  -17.9350   18.8700 O.2   103  VAL103     -0.2867
     45  CB       -16.2170  -20.5860   20.1630 C.3   103  VAL103      0.0252
     46  CG1      -15.8940  -19.3580   21.0230 C.3   103  VAL103      0.0019
     47  CG2      -17.3320  -21.4520   20.7630 C.3   103  VAL103      0.0019
     48  N        -22.2950  -21.0650   24.6950 N.3   119  MET119     -0.1230
     49  CA       -21.4950  -21.2010   23.4870 C.3   119  MET119      0.1702
     50  C        -21.8760  -22.4880   22.7860 C.2   119  MET119      0.2592
     51  O        -22.2330  -23.4740   23.4340 O.2   119  MET119     -0.2718
     52  CB       -19.9990  -21.2680   23.8140 C.3   119  MET119      0.0401
     53  CG       -19.5150  -20.3840   24.9450 C.3   119  MET119      0.0596
     54  SD       -19.6830  -18.6620   24.5800 S.3   119  MET119     -0.1393
     55  CE       -18.6760  -18.5130   23.1070 C.3   119  MET119      0.0692
     56  N        -21.7360  -22.5000   21.4630 N.am  120  GLU120     -0.1966
     57  CA       -21.8950  -23.7520   20.7440 C.3   120  GLU120      0.1733
     58  C        -20.9360  -24.7820   21.3240 C.2   120  GLU120      0.2616
     59  O        -19.7880  -24.4780   21.6290 O.2   120  GLU120     -0.2715
     60  CB       -21.6580  -23.5540   19.2400 C.3   120  GLU120      0.0429
     61  CG       -20.3100  -23.0390   18.8300 C.3   120  GLU120      0.1163
     62  CD       -20.1910  -22.8790   17.3080 C.2   120  GLU120      0.3649
     63  OE1      -19.2740  -22.1490   16.8710 O.co2 120  GLU120     -0.2457
     64  OE2      -21.0160  -23.4720   16.5590 O.co2 120  GLU120     -0.2457
     65  N        -21.4240  -26.0050   21.5090 N.am  121  TYR121     -0.1960
     66  CA       -20.6130  -27.0650   22.0870 C.3   121  TYR121      0.1771
     67  C        -19.6970  -27.6470   21.0160 C.2   121  TYR121      0.2619
     68  O        -20.1590  -28.0170   19.9330 O.2   121  TYR121     -0.2715
     69  CB       -21.5210  -28.1430   22.6720 C.3   121  TYR121      0.0574
     70  CG       -20.8110  -29.3790   23.1600 C.ar  121  TYR121     -0.0198
     71  CD1      -19.7800  -29.2910   24.0850 C.ar  121  TYR121     -0.0009
     72  CD2      -21.2000  -30.6450   22.7190 C.ar  121  TYR121     -0.0009
     73  CE1      -19.1410  -30.4190   24.5470 C.ar  121  TYR121      0.0417
     74  CE2      -20.5700  -31.7760   23.1730 C.ar  121  TYR121      0.0417
     75  CZ       -19.5440  -31.6590   24.0950 C.ar  121  TYR121      0.1957
     76  OH       -18.9070  -32.7780   24.5700 O.3   121  TYR121     -0.2866
     77  N        -18.4040  -27.7250   21.3160 N.am  122  VAL122     -0.1977
     78  CA       -17.4150  -28.2220   20.3600 C.3   122  VAL122      0.1596
     79  C        -16.9390  -29.5720   20.8760 C.2   122  VAL122      0.2287
     80  O        -16.1320  -29.6350   21.8140 O.2   122  VAL122     -0.2864
     81  CB       -16.2600  -27.2280   20.1780 C.3   122  VAL122      0.0276
     82  CG1      -15.3360  -27.7030   19.0630 C.3   122  VAL122      0.0022
     83  CG2      -16.7840  -25.8560   19.8730 C.3   122  VAL122      0.0022
     84  N        -10.0330  -30.0150   23.2980 N.3   126  GLU126     -0.1245
     85  CA        -8.9200  -29.1150   22.9910 C.3   126  GLU126      0.1567
     86  C         -7.8390  -29.8130   22.1660 C.2   126  GLU126      0.2260
     87  O         -7.5930  -31.0170   22.2960 O.2   126  GLU126     -0.2867
     88  CB        -8.3010  -28.5620   24.2960 C.3   126  GLU126      0.0388
     89  CG        -8.0330  -29.6420   25.2850 C.3   126  GLU126      0.1160
     90  CD        -7.6900  -29.0780   26.6250 C.2   126  GLU126      0.3649
     91  OE1       -7.5180  -27.8270   26.6930 O.co2 126  GLU126     -0.2457
     92  OE2       -7.5530  -29.8750   27.5930 O.co2 126  GLU126     -0.2457
     93  N         -4.0430  -25.3360   24.1770 N.3   168  GLU168     -0.1231
     94  CA        -5.0880  -25.4130   25.1920 C.3   168  GLU168      0.1699
     95  C         -6.3590  -24.6530   24.7980 C.2   168  GLU168      0.2592
     96  O         -7.4490  -24.9720   25.3070 O.2   168  GLU168     -0.2718
     97  CB        -4.5700  -24.8410   26.5170 C.3   168  GLU168      0.0402
     98  CG        -3.4830  -25.6490   27.2460 C.3   168  GLU168      0.1161
     99  CD        -2.0410  -25.3450   26.8120 C.2   168  GLU168      0.3649
    100  OE1       -1.7720  -25.0790   25.5900 O.co2 168  GLU168     -0.2457
    101  OE2       -1.1410  -25.4410   27.6780 O.co2 168  GLU168     -0.2457
    102  N         -6.2370  -23.6270   23.9510 N.am  169  ASN169     -0.1974
    103  CA        -7.3380  -22.7220   23.6090 C.3   169  ASN169      0.1688
    104  C         -7.9040  -22.9920   22.2240 C.2   169  ASN169      0.2292
    105  O         -8.6720  -22.1720   21.6920 O.2   169  ASN169     -0.2864
    106  CB        -6.8880  -21.2600   23.6940 C.3   169  ASN169      0.1181
    107  CG        -6.8970  -20.7340   25.1120 C.2   169  ASN169      0.2629
    108  OD1       -7.4710  -21.3660   26.0160 O.2   169  ASN169     -0.2716
    109  ND2       -6.2450  -19.6040   25.3330 N.am  169  ASN169     -0.0877
    110  N        -10.1390  -25.5730   20.1090 N.3   171  LEU171     -0.1245
    111  CA       -11.0320  -26.7210   20.1040 C.3   171  LEU171      0.1561
    112  C        -11.1510  -27.2850   18.6900 C.2   171  LEU171      0.2260
    113  O        -11.0430  -26.5540   17.7070 O.2   171  LEU171     -0.2867
    114  CB       -12.4080  -26.3170   20.6330 C.3   171  LEU171      0.0270
    115  CG       -12.4410  -25.6210   22.0100 C.3   171  LEU171      0.0019
    116  CD1      -13.8540  -25.3050   22.4750 C.3   171  LEU171      0.0001
    117  CD2      -11.7510  -26.4710   23.0540 C.3   171  LEU171      0.0001
    118  N        -11.2290  -20.3900   21.1400 N.3   181  THR181     -0.1203
    119  CA       -12.0300  -20.0360   22.2910 C.3   181  THR181      0.1994
    120  C        -11.1670  -19.2030   23.2310 C.2   181  THR181      0.2617
    121  O         -9.9450  -19.1430   23.1020 O.2   181  THR181     -0.2717
    122  CB       -12.5600  -21.2800   23.0310 C.3   181  THR181      0.1784
    123  OG1      -13.5070  -20.8760   24.0240 O.3   181  THR181     -0.2211
    124  CG2      -11.4330  -22.0410   23.6930 C.3   181  THR181      0.0376
    125  N        -11.8420  -18.5430   24.1520 N.am  182  ASP182     -0.1973
    126  CA       -11.2430  -17.8060   25.2570 C.3   182  ASP182      0.1709
    127  C        -10.6650  -16.4730   24.8130 C.2   182  ASP182      0.2293
    128  O         -9.4810  -16.3560   24.4600 O.2   182  ASP182     -0.2864
    129  CB       -10.1790  -18.6320   25.9710 C.3   182  ASP182      0.1436
    130  CG        -9.8240  -18.0640   27.3340 C.2   182  ASP182      0.3671
    131  OD1      -10.1400  -16.8780   27.5780 O.co2 182  ASP182     -0.2456
    132  OD2       -9.2230  -18.7990   28.1510 O.co2 182  ASP182     -0.2456
    133  N        -13.5010  -35.0090   26.9440 N.3   322  PHE322     -0.1241
    134  CA       -13.3280  -34.1070   28.0820 C.3   322  PHE322      0.1605
    135  C        -13.1130  -34.9270   29.3510 C.2   322  PHE322      0.2264
    136  O        -13.4130  -36.1230   29.3930 O.2   322  PHE322     -0.2867
    137  CB       -14.5410  -33.1710   28.2500 C.3   322  PHE322      0.0534
    138  CG       -14.8040  -32.3040   27.0510 C.ar  322  PHE322     -0.0203
    139  CD1      -14.2890  -31.0220   26.9810 C.ar  322  PHE322     -0.0042
    140  CD2      -15.5570  -32.7810   25.9860 C.ar  322  PHE322     -0.0042
    141  CE1      -14.5220  -30.2200   25.8700 C.ar  322  PHE322     -0.0003
    142  CE2      -15.7910  -31.9860   24.8710 C.ar  322  PHE322     -0.0003
    143  CZ       -15.2780  -30.7020   24.8160 C.ar  322  PHE322     -0.0000
@<TRIPOS>BOND
     1    64    62   ar
     2    63    62   ar
     3    62    61    1
     4   113   112    2
     5    41    42    1
     6   112   111    1
     7    42    43    1
     8    42    45    1
     9    43    44    2
    10    61    60    1
    11    82    81    1
    12    60    57    1
    13    83    81    1
    14    68    67    2
    15   111   110    1
    16   111   114    1
    17    45    47    1
    18    45    46    1
    19    81    78    1
    20    78    79    1
    21    78    77    1
    22   114   115    1
    23    57    58    1
    24    57    56    1
    25    79    80    2
    26    67    77   am
    27    67    66    1
    28   118   119    1
    29    58    65   am
    30    58    59    2
    31    56    50   am
    32    65    66    1
    33   105   104    2
    34   115   116    1
    35   115   117    1
    36    66    69    1
    37    86    87    2
    38    86    85    1
    39   104   103    1
    40   119   122    1
    41   119   120    1
    42    69    70    1
    43    72    70   ar
    44    72    74   ar
    45    50    51    2
    46    50    49    1
    47    85    84    1
    48    85    88    1
    49   122   124    1
    50   122   123    1
    51   121   120    2
    52    55    54    1
    53    70    71   ar
    54    74    75   ar
    55   120   125   am
    56    49    52    1
    57    49    48    1
    58   103   106    1
    59   103   102    1
    60   106   107    1
    61    52    53    1
    62   102    95   am
    63    71    73   ar
    64    75    73   ar
    65    75    76    1
    66   125   126    1
    67    93    94    1
    68    88    89    1
    69   128   127    2
    70    54    53    1
    71    95    94    1
    72    95    96    2
    73   127   126    1
    74   143   142   ar
    75   143   141   ar
    76   142   140   ar
    77   107   109   am
    78   107   108    2
    79    94    97    1
    80   126   129    1
    81    89    90    1
    82    27    28    1
    83   100    99   ar
    84   141   139   ar
    85   129   130    1
    86   140   138   ar
    87    31    28    1
    88    97    98    1
    89    28    29    1
    90    90    91   ar
    91    90    92   ar
    92    30    29    2
    93    99    98    1
    94    99   101   ar
    95    40    39    1
    96   133   134    1
    97   139   138   ar
    98   138   137    1
    99   130   131   ar
   100   130   132   ar
   101    39    38    1
   102   134   137    1
   103   134   135    1
   104     7     6    1
   105    38    37    1
   106   135   136    2
   107    37    36    1
   108    25    24    1
   109     8     6    1
   110     6     5    1
   111    32    33    1
   112    36    33    1
   113     5     2    1
   114    33    34    1
   115    26    24    1
   116    24    21    1
   117    35    34    2
   118     4     3    2
   119     2     3    1
   120     2     1    1
   121    21    22    1
   122    21    20    1
   123    22    23    2
   124    19    17   ar
   125    19    18   ar
   126    17    15   ar
   127    18    16   ar
   128    15    14   ar
   129    16    14   ar
   130    14    13    1
   131    13    10    1
   132    11    10    1
   133    11    12    2
   134    10     9    1
