@<TRIPOS>MOLECULE
tmp/6eh2A02.pdb
 109 107 0 0 0
SMALL
GASTEIGER

@<TRIPOS>ATOM
      1  N         -9.5360  -10.1890   -0.6330 N.3    17  VAL17      -0.1245
      2  CA        -9.4640  -10.2410    0.8250 C.3    17  VAL17       0.1561
      3  C         -9.7950   -8.8730    1.4150 C.2    17  VAL17       0.2260
      4  O        -10.5300   -8.7570    2.4060 O.2    17  VAL17      -0.2867
      5  CB        -8.0830  -10.7250    1.2860 C.3    17  VAL17       0.0252
      6  CG1       -7.8910  -10.4580    2.7990 C.3    17  VAL17       0.0019
      7  CG2       -7.9310  -12.2050    1.0000 C.3    17  VAL17       0.0019
      8  N        -13.4700   -8.3030    1.3770 N.3    20  PHE20      -0.1227
      9  CA       -14.1530   -9.0730    2.4110 C.3    20  PHE20       0.1736
     10  C        -13.9920   -8.4170    3.7760 C.2    20  PHE20       0.2595
     11  O        -14.9650   -8.2700    4.5320 O.2    20  PHE20      -0.2718
     12  CB       -13.5930  -10.4960    2.4500 C.3    20  PHE20       0.0547
     13  CG       -14.0050  -11.2730    3.6620 C.ar   20  PHE20      -0.0202
     14  CD1      -15.1970  -11.9730    3.6800 C.ar   20  PHE20      -0.0042
     15  CD2      -13.2050  -11.3020    4.7930 C.ar   20  PHE20      -0.0042
     16  CE1      -15.5700  -12.6960    4.8160 C.ar   20  PHE20      -0.0003
     17  CE2      -13.5850  -12.0160    5.9180 C.ar   20  PHE20      -0.0003
     18  CZ       -14.7660  -12.6900    5.9290 C.ar   20  PHE20      -0.0000
     19  N        -12.7560   -8.0290    4.1100 N.am   21  LEU21      -0.1980
     20  CA       -12.4670   -7.5080    5.4420 C.3    21  LEU21       0.1596
     21  C        -13.1730   -6.1880    5.6820 C.2    21  LEU21       0.2287
     22  O        -13.5800   -5.8970    6.8140 O.2    21  LEU21      -0.2864
     23  CB       -10.9550   -7.3380    5.6290 C.3    21  LEU21       0.0297
     24  CG       -10.1520   -8.6360    5.6690 C.3    21  LEU21       0.0022
     25  CD1       -8.6420   -8.3740    5.6860 C.3    21  LEU21       0.0001
     26  CD2      -10.5850   -9.4410    6.8900 C.3    21  LEU21       0.0001
     27  N        -16.8840  -15.5670   12.4300 N.3    99  PHE99      -0.1241
     28  CA       -15.8640  -16.1710   11.5850 C.3    99  PHE99       0.1605
     29  C        -15.9490  -17.6810   11.7800 C.2    99  PHE99       0.2264
     30  O        -16.3330  -18.1430   12.8600 O.2    99  PHE99      -0.2867
     31  CB       -14.4580  -15.6230   11.9300 C.3    99  PHE99       0.0534
     32  CG       -13.4770  -15.7220   10.8110 C.ar   99  PHE99      -0.0203
     33  CD1      -13.6550  -15.0090    9.6370 C.ar   99  PHE99      -0.0042
     34  CD2      -12.3750  -16.5740   10.9170 C.ar   99  PHE99      -0.0042
     35  CE1      -12.7260  -15.1310    8.5600 C.ar   99  PHE99      -0.0003
     36  CE2      -11.4690  -16.6940    9.8830 C.ar   99  PHE99      -0.0003
     37  CZ       -11.6370  -15.9780    8.6990 C.ar   99  PHE99      -0.0000
     38  N         -5.8210  -17.1910    8.9660 N.3   150  LEU150     -0.1245
     39  CA        -7.0260  -16.5130    8.4910 C.3   150  LEU150      0.1561
     40  C         -7.7700  -15.8460    9.6360 C.2   150  LEU150      0.2260
     41  O         -8.3060  -14.7410    9.4730 O.2   150  LEU150     -0.2867
     42  CB        -7.9540  -17.4900    7.7880 C.3   150  LEU150      0.0270
     43  CG        -7.4370  -18.0350    6.4610 C.3   150  LEU150      0.0019
     44  CD1       -8.4150  -19.0380    5.9150 C.3   150  LEU150      0.0001
     45  CD2       -7.1880  -16.9330    5.4380 C.3   150  LEU150      0.0001
     46  N         -5.8710  -12.7780   10.6190 N.3   153  GLU153     -0.1231
     47  CA        -6.1180  -11.7530    9.6020 C.3   153  GLU153      0.1699
     48  C         -7.4590  -11.0730    9.8410 C.2   153  GLU153      0.2592
     49  O         -7.5640   -9.8450    9.7740 O.2   153  GLU153     -0.2718
     50  CB        -6.0420  -12.3660    8.2030 C.3   153  GLU153      0.0402
     51  CG        -6.3000  -11.3600    7.0750 C.3   153  GLU153      0.1161
     52  CD        -5.9150  -11.9110    5.7150 C.2   153  GLU153      0.3649
     53  OE1       -6.3100  -13.0420    5.4000 O.co2 153  GLU153     -0.2457
     54  OE2       -5.2410  -11.1840    4.9470 O.co2 153  GLU153     -0.2457
     55  N         -8.4830  -11.8580   10.1520 N.am  154  TYR154     -0.1976
     56  CA        -9.7940  -11.3230   10.4880 C.3   154  TYR154      0.1639
     57  C         -9.7470  -10.4720   11.7480 C.2   154  TYR154      0.2290
     58  O        -10.1530   -9.2980   11.7380 O.2   154  TYR154     -0.2864
     59  CB       -10.7770  -12.4810   10.6370 C.3   154  TYR154      0.0560
     60  CG       -12.1150  -12.0740   11.1840 C.ar  154  TYR154     -0.0198
     61  CD1      -13.0680  -11.4790   10.3690 C.ar  154  TYR154     -0.0009
     62  CD2      -12.4340  -12.2830   12.5200 C.ar  154  TYR154     -0.0009
     63  CE1      -14.3020  -11.1080   10.8570 C.ar  154  TYR154      0.0417
     64  CE2      -13.6780  -11.8960   13.0230 C.ar  154  TYR154      0.0417
     65  CZ       -14.6010  -11.3160   12.1850 C.ar  154  TYR154      0.1957
     66  OH       -15.8430  -10.9270   12.6400 O.3   154  TYR154     -0.2866
     67  N          1.1770  -15.7050    4.1320 N.3   289  LYS289     -0.1245
     68  CA         0.3420  -16.5130    3.2400 C.3   289  LYS289      0.1561
     69  C          1.0740  -16.9310    1.9810 C.2   289  LYS289      0.2260
     70  O          0.7610  -17.9870    1.4080 O.2   289  LYS289     -0.2867
     71  CB        -0.9480  -15.7680    2.9040 C.3   289  LYS289      0.0271
     72  CG        -1.8520  -15.6010    4.1320 C.3   289  LYS289      0.0035
     73  CD        -3.0290  -14.6020    3.9370 C.3   289  LYS289      0.0206
     74  CE        -4.2530  -15.2800    3.4120 C.3   289  LYS289      0.1093
     75  NZ        -5.3900  -14.3120    3.0820 N.3   289  LYS289     -0.1314
     76  N         -6.3470  -21.0530    0.3200 N.3   299  TRP299     -0.1227
     77  CA        -6.9070  -20.3190    1.4530 C.3   299  TRP299      0.1737
     78  C         -8.4330  -20.2360    1.3890 C.2   299  TRP299      0.2595
     79  O         -9.1000  -20.3180    2.4220 O.2   299  TRP299     -0.2718
     80  CB        -6.2970  -18.9170    1.5390 C.3   299  TRP299      0.0564
     81  CG        -4.8410  -18.9560    1.7470 C.ar  299  TRP299      0.0003
     82  CD1       -3.8590  -18.8480    0.7890 C.ar  299  TRP299      0.0946
     83  CD2       -4.1650  -19.1440    2.9970 C.ar  299  TRP299      0.0152
     84  NE1       -2.6190  -18.9750    1.3690 N.ar  299  TRP299     -0.2442
     85  CE2       -2.7780  -19.1250    2.7320 C.ar  299  TRP299      0.0810
     86  CE3       -4.5990  -19.2960    4.3100 C.ar  299  TRP299      0.0012
     87  CZ2       -1.8360  -19.3030    3.7190 C.ar  299  TRP299      0.0191
     88  CZ3       -3.6550  -19.4440    5.3090 C.ar  299  TRP299      0.0001
     89  CH2       -2.2820  -19.4640    5.0120 C.ar  299  TRP299      0.0015
     90  N         -9.0140  -20.0750    0.1920 N.am  300  ILE300     -0.1980
     91  CA       -10.4660  -19.9560    0.1200 C.3   300  ILE300      0.1595
     92  C        -11.1160  -21.2800    0.4790 C.2   300  ILE300      0.2287
     93  O        -12.1500  -21.3130    1.1590 O.2   300  ILE300     -0.2864
     94  CB       -10.9290  -19.4850   -1.2700 C.3   300  ILE300      0.0276
     95  CG1      -10.3860  -18.0890   -1.5780 C.3   300  ILE300      0.0022
     96  CG2      -12.4620  -19.5030   -1.3300 C.3   300  ILE300      0.0022
     97  CD1      -10.9300  -16.9940   -0.6630 C.3   300  ILE300      0.0001
     98  N        -11.1710  -21.5420    4.2310 N.3   303  TYR303     -0.1241
     99  CA       -12.2450  -20.6890    4.7410 C.3   303  TYR303      0.1605
    100  C        -13.6220  -21.3080    4.5130 C.2   303  TYR303      0.2264
    101  O        -14.4830  -21.2660    5.3990 O.2   303  TYR303     -0.2867
    102  CB       -12.1620  -19.3110    4.0740 C.3   303  TYR303      0.0534
    103  CG       -13.3410  -18.3980    4.3620 C.ar  303  TYR303     -0.0201
    104  CD1      -13.4480  -17.7430    5.5720 C.ar  303  TYR303     -0.0009
    105  CD2      -14.3460  -18.1960    3.4090 C.ar  303  TYR303     -0.0009
    106  CE1      -14.5250  -16.9240    5.8540 C.ar  303  TYR303      0.0417
    107  CE2      -15.4280  -17.3830    3.6760 C.ar  303  TYR303      0.0417
    108  CZ       -15.5140  -16.7420    4.8960 C.ar  303  TYR303      0.1957
    109  OH       -16.5990  -15.9330    5.1370 O.3   303  TYR303     -0.2866
@<TRIPOS>BOND
     1    95    94    1
     2    95    97    1
     3    96    94    1
     4    94    91    1
     5     1     2    1
     6    91    90    1
     7    91    92    1
     8    90    78   am
     9    76    77    1
    10    92    93    2
    11    82    84   ar
    12    82    81   ar
    13     2     5    1
    14     2     3    1
    15     7     5    1
    16     5     6    1
    17    84    85   ar
    18     8     9    1
    19    78    77    1
    20    78    79    2
    21    70    69    2
    22     3     4    2
    23    77    80    1
    24    80    81    1
    25    81    83   ar
    26    69    68    1
    27     9    12    1
    28     9    10    1
    29    12    13    1
    30    85    83   ar
    31    85    87   ar
    32    71    68    1
    33    71    72    1
    34    83    86   ar
    35    75    74    1
    36    68    67    1
    37   105   107   ar
    38   105   103   ar
    39    74    73    1
    40    13    14   ar
    41    13    15   ar
    42   107   108   ar
    43    14    16   ar
    44    87    89   ar
    45    10    19   am
    46    10    11    2
    47    73    72    1
    48   102   103    1
    49   102    99    1
    50    19    20    1
    51    98    99    1
    52    86    88   ar
    53   103   104   ar
    54   100    99    1
    55   100   101    2
    56    15    17   ar
    57    16    18   ar
    58   108   109    1
    59   108   106   ar
    60    54    52   ar
    61    89    88   ar
    62    53    52   ar
    63    45    43    1
    64    20    23    1
    65    20    21    1
    66   104   106   ar
    67    23    24    1
    68    24    25    1
    69    24    26    1
    70    21    22    2
    71    52    51    1
    72    44    43    1
    73    17    18   ar
    74    43    42    1
    75    51    50    1
    76    42    39    1
    77    50    47    1
    78    39    38    1
    79    39    40    1
    80    35    37   ar
    81    35    33   ar
    82    37    36   ar
    83    41    40    2
    84    47    48    1
    85    47    46    1
    86    33    32   ar
    87    49    48    2
    88    48    55   am
    89    36    34   ar
    90    55    56    1
    91    61    63   ar
    92    61    60   ar
    93    56    59    1
    94    56    57    1
    95    59    60    1
    96    32    34   ar
    97    32    31    1
    98    63    65   ar
    99    60    62   ar
   100    28    29    1
   101    28    31    1
   102    28    27    1
   103    58    57    2
   104    29    30    2
   105    65    66    1
   106    65    64   ar
   107    62    64   ar
