@<TRIPOS>MOLECULE
tmp/6eh3A00.pdb
 152 142 0 0 0
SMALL
GASTEIGER

@<TRIPOS>ATOM
      1  N        -17.3160  -29.3060   31.8300 N.3    51  LEU51      -0.1231
      2  CA       -16.3210  -29.4750   30.7820 C.3    51  LEU51       0.1693
      3  C        -14.9710  -28.8600   31.1290 C.2    51  LEU51       0.2593
      4  O        -13.9720  -29.1970   30.4790 O.2    51  LEU51      -0.2718
      5  CB       -16.8200  -28.8470   29.4820 C.3    51  LEU51       0.0284
      6  CG       -18.1010  -29.4440   28.8790 C.3    51  LEU51       0.0019
      7  CD1      -18.5740  -28.5740   27.7530 C.3    51  LEU51       0.0001
      8  CD2      -17.8520  -30.8270   28.3730 C.3    51  LEU51       0.0001
      9  N        -14.9300  -27.9680   32.1210 N.am   52  GLY52      -0.1942
     10  CA       -13.7240  -27.2480   32.5280 C.3    52  GLY52       0.2014
     11  C        -14.0130  -26.3520   33.7270 C.2    52  GLY52       0.2639
     12  O        -15.1590  -25.9070   33.8970 O.2    52  GLY52      -0.2714
     13  N        -13.0060  -26.0970   34.5740 N.am   53  THR53      -0.1950
     14  CA       -13.1420  -25.2180   35.7350 C.3    53  THR53       0.1897
     15  C        -11.9570  -24.2630   35.8120 C.2    53  THR53       0.2313
     16  O        -10.8630  -24.5490   35.3140 O.2    53  THR53      -0.2863
     17  CB       -13.2220  -25.9900   37.0580 C.3    53  THR53       0.1794
     18  OG1      -12.3280  -27.1030   37.0200 O.3    53  THR53      -0.2208
     19  CG2      -14.6120  -26.4760   37.3230 C.3    53  THR53       0.0378
     20  N        -17.2730  -24.1720   32.9110 N.3    59  VAL59      -0.1245
     21  CA       -17.9660  -24.3520   31.6510 C.3    59  VAL59       0.1561
     22  C        -18.6700  -25.6940   31.7290 C.2    59  VAL59       0.2260
     23  O        -18.0350  -26.7130   32.0100 O.2    59  VAL59      -0.2867
     24  CB       -17.0170  -24.3030   30.4380 C.3    59  VAL59       0.0252
     25  CG1      -17.7820  -24.5790   29.1310 C.3    59  VAL59       0.0019
     26  CG2      -16.3290  -22.9320   30.3420 C.3    59  VAL59       0.0019
     27  N        -22.3310  -25.1250   25.2540 N.3    72  ALA72      -0.1245
     28  CA       -21.3510  -24.9810   26.3170 C.3    72  ALA72       0.1562
     29  C        -21.6660  -23.6950   27.0700 C.2    72  ALA72       0.2260
     30  O        -21.6830  -22.6080   26.4670 O.2    72  ALA72      -0.2867
     31  CB       -19.9260  -24.9460   25.7410 C.3    72  ALA72       0.0290
     32  N        -20.6770  -21.0930   29.9100 N.3    74  LYS74      -0.1245
     33  CA       -19.6530  -20.5470   30.8020 C.3    74  LYS74       0.1561
     34  C        -20.3560  -19.8190   31.9390 C.2    74  LYS74       0.2260
     35  O        -21.1650  -18.9130   31.6990 O.2    74  LYS74      -0.2867
     36  CB       -18.7140  -19.6020   30.0350 C.3    74  LYS74       0.0271
     37  CG       -17.3930  -19.2230   30.7430 C.3    74  LYS74       0.0035
     38  CD       -16.5310  -18.3010   29.8080 C.3    74  LYS74       0.0206
     39  CE       -15.0650  -18.7170   29.6630 C.3    74  LYS74       0.1093
     40  NZ       -14.5550  -18.7830   28.2300 N.3    74  LYS74      -0.1314
     41  N        -15.8450  -19.1090   18.0310 N.3   106  VAL106     -0.1245
     42  CA       -17.0370  -19.7310   18.5920 C.3   106  VAL106      0.1561
     43  C        -18.1880  -18.7440   18.5720 C.2   106  VAL106      0.2260
     44  O        -18.0080  -17.5300   18.7480 O.2   106  VAL106     -0.2867
     45  CB       -16.8090  -20.2480   20.0250 C.3   106  VAL106      0.0252
     46  CG1      -16.8810  -19.0900   21.0680 C.3   106  VAL106      0.0019
     47  CG2      -17.8190  -21.3550   20.3320 C.3   106  VAL106      0.0019
     48  N        -22.5390  -20.7260   24.5450 N.3   122  MET122     -0.1230
     49  CA       -21.8460  -20.8380   23.2670 C.3   122  MET122      0.1702
     50  C        -22.1490  -22.1720   22.5950 C.2   122  MET122      0.2592
     51  O        -22.4970  -23.1540   23.2510 O.2   122  MET122     -0.2718
     52  CB       -20.3360  -20.7080   23.4770 C.3   122  MET122      0.0401
     53  CG       -19.9530  -19.3290   23.9050 C.3   122  MET122      0.0596
     54  SD       -18.3420  -19.2680   24.6600 S.3   122  MET122     -0.1393
     55  CE       -18.7390  -19.7730   26.3340 C.3   122  MET122      0.0692
     56  N        -21.9870  -22.2230   21.2780 N.am  123  GLU123     -0.1966
     57  CA       -22.0230  -23.5180   20.5990 C.3   123  GLU123      0.1733
     58  C        -21.1080  -24.5070   21.3090 C.2   123  GLU123      0.2616
     59  O        -20.0010  -24.1620   21.7180 O.2   123  GLU123     -0.2715
     60  CB       -21.5680  -23.3980   19.1410 C.3   123  GLU123      0.0429
     61  CG       -22.6100  -22.8080   18.2320 C.3   123  GLU123      0.1163
     62  CD       -22.2130  -22.8620   16.7620 C.2   123  GLU123      0.3649
     63  OE1      -21.2370  -23.5530   16.3890 O.co2 123  GLU123     -0.2457
     64  OE2      -22.8980  -22.2020   15.9730 O.co2 123  GLU123     -0.2457
     65  N        -21.5650  -25.7460   21.4340 N.am  124  TYR124     -0.1960
     66  CA       -20.7410  -26.8040   21.9890 C.3   124  TYR124      0.1771
     67  C        -19.8040  -27.3450   20.9160 C.2   124  TYR124      0.2619
     68  O        -20.2370  -27.6970   19.8160 O.2   124  TYR124     -0.2715
     69  CB       -21.6290  -27.9200   22.5530 C.3   124  TYR124      0.0574
     70  CG       -20.8800  -29.1210   23.0640 C.ar  124  TYR124     -0.0198
     71  CD1      -19.8330  -28.9660   23.9580 C.ar  124  TYR124     -0.0009
     72  CD2      -21.2260  -30.4170   22.6760 C.ar  124  TYR124     -0.0009
     73  CE1      -19.1300  -30.0590   24.4540 C.ar  124  TYR124      0.0417
     74  CE2      -20.5080  -31.5340   23.1690 C.ar  124  TYR124      0.0417
     75  CZ       -19.4640  -31.3280   24.0600 C.ar  124  TYR124      0.1957
     76  OH       -18.7320  -32.3700   24.5800 O.3   124  TYR124     -0.2866
     77  N        -18.5150  -27.3940   21.2270 N.am  125  VAL125     -0.1977
     78  CA       -17.5130  -27.8490   20.2620 C.3   125  VAL125      0.1596
     79  C        -17.0250  -29.2030   20.7560 C.2   125  VAL125      0.2287
     80  O        -16.2030  -29.2630   21.6860 O.2   125  VAL125     -0.2864
     81  CB       -16.3640  -26.8500   20.0990 C.3   125  VAL125      0.0276
     82  CG1      -15.4200  -27.3090   19.0050 C.3   125  VAL125      0.0022
     83  CG2      -16.8780  -25.4140   19.7840 C.3   125  VAL125      0.0022
     84  N        -10.0430  -30.0050   23.2000 N.3   129  GLU129     -0.1245
     85  CA        -8.9120  -29.1250   22.8970 C.3   129  GLU129      0.1567
     86  C         -7.9250  -29.8110   21.9540 C.2   129  GLU129      0.2260
     87  O         -7.6550  -31.0130   22.0680 O.2   129  GLU129     -0.2867
     88  CB        -8.1760  -28.7120   24.1780 C.3   129  GLU129      0.0388
     89  CG        -9.0170  -28.0350   25.2560 C.3   129  GLU129      0.1160
     90  CD        -8.2310  -27.6880   26.5080 C.2   129  GLU129      0.3649
     91  OE1       -7.0800  -28.1600   26.6710 O.co2 129  GLU129     -0.2457
     92  OE2       -8.7750  -26.9320   27.3350 O.co2 129  GLU129     -0.2457
     93  N         -2.5690  -20.8640   21.9690 N.3   169  LYS169     -0.1245
     94  CA        -1.9330  -22.0870   22.4290 C.3   169  LYS169      0.1561
     95  C         -2.8880  -23.2330   22.1530 C.2   169  LYS169      0.2260
     96  O         -4.0940  -23.0070   21.9890 O.2   169  LYS169     -0.2867
     97  CB        -1.5840  -22.0250   23.9150 C.3   169  LYS169      0.0271
     98  CG        -2.7560  -21.6740   24.8600 C.3   169  LYS169      0.0035
     99  CD        -2.2740  -21.4940   26.3110 C.3   169  LYS169      0.0206
    100  CE        -3.3880  -21.0120   27.2280 C.3   169  LYS169      0.1093
    101  NZ        -2.8700  -20.6630   28.5740 N.3   169  LYS169     -0.1314
    102  N         -4.2240  -25.4240   24.0450 N.3   171  GLU171     -0.1231
    103  CA        -5.2680  -25.4530   25.0620 C.3   171  GLU171      0.1699
    104  C         -6.4530  -24.5450   24.7340 C.2   171  GLU171      0.2592
    105  O         -7.5440  -24.7380   25.2950 O.2   171  GLU171     -0.2718
    106  CB        -4.7090  -25.0030   26.4330 C.3   171  GLU171      0.0402
    107  CG        -3.6550  -25.8640   27.0860 C.3   171  GLU171      0.1161
    108  CD        -2.2030  -25.5440   26.6670 C.2   171  GLU171      0.3649
    109  OE1       -1.9580  -25.2160   25.4690 O.co2 171  GLU171     -0.2457
    110  OE2       -1.2960  -25.6610   27.5480 O.co2 171  GLU171     -0.2457
    111  N         -6.2580  -23.5230   23.8950 N.am  172  ASN172     -0.1974
    112  CA        -7.3150  -22.5760   23.5770 C.3   172  ASN172      0.1688
    113  C         -7.9490  -22.8590   22.2240 C.2   172  ASN172      0.2292
    114  O         -8.7350  -22.0560   21.7370 O.2   172  ASN172     -0.2864
    115  CB        -6.7720  -21.1350   23.6190 C.3   172  ASN172      0.1181
    116  CG        -6.7400  -20.5730   25.0310 C.2   172  ASN172      0.2629
    117  OD1       -7.1820  -21.2390   25.9750 O.2   172  ASN172     -0.2716
    118  ND2       -6.1930  -19.3650   25.1950 N.am  172  ASN172     -0.0877
    119  N        -10.2030  -25.5030   20.0750 N.3   174  LEU174     -0.1245
    120  CA       -11.0730  -26.6650   20.1140 C.3   174  LEU174      0.1561
    121  C        -11.2220  -27.1980   18.6930 C.2   174  LEU174      0.2260
    122  O        -11.0670  -26.4620   17.7190 O.2   174  LEU174     -0.2867
    123  CB       -12.4440  -26.2940   20.7030 C.3   174  LEU174      0.0270
    124  CG       -12.4590  -25.7490   22.1620 C.3   174  LEU174      0.0019
    125  CD1      -13.8670  -25.7120   22.7610 C.3   174  LEU174      0.0001
    126  CD2      -11.5920  -26.5080   23.0830 C.3   174  LEU174      0.0001
    127  N        -12.2970  -20.0160   21.3460 N.3   184  THR184     -0.1203
    128  CA       -13.4100  -19.7980   22.2700 C.3   184  THR184      0.1994
    129  C        -13.1780  -18.7290   23.3270 C.2   184  THR184      0.2617
    130  O        -14.1590  -18.1360   23.7890 O.2   184  THR184     -0.2717
    131  CB       -13.7450  -21.0970   22.9950 C.3   184  THR184      0.1784
    132  OG1      -12.5690  -21.5440   23.6750 O.3   184  THR184     -0.2211
    133  CG2      -14.1850  -22.1600   21.9990 C.3   184  THR184      0.0376
    134  N        -11.9290  -18.4920   23.7380 N.am  185  ASP185     -0.1973
    135  CA       -11.5960  -17.6550   24.8830 C.3   185  ASP185      0.1709
    136  C        -11.0370  -16.3310   24.3860 C.2   185  ASP185      0.2293
    137  O        -10.1740  -16.3000   23.5000 O.2   185  ASP185     -0.2864
    138  CB       -10.5750  -18.3530   25.7960 C.3   185  ASP185      0.1436
    139  CG       -11.2040  -19.4870   26.6430 C.2   185  ASP185      0.3671
    140  OD1      -10.5400  -19.9580   27.5950 O.co2 185  ASP185     -0.2456
    141  OD2      -12.3600  -19.8930   26.3740 O.co2 185  ASP185     -0.2456
    142  N        -13.3860  -34.5740   26.6090 N.3   327  PHE327     -0.1241
    143  CA       -13.1100  -33.6250   27.6790 C.3   327  PHE327      0.1605
    144  C        -12.7450  -34.3620   28.9600 C.2   327  PHE327      0.2264
    145  O        -13.1780  -35.4930   29.1920 O.2   327  PHE327     -0.2867
    146  CB       -14.3240  -32.6930   27.9200 C.3   327  PHE327      0.0534
    147  CG       -14.5490  -31.7400   26.7860 C.ar  327  PHE327     -0.0203
    148  CD1      -13.9240  -30.5200   26.7600 C.ar  327  PHE327     -0.0042
    149  CD2      -15.3160  -32.1090   25.7010 C.ar  327  PHE327     -0.0042
    150  CE1      -14.1120  -29.6530   25.7040 C.ar  327  PHE327     -0.0003
    151  CE2      -15.5010  -31.2460   24.6230 C.ar  327  PHE327     -0.0003
    152  CZ       -14.9160  -30.0240   24.6250 C.ar  327  PHE327     -0.0000
@<TRIPOS>BOND
     1    64    62   ar
     2    63    62   ar
     3    62    61    1
     4   122   121    2
     5    41    42    1
     6    61    60    1
     7    43    42    1
     8    43    44    2
     9    42    45    1
    10   121   120    1
    11    82    81    1
    12    60    57    1
    13    83    81    1
    14    68    67    2
    15    45    47    1
    16    45    46    1
    17   119   120    1
    18    81    78    1
    19   120   123    1
    20    78    79    1
    21    78    77    1
    22    57    56    1
    23    57    58    1
    24   123   124    1
    25    79    80    2
    26    67    77   am
    27    67    66    1
    28    56    50   am
    29    58    65   am
    30    58    59    2
    31   127   128    1
    32    65    66    1
    33   114   113    2
    34    86    87    2
    35    86    85    1
    36    93    94    1
    37    66    69    1
    38    96    95    2
    39   133   131    1
    40    95    94    1
    41   124   125    1
    42   124   126    1
    43   113   112    1
    44   128   131    1
    45   128   129    1
    46    94    97    1
    47    69    70    1
    48    50    51    2
    49    50    49    1
    50    72    70   ar
    51    72    74   ar
    52    85    84    1
    53    85    88    1
    54   131   132    1
    55    70    71   ar
    56    74    75   ar
    57    49    52    1
    58    49    48    1
    59   129   134   am
    60   129   130    2
    61    52    53    1
    62   137   136    2
    63   112   115    1
    64   112   111    1
    65   115   116    1
    66   134   135    1
    67   111   104   am
    68    53    54    1
    69    97    98    1
    70    71    73   ar
    71   102   103    1
    72    75    73   ar
    73    75    76    1
    74    88    89    1
    75   136   135    1
    76   151   152   ar
    77   151   149   ar
    78   152   150   ar
    79    54    55    1
    80   104   103    1
    81   104   105    2
    82    98    99    1
    83   135   138    1
    84   116   118   am
    85   116   117    2
    86   103   106    1
    87    27    28    1
    88    89    90    1
    89   109   108   ar
    90   149   147   ar
    91   150   148   ar
    92    31    28    1
    93   138   139    1
    94    99   100    1
    95    28    29    1
    96   141   139   ar
    97   106   107    1
    98    30    29    2
    99    90    91   ar
   100    90    92   ar
   101   142   143    1
   102   139   140   ar
   103   108   107    1
   104   108   110   ar
   105   148   147   ar
   106   147   146    1
   107   100   101    1
   108   143   146    1
   109   143   144    1
   110     7     6    1
   111    40    39    1
   112     8     6    1
   113     6     5    1
   114   144   145    2
   115    25    24    1
   116     5     2    1
   117    39    38    1
   118    38    37    1
   119    32    33    1
   120    36    37    1
   121    36    33    1
   122    26    24    1
   123    24    21    1
   124     4     3    2
   125     2     3    1
   126     2     1    1
   127    33    34    1
   128     3     9   am
   129    21    22    1
   130    21    20    1
   131    35    34    2
   132    22    23    2
   133     9    10    1
   134    10    11    1
   135    11    12    2
   136    11    13   am
   137    13    14    1
   138    16    15    2
   139    14    15    1
   140    14    17    1
   141    18    17    1
   142    17    19    1
