@<TRIPOS>MOLECULE
tmp/6eh7B00.pdb
 85 79 0 0 0
SMALL
GASTEIGER

@<TRIPOS>ATOM
      1  N        -23.5870   22.7120  -26.9180 N.3    10  ARG10      -0.1231
      2  CA       -23.5520   22.8490  -28.3770 C.3    10  ARG10       0.1694
      3  C        -24.4350   21.8160  -28.9710 C.2    10  ARG10       0.2592
      4  O        -24.4430   20.6800  -28.4950 O.2    10  ARG10      -0.2718
      5  CB       -22.1530   22.6440  -28.9950 C.3    10  ARG10       0.0321
      6  CG       -22.0950   22.8950  -30.5210 C.3    10  ARG10       0.0489
      7  CD       -20.7510   23.3450  -31.1030 C.3    10  ARG10       0.2205
      8  NE       -20.8560   23.5920  -32.5580 N.pl3  10  ARG10      -0.0865
      9  CZ       -19.8460   23.6090  -33.4300 C.cat  10  ARG10       0.5346
     10  NH1      -18.5850   23.3710  -33.0570 N.pl3  10  ARG10       0.1354
     11  NH2      -20.0790   23.8560  -34.7040 N.pl3  10  ARG10       0.1354
     12  N        -25.1330   22.2000  -30.0490 N.am   11  ILE11      -0.1966
     13  CA       -25.9060   21.3120  -30.8510 C.3    11  ILE11       0.1727
     14  C        -25.3110   21.3580  -32.2360 C.2    11  ILE11       0.2617
     15  O        -25.0090   22.4490  -32.7000 O.2    11  ILE11      -0.2715
     16  CB       -27.3870   21.7420  -30.8590 C.3    11  ILE11       0.0290
     17  CG1      -27.9830   21.4770  -29.4740 C.3    11  ILE11       0.0022
     18  CG2      -28.1920   20.9230  -31.8430 C.3    11  ILE11       0.0023
     19  CD1      -29.0720   22.3920  -29.1170 C.3    11  ILE11       0.0001
     20  N        -25.1420   20.2050  -32.8630 N.am   12  THR12      -0.1937
     21  CA       -24.6020   20.1200  -34.2230 C.3    12  THR12       0.2028
     22  C        -25.3660   19.1220  -35.0630 C.2    12  THR12       0.2642
     23  O        -25.9270   18.1630  -34.5730 O.2    12  THR12      -0.2714
     24  CB       -23.0570   19.7710  -34.2440 C.3    12  THR12       0.1808
     25  OG1      -22.5680   19.8380  -35.5990 O.3    12  THR12      -0.2208
     26  CG2      -22.8030   18.3610  -33.6820 C.3    12  THR12       0.0379
     27  N        -25.3130   19.3300  -36.3870 N.am   13  LYS13      -0.1977
     28  CA       -25.7770   18.3390  -37.3350 C.3    13  LYS13       0.1596
     29  C        -24.6940   17.2650  -37.4530 C.2    13  LYS13       0.2287
     30  O        -23.4930   17.5600  -37.3470 O.2    13  LYS13      -0.2864
     31  CB       -25.9560   18.9860  -38.7210 C.3    13  LYS13       0.0298
     32  CG       -26.5490   18.0710  -39.7830 C.3    13  LYS13       0.0038
     33  CD       -26.8130   18.7680  -41.1140 C.3    13  LYS13       0.0206
     34  CE       -27.5900   17.8310  -42.0410 C.3    13  LYS13       0.1093
     35  NZ       -28.0710   18.5720  -43.2190 N.3    13  LYS13      -0.1314
     36  N        -20.4130   16.9920  -39.2520 N.3    16  LYS16      -0.1245
     37  CA       -19.5880   18.1960  -39.0520 C.3    16  LYS16       0.1561
     38  C        -18.3860   17.9220  -38.1570 C.2    16  LYS16       0.2260
     39  O        -18.4360   17.0460  -37.2970 O.2    16  LYS16      -0.2867
     40  CB       -20.3990   19.3080  -38.4290 C.3    16  LYS16       0.0271
     41  CG       -21.1660   20.1570  -39.4390 C.3    16  LYS16       0.0035
     42  CD       -22.0700   21.1620  -38.7380 C.3    16  LYS16       0.0206
     43  CE       -21.3140   22.2290  -37.9280 C.3    16  LYS16       0.1093
     44  NZ       -21.9790   22.4060  -36.5950 N.3    16  LYS16      -0.1314
     45  N        -31.3800   19.0950  -38.6960 N.3   113  LEU113     -0.1245
     46  CA       -31.7000   20.2950  -37.9240 C.3   113  LEU113      0.1561
     47  C        -33.1200   20.7850  -38.1260 C.2   113  LEU113      0.2260
     48  O        -33.5810   21.5870  -37.3690 O.2   113  LEU113     -0.2867
     49  CB       -30.7270   21.4330  -38.2180 C.3   113  LEU113      0.0270
     50  CG       -29.2540   21.1670  -37.8010 C.3   113  LEU113      0.0019
     51  CD1      -28.4350   22.4130  -38.1900 C.3   113  LEU113      0.0001
     52  CD2      -29.0660   20.8450  -36.3370 C.3   113  LEU113      0.0001
     53  N        -31.1130   25.2290  -28.9770 N.3   212  GLY212     -0.1210
     54  CA       -31.2700   24.7610  -30.3560 C.3   212  GLY212      0.1956
     55  C        -30.3260   25.4170  -31.2930 C.2   212  GLY212      0.2612
     56  O        -29.0920   25.3130  -31.1210 O.2   212  GLY212     -0.2717
     57  N        -30.8760   26.1000  -32.2930 N.am  213  LEU213     -0.1965
     58  CA       -30.0910   26.6580  -33.3770 C.3   213  LEU213      0.1728
     59  C        -29.4520   28.0000  -32.9790 C.2   213  LEU213      0.2616
     60  O        -29.7860   28.5910  -31.9870 O.2   213  LEU213     -0.2715
     61  CB       -30.9330   26.8260  -34.6450 C.3   213  LEU213      0.0311
     62  CG       -31.6540   25.5600  -35.1880 C.3   213  LEU213      0.0022
     63  CD1      -32.1670   25.8860  -36.5900 C.3   213  LEU213      0.0001
     64  CD2      -30.6760   24.4230  -35.2460 C.3   213  LEU213      0.0001
     65  N        -28.4590   28.4120  -33.7210 N.am  214  SER214     -0.1950
     66  CA       -27.8310   29.6730  -33.4310 C.3   214  SER214      0.1924
     67  C        -28.1530   30.6090  -34.5760 C.2   214  SER214      0.2314
     68  O        -28.7210   30.1900  -35.5730 O.2   214  SER214     -0.2863
     69  CB       -26.3390   29.4300  -33.2270 C.3   214  SER214      0.2116
     70  OG       -25.6870   29.5130  -34.4480 O.3   214  SER214     -0.2180
     71  N        -27.0070   29.3510  -38.1490 N.3   217  ASP217     -0.1239
     72  CA       -27.6820   28.2490  -38.8580 C.3   217  ASP217      0.1674
     73  C        -28.6550   28.6770  -39.9500 C.2   217  ASP217      0.2266
     74  O        -29.3990   29.6190  -39.7910 O.2   217  ASP217     -0.2867
     75  CB       -28.4050   27.3690  -37.8610 C.3   217  ASP217      0.1410
     76  CG       -27.4670   26.6020  -36.9870 C.2   217  ASP217      0.3668
     77  OD1      -26.4910   26.0350  -37.5330 O.co2 217  ASP217     -0.2456
     78  OD2      -27.6950   26.5410  -35.7450 O.co2 217  ASP217     -0.2456
     79  N        -31.9830   28.7920  -29.7210 N.3   228  THR228     -0.1218
     80  CA       -31.8380   28.7070  -28.2770 C.3   228  THR228      0.1862
     81  C        -32.6480   29.8740  -27.7370 C.2   228  THR228      0.2287
     82  O        -32.5250   31.0190  -28.2490 O.2   228  THR228     -0.2866
     83  CB       -30.3560   28.9040  -27.9390 C.3   228  THR228      0.1770
     84  OG1      -29.6410   27.7300  -28.3950 O.3   228  THR228     -0.2211
     85  CG2      -30.1310   29.2370  -26.4080 C.3   228  THR228      0.0375
@<TRIPOS>BOND
     1    35    34    1
     2    34    33    1
     3    33    32    1
     4    73    74    2
     5    73    72    1
     6    32    31    1
     7    41    42    1
     8    41    40    1
     9    36    37    1
    10    37    40    1
    11    37    38    1
    12    72    71    1
    13    72    75    1
    14    42    43    1
    15    31    28    1
    16    45    46    1
    17    49    46    1
    18    49    50    1
    19    51    50    1
    20    38    39    2
    21    47    46    1
    22    47    48    2
    23    43    44    1
    24    75    76    1
    25    50    52    1
    26    77    76   ar
    27    29    30    2
    28    29    28    1
    29    28    27    1
    30    76    78   ar
    31    63    62    1
    32    27    22   am
    33    25    24    1
    34    68    67    2
    35    64    62    1
    36    62    61    1
    37    22    23    2
    38    22    21    1
    39    11     9    1
    40    61    58    1
    41    67    66    1
    42    70    69    1
    43    24    21    1
    44    24    26    1
    45    21    20    1
    46    65    66    1
    47    65    59   am
    48    66    69    1
    49     9    10    1
    50     9     8    2
    51    58    59    1
    52    58    57    1
    53    59    60    2
    54    20    14   am
    55    15    14    2
    56     8     7    1
    57    57    55   am
    58    14    13    1
    59    18    16    1
    60    55    56    2
    61    55    54    1
    62     7     6    1
    63    16    13    1
    64    16    17    1
    65    13    12    1
    66     6     5    1
    67    54    53    1
    68    12     3   am
    69    79    80    1
    70    17    19    1
    71     5     2    1
    72     3     4    2
    73     3     2    1
    74    84    83    1
    75     2     1    1
    76    80    83    1
    77    80    81    1
    78    82    81    2
    79    83    85    1
