@<TRIPOS>MOLECULE
tmp/6ehaB01.pdb
 171 163 0 0 0
SMALL
GASTEIGER

@<TRIPOS>ATOM
      1  N         18.2450   29.7740   -1.9180 N.3    16  HIS16      -0.1241
      2  CA        18.8810   28.6740   -1.2280 C.3    16  HIS16       0.1621
      3  C         20.3880   28.9110   -1.1670 C.2    16  HIS16       0.2264
      4  O         21.0340   28.5750   -0.1800 O.2    16  HIS16      -0.2867
      5  CB        18.5850   27.3550   -1.9450 C.3    16  HIS16       0.0745
      6  CG        19.4260   26.2290   -1.4780 C.ar   16  HIS16       0.0817
      7  ND1       18.9650   25.2710   -0.5960 N.ar   16  HIS16      -0.2268
      8  CD2       20.7230   25.9410   -1.7180 C.ar   16  HIS16       0.1154
      9  CE1       19.9360   24.4120   -0.3690 C.ar   16  HIS16       0.1986
     10  NE2       21.0220   24.8110   -1.0040 N.ar   16  HIS16      -0.2212
     11  N         26.5390   33.0140    9.2600 N.3    24  PHE24      -0.1227
     12  CA        26.4020   31.9760   10.2590 C.3    24  PHE24       0.1736
     13  C         26.4900   30.5470    9.6710 C.2    24  PHE24       0.2595
     14  O         27.0820   29.6560   10.2770 O.2    24  PHE24      -0.2718
     15  CB        25.1180   32.2050   11.0430 C.3    24  PHE24       0.0547
     16  CG        24.9040   31.2320   12.1300 C.ar   24  PHE24      -0.0202
     17  CD1       25.6030   31.3160   13.3100 C.ar   24  PHE24      -0.0042
     18  CD2       24.0100   30.1760   11.9620 C.ar   24  PHE24      -0.0042
     19  CE1       25.3910   30.3940   14.3330 C.ar   24  PHE24      -0.0003
     20  CE2       23.7970   29.2440   12.9810 C.ar   24  PHE24      -0.0003
     21  CZ        24.4850   29.3590   14.1720 C.ar   24  PHE24      -0.0000
     22  N         25.9120   30.3310    8.5010 N.am   25  MET25      -0.1979
     23  CA        25.9770   29.0300    7.8070 C.3    25  MET25       0.1605
     24  C         27.3360   28.7000    7.2450 C.2    25  MET25       0.2287
     25  O         27.8130   27.5720    7.3810 O.2    25  MET25      -0.2864
     26  CB        24.9440   28.9480    6.6800 C.3    25  MET25       0.0413
     27  CG        23.5160   28.6710    7.1050 C.3    25  MET25       0.0598
     28  SD        23.4600   27.0300    7.8760 S.3    25  MET25      -0.1393
     29  CE        23.4860   27.6610    9.5480 C.3    25  MET25       0.0692
     30  N         29.2870   27.7270   10.1430 N.3    28  PHE28      -0.1241
     31  CA        28.8860   26.4040   10.5840 C.3    28  PHE28       0.1605
     32  C         29.5790   25.3330    9.7530 C.2    28  PHE28       0.2264
     33  O         30.2220   24.4500   10.3150 O.2    28  PHE28      -0.2867
     34  CB        27.3620   26.2280   10.5130 C.3    28  PHE28       0.0534
     35  CG        26.8610   24.9950   11.2200 C.ar   28  PHE28      -0.0203
     36  CD1       27.0980   23.7290   10.7050 C.ar   28  PHE28      -0.0042
     37  CD2       26.1450   25.0920   12.4050 C.ar   28  PHE28      -0.0042
     38  CE1       26.6310   22.5850   11.3630 C.ar   28  PHE28      -0.0003
     39  CE2       25.6760   23.9600   13.0500 C.ar   28  PHE28      -0.0003
     40  CZ        25.9240   22.7060   12.5390 C.ar   28  PHE28      -0.0000
     41  N         20.5200   27.5700   17.4540 N.3    41  VAL41      -0.1245
     42  CA        19.8850   26.8560   16.2990 C.3    41  VAL41       0.1561
     43  C         18.8370   25.8770   16.7580 C.2    41  VAL41       0.2260
     44  O         17.7380   25.8610   16.2480 O.2    41  VAL41      -0.2867
     45  CB        20.8250   26.3140   15.2620 C.3    41  VAL41       0.0252
     46  CG1       22.1810   26.9650   15.3660 C.3    41  VAL41       0.0019
     47  CG2       20.9220   24.7960   15.3680 C.3    41  VAL41       0.0019
     48  N         15.7850   27.6630   17.9100 N.3    44  SER44      -0.1202
     49  CA        15.0530   28.1840   16.7500 C.3    44  SER44       0.2020
     50  C         14.2230   27.0950   16.0680 C.2    44  SER44       0.2618
     51  O         13.0250   27.2790   15.8120 O.2    44  SER44      -0.2717
     52  CB        16.0240   28.8080   15.7470 C.3    44  SER44       0.2103
     53  OG        16.7120   29.9210   16.2940 O.3    44  SER44      -0.2182
     54  N         14.8850   25.9580   15.8380 N.am   45  LEU45      -0.1979
     55  CA        14.2540   24.8250   15.2270 C.3    45  LEU45       0.1596
     56  C         13.0260   24.3850   15.9920 C.2    45  LEU45       0.2287
     57  O         11.9840   24.0980   15.3980 O.2    45  LEU45      -0.2864
     58  CB        15.2530   23.7020   15.0700 C.3    45  LEU45       0.0297
     59  CG        16.2200   23.8780   13.8930 C.3    45  LEU45       0.0022
     60  CD1       17.3330   22.8330   13.9600 C.3    45  LEU45       0.0001
     61  CD2       15.5600   23.8030   12.5310 C.3    45  LEU45       0.0001
     62  N         10.0880   26.8330   15.5150 N.3    48  ILE48      -0.1245
     63  CA         9.6380   26.7010   14.1440 C.3    48  ILE48       0.1561
     64  C          8.7820   25.4380   13.9850 C.2    48  ILE48       0.2260
     65  O          7.6090   25.4880   13.5780 O.2    48  ILE48      -0.2867
     66  CB        10.8220   26.6710   13.1680 C.3    48  ILE48       0.0252
     67  CG1       11.4860   28.0520   13.1050 C.3    48  ILE48       0.0019
     68  CG2       10.3690   26.3000   11.7520 C.3    48  ILE48       0.0019
     69  CD1       12.8990   28.0120   12.5080 C.3    48  ILE48       0.0001
     70  N         11.2320   23.1390    4.9750 N.3   127  ARG127     -0.1245
     71  CA        11.7230   22.5550    6.1820 C.3   127  ARG127      0.1563
     72  C         12.0760   21.0870    5.9840 C.2   127  ARG127      0.2260
     73  O         13.2550   20.7450    6.0680 O.2   127  ARG127     -0.2867
     74  CB        10.7410   22.7610    7.3570 C.3   127  ARG127      0.0307
     75  CG        11.1260   23.9290    8.2930 C.3   127  ARG127      0.0489
     76  CD        12.4750   23.6690    9.0130 C.3   127  ARG127      0.2205
     77  NE        13.3950   24.6980    8.6990 N.pl3 127  ARG127     -0.0865
     78  CZ        14.7040   24.5960    8.6530 C.cat 127  ARG127      0.5346
     79  NH1       15.3820   23.5250    8.9360 N.pl3 127  ARG127      0.1354
     80  NH2       15.3430   25.6460    8.3020 N.pl3 127  ARG127      0.1354
     81  N         14.5760   19.9130    3.0990 N.3   130  GLY130     -0.1210
     82  CA        15.9140   20.3990    3.3380 C.3   130  GLY130      0.1956
     83  C         16.4820   19.6280    4.5110 C.2   130  GLY130      0.2611
     84  O         17.5990   19.1320    4.4460 O.2   130  GLY130     -0.2717
     85  N         15.7080   19.5390    5.5900 N.am  131  ASP131     -0.1973
     86  CA        16.1760   18.8860    6.8560 C.3   131  ASP131      0.1709
     87  C         16.5400   17.4490    6.6270 C.2   131  ASP131      0.2293
     88  O         17.5110   16.9630    7.1670 O.2   131  ASP131     -0.2864
     89  CB        15.1900   19.1060    8.0160 C.3   131  ASP131      0.1436
     90  CG        15.1960   20.5620    8.4830 C.2   131  ASP131      0.3671
     91  OD1       16.0960   21.2970    8.0470 O.co2 131  ASP131     -0.2456
     92  OD2       14.2890   21.0560    9.2480 O.co2 131  ASP131     -0.2456
     93  N         17.7660   16.4520    3.5770 N.3   133  SER133     -0.1202
     94  CA        18.8350   16.3780    2.5810 C.3   133  SER133      0.2020
     95  C         20.2570   16.5800    3.1040 C.2   133  SER133      0.2619
     96  O         21.2000   16.5340    2.3440 O.2   133  SER133     -0.2717
     97  CB        18.5900   17.4110    1.4830 C.3   133  SER133      0.2103
     98  OG        17.2630   17.3520    1.0080 O.3   133  SER133     -0.2182
     99  N         20.4070   16.8350    4.3810 N.am  134  GLY134     -0.1942
    100  CA        21.6820   17.2880    4.8940 C.3   134  GLY134      0.2014
    101  C         21.9760   17.1080    6.3490 C.2   134  GLY134      0.2639
    102  O         23.0340   17.5490    6.7990 O.2   134  GLY134     -0.2714
    103  N         21.0760   16.4360    7.0790 N.am  135  GLY135     -0.1954
    104  CA        21.3690   15.9390    8.4330 C.3   135  GLY135      0.1869
    105  C         22.6430   15.0930    8.5070 C.2   135  GLY135      0.2309
    106  O         23.3110   15.1170    9.5080 O.2   135  GLY135     -0.2863
    107  N         26.1190   17.6490    8.1280 N.3   138  LEU138     -0.1245
    108  CA        26.1150   18.6760    9.1690 C.3   138  LEU138      0.1561
    109  C         26.0610   18.0920   10.5720 C.2   138  LEU138      0.2260
    110  O         26.5760   18.6950   11.5040 O.2   138  LEU138     -0.2867
    111  CB        24.9670   19.6920    8.9710 C.3   138  LEU138      0.0270
    112  CG        25.0880   20.6010    7.7250 C.3   138  LEU138      0.0019
    113  CD1       23.8110   21.3840    7.5100 C.3   138  LEU138      0.0001
    114  CD2       26.2520   21.5800    7.7650 C.3   138  LEU138      0.0001
    115  N         17.4490   15.4620   16.5980 N.3   157  PHE157     -0.1227
    116  CA        16.8610   16.1910   15.4900 C.3   157  PHE157      0.1736
    117  C         17.3690   15.7170   14.1030 C.2   157  PHE157      0.2595
    118  O         16.6090   15.6750   13.1640 O.2   157  PHE157     -0.2718
    119  CB        17.0170   17.7240   15.6490 C.3   157  PHE157      0.0547
    120  CG        16.5950   18.5040   14.4160 C.ar  157  PHE157     -0.0202
    121  CD1       15.2330   18.7160   14.1090 C.ar  157  PHE157     -0.0042
    122  CD2       17.5330   18.9600   13.5260 C.ar  157  PHE157     -0.0042
    123  CE1       14.8580   19.3900   12.9750 C.ar  157  PHE157     -0.0003
    124  CE2       17.1520   19.6320   12.3690 C.ar  157  PHE157     -0.0003
    125  CZ        15.8090   19.8620   12.1190 C.ar  157  PHE157     -0.0000
    126  N         18.6310   15.3550   14.0120 N.am  158  PHE158     -0.1976
    127  CA        19.2760   15.0260   12.7680 C.3   158  PHE158      0.1639
    128  C         19.0500   13.5670   12.2940 C.2   158  PHE158      0.2290
    129  O         19.5920   13.1960   11.3090 O.2   158  PHE158     -0.2864
    130  CB        20.7810   15.3400   12.8680 C.3   158  PHE158      0.0560
    131  CG        21.0430   16.7710   13.1720 C.ar  158  PHE158     -0.0200
    132  CD1       21.1580   17.7130   12.1500 C.ar  158  PHE158     -0.0042
    133  CD2       21.0520   17.2160   14.4980 C.ar  158  PHE158     -0.0042
    134  CE1       21.3280   19.0820   12.4690 C.ar  158  PHE158     -0.0003
    135  CE2       21.2110   18.5540   14.8130 C.ar  158  PHE158     -0.0003
    136  CZ        21.3560   19.4890   13.8080 C.ar  158  PHE158     -0.0000
    137  N         14.3310   32.1150    7.0430 N.3   201  ASN201     -0.1240
    138  CA        15.4710   31.3720    7.5460 C.3   201  ASN201      0.1653
    139  C         16.7430   32.2450    7.4740 C.2   201  ASN201      0.2266
    140  O         17.5410   32.3020    8.4380 O.2   201  ASN201     -0.2867
    141  CB        15.6510   30.0510    6.7490 C.3   201  ASN201      0.1155
    142  CG        14.7390   28.9250    7.2530 C.2   201  ASN201      0.2627
    143  OD1       15.0460   28.2820    8.2410 O.2   201  ASN201     -0.2716
    144  ND2       13.5830   28.7240    6.6030 N.am  201  ASN201     -0.0877
    145  N         16.6630   34.8270   10.1080 N.3   204  LEU204     -0.1231
    146  CA        17.0450   34.2360   11.3790 C.3   204  LEU204      0.1693
    147  C         18.5330   34.0250   11.4810 C.2   204  LEU204      0.2592
    148  O         19.1210   34.2440   12.5440 O.2   204  LEU204     -0.2718
    149  CB        16.3220   32.9030   11.5560 C.3   204  LEU204      0.0284
    150  CG        16.6020   32.1110   12.7930 C.3   204  LEU204      0.0019
    151  CD1       16.1920   32.8850   14.0180 C.3   204  LEU204      0.0001
    152  CD2       15.8040   30.8170   12.6760 C.3   204  LEU204      0.0001
    153  N         19.1560   33.5520   10.4040 N.am  205  PHE205     -0.1976
    154  CA        20.5970   33.3360   10.4030 C.3   205  PHE205      0.1639
    155  C         21.3550   34.6200   10.6770 C.2   205  PHE205      0.2290
    156  O         22.2890   34.6270   11.4560 O.2   205  PHE205     -0.2864
    157  CB        21.0760   32.7500    9.0850 C.3   205  PHE205      0.0560
    158  CG        20.6360   31.3560    8.8410 C.ar  205  PHE205     -0.0200
    159  CD1       20.3320   30.5100    9.9010 C.ar  205  PHE205     -0.0042
    160  CD2       20.6550   30.8390    7.5350 C.ar  205  PHE205     -0.0042
    161  CE1       19.9280   29.2060    9.6610 C.ar  205  PHE205     -0.0003
    162  CE2       20.3010   29.5230    7.2870 C.ar  205  PHE205     -0.0003
    163  CZ        19.9120   28.7030    8.3640 C.ar  205  PHE205     -0.0000
    164  N         20.9940   35.5280   14.3750 N.3   208  LEU208     -0.1245
    165  CA        21.7820   34.6760   15.2590 C.3   208  LEU208      0.1561
    166  C         23.2310   35.1080   15.2380 C.2   208  LEU208      0.2260
    167  O         23.8320   35.2310   16.2860 O.2   208  LEU208     -0.2867
    168  CB        21.6930   33.1860   14.8740 C.3   208  LEU208      0.0270
    169  CG        20.3370   32.4970   14.9570 C.3   208  LEU208      0.0019
    170  CD1       20.5980   31.0080   14.7790 C.3   208  LEU208      0.0001
    171  CD2       19.6110   32.7910   16.2550 C.3   208  LEU208      0.0001
@<TRIPOS>BOND
     1     5     6    1
     2     5     2    1
     3     1     2    1
     4     8     6   ar
     5     8    10   ar
     6     6     7   ar
     7     2     3    1
     8     3     4    2
     9    10     9   ar
    10     7     9   ar
    11    98    97    1
    12    97    94    1
    13    96    95    2
    14    94    95    1
    15    94    93    1
    16    81    82    1
    17    95    99   am
    18    82    83    1
    19    99   100    1
    20    84    83    2
    21    83    85   am
    22   100   101    1
    23    70    71    1
    24    85    86    1
    25    72    73    2
    26    72    71    1
    27    71    74    1
    28   101   102    2
    29   101   103   am
    30   144   142   am
    31    87    86    1
    32    87    88    2
    33    26    27    1
    34    26    23    1
    35   141   142    1
    36   141   138    1
    37    86    89    1
    38   137   138    1
    39   103   104    1
    40    27    28    1
    41    24    25    2
    42    24    23    1
    43   142   143    2
    44   162   160   ar
    45   162   163   ar
    46    74    75    1
    47   139   138    1
    48   139   140    2
    49   113   112    1
    50   160   158   ar
    51   112   114    1
    52   112   111    1
    53    23    22    1
    54    28    29    1
    55    89    90    1
    56    91    90   ar
    57   107   108    1
    58    75    76    1
    59    80    78    1
    60   163   161   ar
    61   104   105    1
    62    90    92   ar
    63    22    13   am
    64   105   106    2
    65    78    77    2
    66    78    79    1
    67    77    76    1
    68   158   157    1
    69   158   159   ar
    70   111   108    1
    71   157   154    1
    72   108   109    1
    73    11    12    1
    74   161   159   ar
    75    13    12    1
    76    13    14    2
    77    32    33    2
    78    32    31    1
    79   145   146    1
    80    30    31    1
    81    12    15    1
    82   154   153    1
    83   154   155    1
    84   153   147   am
    85    34    31    1
    86    34    35    1
    87   109   110    2
    88   155   156    2
    89    36    35   ar
    90    36    38   ar
    91    15    16    1
    92    35    37   ar
    93   129   128    2
    94    38    40   ar
    95   146   147    1
    96   146   149    1
    97   147   148    2
    98   149   150    1
    99    68    66    1
   100    18    16   ar
   101    18    20   ar
   102   125   124   ar
   103   125   123   ar
   104    16    17   ar
   105   132   134   ar
   106   132   131   ar
   107   128   127    1
   108   124   122   ar
   109    37    39   ar
   110   134   136   ar
   111    69    67    1
   112    61    59    1
   113    40    39   ar
   114   152   150    1
   115   127   130    1
   116   127   126    1
   117   150   151    1
   118   130   131    1
   119   123   121   ar
   120    20    21   ar
   121    67    66    1
   122   118   117    2
   123    66    63    1
   124   131   133   ar
   125    17    19   ar
   126   122   120   ar
   127    65    64    2
   128   136   135   ar
   129    59    60    1
   130    59    58    1
   131    64    63    1
   132   126   117   am
   133   117   116    1
   134   121   120   ar
   135    63    62    1
   136    21    19   ar
   137   164   165    1
   138   120   119    1
   139   133   135   ar
   140   170   169    1
   141   168   169    1
   142   168   165    1
   143   169   171    1
   144    58    55    1
   145    55    54    1
   146    55    56    1
   147   166   165    1
   148   166   167    2
   149    45    46    1
   150    45    47    1
   151    45    42    1
   152    57    56    2
   153   116   119    1
   154   116   115    1
   155    52    53    1
   156    52    49    1
   157    51    50    2
   158    54    50   am
   159    50    49    1
   160    44    43    2
   161    42    43    1
   162    42    41    1
   163    49    48    1
