@<TRIPOS>MOLECULE
tmp/6ehbB04.pdb
 78 76 0 0 0
SMALL
GASTEIGER

@<TRIPOS>ATOM
      1  N         -3.0050   52.6140   97.7140 N.3   255  ALA255     -0.1245
      2  CA        -1.6540   52.9070   97.2330 C.3   255  ALA255      0.1562
      3  C         -0.8040   51.6730   97.1830 C.2   255  ALA255      0.2260
      4  O         -0.8750   50.8640   98.0650 O.2   255  ALA255     -0.2867
      5  CB        -0.9840   54.0060   98.0660 C.3   255  ALA255      0.0290
      6  N          3.2990   50.4510   96.5150 N.3   257  PHE257     -0.1241
      7  CA         4.6800   50.9110   96.4430 C.3   257  PHE257      0.1605
      8  C          5.5690   49.7630   96.0610 C.2   257  PHE257      0.2264
      9  O          5.3820   48.6240   96.5720 O.2   257  PHE257     -0.2867
     10  CB         5.1830   51.4800   97.8120 C.3   257  PHE257      0.0534
     11  CG         4.3300   52.5860   98.3110 C.ar  257  PHE257     -0.0203
     12  CD1        4.5380   53.8710   97.8870 C.ar  257  PHE257     -0.0042
     13  CD2        3.3300   52.3230   99.2390 C.ar  257  PHE257     -0.0042
     14  CE1        3.7360   54.8990   98.3410 C.ar  257  PHE257     -0.0003
     15  CE2        2.5310   53.3420   99.6960 C.ar  257  PHE257     -0.0003
     16  CZ         2.7350   54.6320   99.2440 C.ar  257  PHE257     -0.0000
     17  N          5.4980   54.6300   93.2160 N.3   279  ALA279     -0.1231
     18  CA         4.2530   54.7180   93.9530 C.3   279  ALA279      0.1694
     19  C          3.1380   54.8900   92.9710 C.2   279  ALA279      0.2593
     20  O          3.2270   55.7420   92.0930 O.2   279  ALA279     -0.2718
     21  CB         4.2960   55.9160   94.8690 C.3   279  ALA279      0.0304
     22  N          2.1150   54.0600   93.1270 N.am  280  THR280     -0.1939
     23  CA         0.9040   54.0830   92.3110 C.3   280  THR280      0.2028
     24  C         -0.3010   54.2340   93.1940 C.2   280  THR280      0.2642
     25  O         -0.4590   53.4440   94.1100 O.2   280  THR280     -0.2714
     26  CB         0.8480   52.7590   91.5080 C.3   280  THR280      0.1808
     27  OG1        2.1250   52.5940   90.8950 O.3   280  THR280     -0.2208
     28  CG2       -0.2970   52.6680   90.4800 C.3   280  THR280      0.0379
     29  N         -1.1930   55.1500   92.8650 N.am  281  TYR281     -0.1973
     30  CA        -2.4440   55.4000   93.6390 C.3   281  TYR281      0.1639
     31  C         -3.6410   55.0250   92.7570 C.2   281  TYR281      0.2290
     32  O         -3.8140   55.6160   91.6740 O.2   281  TYR281     -0.2864
     33  CB        -2.5610   56.8050   94.1030 C.3   281  TYR281      0.0560
     34  CG        -3.6460   56.9450   95.1440 C.ar  281  TYR281     -0.0198
     35  CD1       -3.3530   56.6640   96.5010 C.ar  281  TYR281     -0.0009
     36  CD2       -4.9480   57.3650   94.7960 C.ar  281  TYR281     -0.0009
     37  CE1       -4.3640   56.7660   97.4680 C.ar  281  TYR281      0.0417
     38  CE2       -5.9670   57.4410   95.7570 C.ar  281  TYR281      0.0417
     39  CZ        -5.6370   57.1750   97.0820 C.ar  281  TYR281      0.1957
     40  OH        -6.6250   57.2350   98.0230 O.3   281  TYR281     -0.2866
     41  N         -2.7610   56.9130   89.2220 N.3   289  SER289     -0.1202
     42  CA        -1.6590   57.7460   88.9200 C.3   289  SER289      0.2020
     43  C         -0.4130   57.0940   89.4670 C.2   289  SER289      0.2619
     44  O         -0.5020   56.2590   90.3410 O.2   289  SER289     -0.2717
     45  CB        -1.7810   59.1550   89.5060 C.3   289  SER289      0.2103
     46  OG        -1.7780   59.0640   90.9080 O.3   289  SER289     -0.2182
     47  N          0.7230   57.4410   88.9010 N.am  290  TYR290     -0.1961
     48  CA         1.9710   56.9160   89.4040 C.3   290  TYR290      0.1771
     49  C          3.1530   57.7850   89.1750 C.2   290  TYR290      0.2619
     50  O          3.2070   58.6980   88.3460 O.2   290  TYR290     -0.2715
     51  CB         2.2540   55.4880   88.9230 C.3   290  TYR290      0.0574
     52  CG         2.3550   55.3530   87.4010 C.ar  290  TYR290     -0.0198
     53  CD1        3.5370   55.6150   86.7650 C.ar  290  TYR290     -0.0009
     54  CD2        1.2950   54.8010   86.6790 C.ar  290  TYR290     -0.0009
     55  CE1        3.6520   55.4420   85.3500 C.ar  290  TYR290      0.0417
     56  CE2        1.4210   54.6190   85.2950 C.ar  290  TYR290      0.0417
     57  CZ         2.5860   54.9140   84.7090 C.ar  290  TYR290      0.1957
     58  OH         2.6340   54.7320   83.3070 O.3   290  TYR290     -0.2866
     59  N          4.1990   57.5540   89.9970 N.am  291  ILE291     -0.1977
     60  CA         5.4350   58.2010   89.8490 C.3   291  ILE291      0.1596
     61  C          6.5530   57.2140   90.1580 C.2   291  ILE291      0.2287
     62  O          6.4200   56.3540   91.0590 O.2   291  ILE291     -0.2864
     63  CB         5.5210   59.5150   90.7060 C.3   291  ILE291      0.0276
     64  CG1        6.7930   60.1650   90.4790 C.3   291  ILE291      0.0022
     65  CG2        5.3200   59.1780   92.1760 C.3   291  ILE291      0.0022
     66  CD1        6.8550   61.5750   91.0400 C.3   291  ILE291      0.0001
     67  N          6.2550   59.8990   85.2370 N.3   311  ILE311     -0.1231
     68  CA         5.0410   60.2330   85.8750 C.3   311  ILE311      0.1692
     69  C          3.9430   59.7210   84.9320 C.2   311  ILE311      0.2592
     70  O          3.9800   59.9820   83.7140 O.2   311  ILE311     -0.2718
     71  CB         4.9480   61.7570   86.1070 C.3   311  ILE311      0.0266
     72  CG1        6.1400   62.2070   86.9840 C.3   311  ILE311      0.0019
     73  CG2        3.6380   62.1730   86.7170 C.3   311  ILE311      0.0020
     74  CD1        6.3340   63.6800   86.9530 C.3   311  ILE311      0.0001
     75  N          2.9560   59.0660   85.4570 N.am  312  GLY312     -0.1957
     76  CA         1.8590   58.5210   84.6900 C.3   312  GLY312      0.1869
     77  C          0.5040   58.7770   85.1920 C.2   312  GLY312      0.2309
     78  O          0.2700   58.8990   86.4200 O.2   312  GLY312     -0.2863
@<TRIPOS>BOND
     1    58    57    1
     2    70    69    2
     3    76    77    1
     4    76    75    1
     5    57    56   ar
     6    57    55   ar
     7    69    75   am
     8    69    68    1
     9    77    78    2
    10    67    68    1
    11    56    54   ar
    12    55    53   ar
    13    68    71    1
    14    71    73    1
    15    71    72    1
    16    54    52   ar
    17    53    52   ar
    18    74    72    1
    19    52    51    1
    20    50    49    2
    21    47    48    1
    22    47    43   am
    23    42    41    1
    24    42    43    1
    25    42    45    1
    26    51    48    1
    27    49    48    1
    28    49    59   am
    29    43    44    2
    30    45    46    1
    31    60    59    1
    32    60    61    1
    33    60    63    1
    34    61    62    2
    35    64    63    1
    36    64    66    1
    37    28    26    1
    38    63    65    1
    39    27    26    1
    40    26    23    1
    41    32    31    2
    42    20    19    2
    43    23    22    1
    44    23    24    1
    45    31    30    1
    46    29    24   am
    47    29    30    1
    48    19    22   am
    49    19    18    1
    50    24    25    2
    51    17    18    1
    52    30    33    1
    53    18    21    1
    54    33    34    1
    55    36    34   ar
    56    36    38   ar
    57    34    35   ar
    58    38    39   ar
    59     8     7    1
    60     8     9    2
    61     7     6    1
    62     7    10    1
    63    35    37   ar
    64    39    37   ar
    65    39    40    1
    66     3     2    1
    67     3     4    2
    68     2     1    1
    69     2     5    1
    70    10    11    1
    71    12    11   ar
    72    12    14   ar
    73    11    13   ar
    74    14    16   ar
    75    13    15   ar
    76    16    15   ar
