@<TRIPOS>MOLECULE
tmp/6ehbC07.pdb
 103 100 0 0 0
SMALL
GASTEIGER

@<TRIPOS>ATOM
      1  N        -24.7040   19.4650   57.4680 N.3   252  LEU252     -0.1245
      2  CA       -25.1280   18.3450   58.3420 C.3   252  LEU252      0.1561
      3  C        -24.9120   18.7550   59.7910 C.2   252  LEU252      0.2260
      4  O        -23.7750   18.8710   60.3100 O.2   252  LEU252     -0.2867
      5  CB       -24.2650   17.1920   57.9350 C.3   252  LEU252      0.0270
      6  CG       -24.5540   15.7550   58.0660 C.3   252  LEU252      0.0019
      7  CD1      -26.0060   15.4460   57.6980 C.3   252  LEU252      0.0001
      8  CD2      -23.5490   15.0180   57.1820 C.3   252  LEU252      0.0001
      9  N        -24.2350   20.8880   62.6630 N.3   254  GLN254     -0.1231
     10  CA       -23.4600   22.1420   62.8040 C.3   254  GLN254      0.1698
     11  C        -22.3020   22.1890   61.8150 C.2   254  GLN254      0.2592
     12  O        -21.4690   23.0930   61.9000 O.2   254  GLN254     -0.2718
     13  CB       -23.0240   22.3000   64.2270 C.3   254  GLN254      0.0381
     14  CG       -24.2460   22.5300   65.1050 C.3   254  GLN254      0.0905
     15  CD       -23.9380   22.5040   66.6010 C.2   254  GLN254      0.2608
     16  OE1      -22.9080   23.0420   67.1080 O.2   254  GLN254     -0.2717
     17  NE2      -24.8390   21.8880   67.3470 N.am  254  GLN254     -0.0878
     18  N        -22.1600   21.1830   60.9690 N.am  255  ALA255     -0.1980
     19  CA       -21.0360   21.1120   60.0530 C.3   255  ALA255      0.1597
     20  C        -21.4600   21.4780   58.6810 C.2   255  ALA255      0.2287
     21  O        -22.5860   21.1640   58.2140 O.2   255  ALA255     -0.2864
     22  CB       -20.4650   19.6960   60.0300 C.3   255  ALA255      0.0319
     23  N        -19.8980   21.2520   54.6140 N.3   257  PHE257     -0.1241
     24  CA       -18.8490   20.7200   53.7310 C.3   257  PHE257      0.1605
     25  C        -18.9930   21.3630   52.4040 C.2   257  PHE257      0.2264
     26  O        -20.1160   21.4470   51.8490 O.2   257  PHE257     -0.2867
     27  CB       -19.0390   19.1950   53.6220 C.3   257  PHE257      0.0534
     28  CG       -18.9100   18.5080   54.9330 C.ar  257  PHE257     -0.0203
     29  CD1      -17.6710   18.2350   55.4920 C.ar  257  PHE257     -0.0042
     30  CD2      -20.0480   18.1420   55.6590 C.ar  257  PHE257     -0.0042
     31  CE1      -17.5450   17.5680   56.6980 C.ar  257  PHE257     -0.0003
     32  CE2      -19.8760   17.5080   56.8690 C.ar  257  PHE257     -0.0003
     33  CZ       -18.6840   17.2480   57.4210 C.ar  257  PHE257     -0.0000
     34  N        -14.1810   21.5310   55.2180 N.3   279  ALA279     -0.1231
     35  CA       -15.0810   21.1470   56.3140 C.3   279  ALA279      0.1694
     36  C        -15.0200   22.2490   57.3420 C.2   279  ALA279      0.2593
     37  O        -13.9240   22.6180   57.8580 O.2   279  ALA279     -0.2718
     38  CB       -14.6220   19.8560   56.9560 C.3   279  ALA279      0.0304
     39  N        -16.1950   22.7740   57.7290 N.am  280  THR280     -0.1939
     40  CA       -16.2710   23.8680   58.7190 C.3   280  THR280      0.2028
     41  C        -17.2550   23.4150   59.8300 C.2   280  THR280      0.2642
     42  O        -18.3670   22.9820   59.4850 O.2   280  THR280     -0.2714
     43  CB       -16.7370   25.1790   58.0300 C.3   280  THR280      0.1808
     44  OG1      -15.8830   25.3840   56.8940 O.3   280  THR280     -0.2208
     45  CG2      -16.8140   26.2890   58.9310 C.3   280  THR280      0.0379
     46  N        -16.8640   23.5860   61.0560 N.am  281  TYR281     -0.1973
     47  CA       -17.7170   23.2120   62.1620 C.3   281  TYR281      0.1639
     48  C        -18.1160   24.4470   62.9490 C.2   281  TYR281      0.2290
     49  O        -17.2270   25.1220   63.4810 O.2   281  TYR281     -0.2864
     50  CB       -17.0840   22.1510   63.0700 C.3   281  TYR281      0.0560
     51  CG       -18.0660   21.6550   64.1630 C.ar  281  TYR281     -0.0198
     52  CD1      -18.9880   20.6960   63.8690 C.ar  281  TYR281     -0.0009
     53  CD2      -18.0340   22.1920   65.4210 C.ar  281  TYR281     -0.0009
     54  CE1      -19.9260   20.2930   64.8420 C.ar  281  TYR281      0.0417
     55  CE2      -18.9480   21.8080   66.4020 C.ar  281  TYR281      0.0417
     56  CZ       -19.8950   20.8850   66.0900 C.ar  281  TYR281      0.1957
     57  OH       -20.7910   20.5270   67.1320 O.3   281  TYR281     -0.2866
     58  N        -14.5080   26.2690   63.5000 N.3   289  SER289     -0.1202
     59  CA       -13.2480   25.7560   63.0210 C.3   289  SER289      0.2020
     60  C        -13.3750   25.2610   61.5950 C.2   289  SER289      0.2619
     61  O        -14.4180   24.8820   61.1050 O.2   289  SER289     -0.2717
     62  CB       -12.6930   24.6630   63.9070 C.3   289  SER289      0.2103
     63  OG       -13.5660   23.5710   63.8560 O.3   289  SER289     -0.2182
     64  N        -12.2560   25.2110   60.8700 N.am  290  TYR290     -0.1961
     65  CA       -12.2980   24.6370   59.5510 C.3   290  TYR290      0.1771
     66  C        -10.9220   24.0720   59.0940 C.2   290  TYR290      0.2619
     67  O         -9.8400   24.4080   59.6340 O.2   290  TYR290     -0.2715
     68  CB       -12.8310   25.6070   58.4680 C.3   290  TYR290      0.0574
     69  CG       -12.0720   26.9230   58.3420 C.ar  290  TYR290     -0.0198
     70  CD1      -10.9060   26.9860   57.5800 C.ar  290  TYR290     -0.0009
     71  CD2      -12.5420   28.0980   58.9240 C.ar  290  TYR290     -0.0009
     72  CE1      -10.2040   28.1960   57.4260 C.ar  290  TYR290      0.0417
     73  CE2      -11.8170   29.3150   58.7670 C.ar  290  TYR290      0.0417
     74  CZ       -10.6900   29.3070   58.0180 C.ar  290  TYR290      0.1957
     75  OH       -10.0450   30.5610   57.9050 O.3   290  TYR290     -0.2866
     76  N        -11.0500   23.1860   58.1370 N.am  291  ILE291     -0.1977
     77  CA        -9.9200   22.6460   57.4330 C.3   291  ILE291      0.1596
     78  C        -10.2020   22.5850   55.9650 C.2   291  ILE291      0.2287
     79  O        -11.3140   22.2800   55.5380 O.2   291  ILE291     -0.2864
     80  CB        -9.4560   21.2820   58.0060 C.3   291  ILE291      0.0276
     81  CG1       -8.1830   20.8070   57.2930 C.3   291  ILE291      0.0022
     82  CG2      -10.5860   20.2800   57.8460 C.3   291  ILE291      0.0022
     83  CD1       -7.4670   19.6420   58.0070 C.3   291  ILE291      0.0001
     84  N         -5.8450   25.5590   57.9170 N.3   314  ILE314     -0.1231
     85  CA        -6.5580   25.2150   59.1040 C.3   314  ILE314      0.1692
     86  C         -6.9440   26.5240   59.7700 C.2   314  ILE314      0.2593
     87  O         -6.0720   27.4120   59.9350 O.2   314  ILE314     -0.2718
     88  CB        -5.7630   24.3650   60.0690 C.3   314  ILE314      0.0266
     89  CG1       -5.3550   23.0470   59.2870 C.3   314  ILE314      0.0019
     90  CG2       -6.5710   23.9910   61.3030 C.3   314  ILE314      0.0020
     91  CD1       -4.2290   22.2950   59.9650 C.3   314  ILE314      0.0001
     92  N         -8.2090   26.6510   60.1510 N.am  315  GLY315     -0.1942
     93  CA        -8.6610   27.8860   60.7430 C.3   315  GLY315      0.2014
     94  C         -9.4800   27.7290   62.0210 C.2   315  GLY315      0.2638
     95  O        -10.1840   26.7230   62.2290 O.2   315  GLY315     -0.2714
     96  N         -9.4280   28.8140   62.8030 N.am  316  LEU316     -0.1977
     97  CA       -10.3440   28.9920   63.9500 C.3   316  LEU316      0.1596
     98  C        -10.8440   30.4200   63.8940 C.2   316  LEU316      0.2287
     99  O        -10.0120   31.3380   63.8090 O.2   316  LEU316     -0.2864
    100  CB        -9.5800   28.7230   65.2180 C.3   316  LEU316      0.0297
    101  CG       -10.3490   28.3740   66.4640 C.3   316  LEU316      0.0022
    102  CD1      -11.2090   27.0940   66.2650 C.3   316  LEU316      0.0001
    103  CD2       -9.2630   28.1460   67.5520 C.3   316  LEU316      0.0001
@<TRIPOS>BOND
     1    26    25    2
     2    25    24    1
     3    27    24    1
     4    27    28    1
     5    24    23    1
     6    28    29   ar
     7    28    30   ar
     8    34    35    1
     9    29    31   ar
    10    79    78    2
    11    30    32   ar
    12    78    77    1
    13    35    38    1
    14    35    36    1
    15    31    33   ar
    16    32    33   ar
    17    44    43    1
    18     8     6    1
    19    81    80    1
    20    81    83    1
    21    36    39   am
    22    36    37    2
    23    72    70   ar
    24    72    74   ar
    25    77    80    1
    26    77    76    1
    27     1     2    1
    28    70    69   ar
    29     7     6    1
    30    39    40    1
    31    82    80    1
    32    75    74    1
    33    84    85    1
    34     5     6    1
    35     5     2    1
    36    74    73   ar
    37    43    40    1
    38    43    45    1
    39    76    66   am
    40    21    20    2
    41    69    68    1
    42    69    71   ar
    43     2     3    1
    44    68    65    1
    45    20    19    1
    46    40    41    1
    47    73    71   ar
    48    66    65    1
    49    66    67    2
    50    85    86    1
    51    85    88    1
    52    89    91    1
    53    89    88    1
    54    42    41    2
    55    65    64    1
    56    86    87    2
    57    86    92   am
    58     3     4    2
    59    41    46   am
    60    22    19    1
    61    19    18    1
    62    88    90    1
    63    92    93    1
    64    93    94    1
    65    64    60   am
    66    18    11   am
    67    46    47    1
    68    61    60    2
    69    60    59    1
    70    11    12    2
    71    11    10    1
    72    94    95    2
    73    94    96   am
    74    47    48    1
    75    47    50    1
    76     9    10    1
    77    96    97    1
    78    10    13    1
    79    48    49    2
    80    59    58    1
    81    59    62    1
    82    50    51    1
    83    99    98    2
    84    63    62    1
    85    52    51   ar
    86    52    54   ar
    87    98    97    1
    88    97   100    1
    89    51    53   ar
    90    13    14    1
    91    54    56   ar
    92    14    15    1
    93   100   101    1
    94    53    55   ar
    95    56    55   ar
    96    56    57    1
    97   102   101    1
    98   101   103    1
    99    15    16    2
   100    15    17   am
