@<TRIPOS>MOLECULE
tmp/6ehbC01.pdb
 118 113 0 0 0
SMALL
GASTEIGER

@<TRIPOS>ATOM
      1  N        -24.2320   31.1590   53.5730 N.3     3  ILE3       -0.1245
      2  CA       -23.5490   30.2940   52.6770 C.3     3  ILE3        0.1561
      3  C        -22.1950   30.8810   52.2110 C.2     3  ILE3        0.2260
      4  O        -21.3040   30.1200   51.8300 O.2     3  ILE3       -0.2867
      5  CB       -24.2940   29.9680   51.3830 C.3     3  ILE3        0.0252
      6  CG1      -24.5920   31.1830   50.5550 C.3     3  ILE3        0.0019
      7  CG2      -25.5400   29.1930   51.7310 C.3     3  ILE3        0.0019
      8  CD1      -24.8460   30.8500   49.0880 C.3     3  ILE3        0.0001
      9  N        -19.4150   31.7110   53.5220 N.3     5  GLN5       -0.1245
     10  CA       -18.8390   31.4540   54.8330 C.3     5  GLN5        0.1566
     11  C        -17.6590   32.4030   55.2030 C.2     5  GLN5        0.2260
     12  O        -17.5910   32.8230   56.3360 O.2     5  GLN5       -0.2867
     13  CB       -18.3470   29.9900   54.9600 C.3     5  GLN5        0.0367
     14  CG       -19.4210   28.9610   54.6540 C.3     5  GLN5        0.0905
     15  CD       -18.9890   27.5700   55.0770 C.2     5  GLN5        0.2608
     16  OE1      -19.0400   27.1990   56.2780 O.2     5  GLN5       -0.2717
     17  NE2      -18.3670   26.8600   54.1470 N.am    5  GLN5       -0.0878
     18  N        -18.3040   30.0470   48.4480 N.3   117  ILE117     -0.1245
     19  CA       -18.9670   29.4490   49.6180 C.3   117  ILE117      0.1561
     20  C        -18.0240   28.7600   50.5690 C.2   117  ILE117      0.2260
     21  O        -18.4240   28.2700   51.6290 O.2   117  ILE117     -0.2867
     22  CB       -20.0910   28.4830   49.1720 C.3   117  ILE117      0.0252
     23  CG1      -19.4720   27.2630   48.5310 C.3   117  ILE117      0.0019
     24  CG2      -21.1030   29.1940   48.3130 C.3   117  ILE117      0.0019
     25  CD1      -20.4890   26.0810   48.3380 C.3   117  ILE117      0.0001
     26  N        -30.6030   25.6010   46.0240 N.3   220  ARG220     -0.1231
     27  CA       -30.4440   25.2400   47.4030 C.3   220  ARG220      0.1694
     28  C        -31.7510   24.6110   47.9300 C.2   220  ARG220      0.2592
     29  O        -32.8320   25.1600   47.7030 O.2   220  ARG220     -0.2718
     30  CB       -29.9820   26.4010   48.2240 C.3   220  ARG220      0.0321
     31  CG       -30.8970   27.4790   48.6420 C.3   220  ARG220      0.0489
     32  CD       -30.0820   28.6160   49.2770 C.3   220  ARG220      0.2205
     33  NE       -29.9010   28.5400   50.7540 N.pl3 220  ARG220     -0.0865
     34  CZ       -29.3140   29.5080   51.4860 C.cat 220  ARG220      0.5346
     35  NH1      -28.8320   30.5960   50.8830 N.pl3 220  ARG220      0.1354
     36  NH2      -29.2050   29.4420   52.8090 N.pl3 220  ARG220      0.1354
     37  N        -31.6040   23.4890   48.6030 N.am  221  MET221     -0.1965
     38  CA       -32.7610   22.7240   49.1150 C.3   221  MET221      0.1736
     39  C        -32.2920   21.7590   50.1440 C.2   221  MET221      0.2616
     40  O        -31.4700   20.9090   49.8000 O.2   221  MET221     -0.2715
     41  CB       -33.4620   21.9270   48.0090 C.3   221  MET221      0.0427
     42  CG       -34.8820   21.3360   48.4240 C.3   221  MET221      0.0599
     43  SD       -35.9790   22.6390   49.0320 S.3   221  MET221     -0.1393
     44  CE       -36.1360   23.5500   47.4950 C.3   221  MET221      0.0692
     45  N        -32.8670   21.8590   51.3560 N.am  222  GLU222     -0.1963
     46  CA       -32.7740   20.8090   52.3850 C.3   222  GLU222      0.1733
     47  C        -31.2930   20.5470   52.6450 C.2   222  GLU222      0.2616
     48  O        -30.7810   19.4290   52.4490 O.2   222  GLU222     -0.2715
     49  CB       -33.4190   19.4970   51.9150 C.3   222  GLU222      0.0429
     50  CG       -34.9420   19.5100   51.8360 C.3   222  GLU222      0.1163
     51  CD       -35.5910   19.2870   53.1900 C.2   222  GLU222      0.3649
     52  OE1      -35.3850   18.1880   53.7750 O.co2 222  GLU222     -0.2457
     53  OE2      -36.2990   20.2130   53.6660 O.co2 222  GLU222     -0.2457
     54  N        -30.6050   21.5530   53.0920 N.am  223  ASN223     -0.1958
     55  CA       -29.1630   21.2890   53.3850 C.3   223  ASN223      0.1819
     56  C        -28.1460   21.0270   52.1920 C.2   223  ASN223      0.2621
     57  O        -26.9860   20.7790   52.4910 O.2   223  ASN223     -0.2715
     58  CB       -29.0050   20.1470   54.4160 C.3   223  ASN223      0.1195
     59  CG       -29.5980   20.4930   55.7830 C.2   223  ASN223      0.2630
     60  OD1      -29.8790   21.6520   56.1050 O.2   223  ASN223     -0.2716
     61  ND2      -29.7250   19.4930   56.6080 N.am  223  ASN223     -0.0877
     62  N        -28.5820   21.0270   50.9430 N.am  224  LEU224     -0.1963
     63  CA       -27.7420   20.8610   49.8090 C.3   224  LEU224      0.1728
     64  C        -27.7270   22.1700   49.0160 C.2   224  LEU224      0.2616
     65  O        -28.6890   22.9290   48.9800 O.2   224  LEU224     -0.2715
     66  CB       -28.2980   19.7290   48.9730 C.3   224  LEU224      0.0311
     67  CG       -27.7040   19.3670   47.6650 C.3   224  LEU224      0.0022
     68  CD1      -26.2680   18.8390   47.8970 C.3   224  LEU224      0.0001
     69  CD2      -28.5750   18.2360   47.0460 C.3   224  LEU224      0.0001
     70  N        -26.5620   22.5010   48.4500 N.am  225  TYR225     -0.1974
     71  CA       -26.3790   23.6870   47.6010 C.3   225  TYR225      0.1639
     72  C        -25.4780   23.4030   46.3900 C.2   225  TYR225      0.2290
     73  O        -24.4620   22.6840   46.5610 O.2   225  TYR225     -0.2864
     74  CB       -25.6620   24.7380   48.4100 C.3   225  TYR225      0.0560
     75  CG       -25.4610   26.0560   47.7270 C.ar  225  TYR225     -0.0198
     76  CD1      -26.4930   26.9630   47.5950 C.ar  225  TYR225     -0.0009
     77  CD2      -24.2310   26.3510   47.0370 C.ar  225  TYR225     -0.0009
     78  CE1      -26.3480   28.1210   46.9420 C.ar  225  TYR225      0.0417
     79  CE2      -24.0540   27.5570   46.4180 C.ar  225  TYR225      0.0417
     80  CZ       -25.1090   28.4450   46.3120 C.ar  225  TYR225      0.1957
     81  OH       -24.9710   29.6640   45.6760 O.3   225  TYR225     -0.2866
     82  N        -22.2540   22.3260   48.1600 N.3   249  GLY249     -0.1210
     83  CA       -22.1870   22.3560   49.5620 C.3   249  GLY249      0.1956
     84  C        -23.2030   21.4700   50.2690 C.2   249  GLY249      0.2612
     85  O        -24.2790   21.2600   49.6840 O.2   249  GLY249     -0.2717
     86  N        -22.8450   20.9890   51.4320 N.am  250  TYR250     -0.1962
     87  CA       -23.7730   20.1700   52.2200 C.3   250  TYR250      0.1771
     88  C        -23.6770   20.5170   53.6670 C.2   250  TYR250      0.2619
     89  O        -22.5570   20.5860   54.2240 O.2   250  TYR250     -0.2715
     90  CB       -23.5200   18.6940   51.9400 C.3   250  TYR250      0.0574
     91  CG       -24.7100   17.8490   52.3750 C.ar  250  TYR250     -0.0198
     92  CD1      -25.8380   17.7230   51.5550 C.ar  250  TYR250     -0.0009
     93  CD2      -24.7110   17.1640   53.6040 C.ar  250  TYR250     -0.0009
     94  CE1      -26.9760   16.9740   51.9690 C.ar  250  TYR250      0.0417
     95  CE2      -25.8290   16.3920   54.0020 C.ar  250  TYR250      0.0417
     96  CZ       -26.9640   16.3320   53.1950 C.ar  250  TYR250      0.1957
     97  OH       -28.0790   15.5970   53.6010 O.3   250  TYR250     -0.2866
     98  N        -24.8420   20.7200   54.3330 N.am  251  LYS251     -0.1977
     99  CA       -24.9040   21.0490   55.7010 C.3   251  LYS251      0.1596
    100  C        -25.4540   19.8890   56.4960 C.2   251  LYS251      0.2287
    101  O        -26.4860   19.3160   56.1290 O.2   251  LYS251     -0.2864
    102  CB       -25.7190   22.2610   55.9100 C.3   251  LYS251      0.0298
    103  CG       -25.7020   22.6280   57.3700 C.3   251  LYS251      0.0038
    104  CD       -26.6990   23.7400   57.5850 C.3   251  LYS251      0.0206
    105  CE       -26.0710   24.7420   58.5010 C.3   251  LYS251      0.1093
    106  NZ       -26.8900   25.9520   58.4400 N.3   251  LYS251     -0.1314
    107  N        -20.5580   22.1270   57.9300 N.3   256  ALA256     -0.1245
    108  CA       -20.7810   22.4310   56.5200 C.3   256  ALA256      0.1562
    109  C        -19.6110   21.9290   55.7020 C.2   256  ALA256      0.2260
    110  O        -18.4570   22.2000   56.0840 O.2   256  ALA256     -0.2867
    111  CB       -20.8770   23.9510   56.3020 C.3   256  ALA256      0.0290
    112  N        -17.8730   21.8240   51.7800 N.3   258  THR258     -0.1218
    113  CA       -17.9700   22.3350   50.4650 C.3   258  THR258      0.1862
    114  C        -16.8670   21.8640   49.5240 C.2   258  THR258      0.2287
    115  O        -15.8150   21.4260   49.9710 O.2   258  THR258     -0.2866
    116  CB       -18.0070   23.9340   50.3930 C.3   258  THR258      0.1770
    117  OG1      -16.6880   24.4480   50.6090 O.3   258  THR258     -0.2211
    118  CG2      -18.9900   24.5800   51.3410 C.3   258  THR258      0.0375
@<TRIPOS>BOND
     1    81    80    1
     2    26    27    1
     3    80    79   ar
     4    80    78   ar
     5    72    73    2
     6    72    71    1
     7    79    77   ar
     8    78    76   ar
     9    77    75   ar
    10    69    67    1
    11    27    28    1
    12    27    30    1
    13    44    43    1
    14    76    75   ar
    15    71    74    1
    16    71    70    1
    17    67    68    1
    18    67    66    1
    19    29    28    2
    20    75    74    1
    21    28    37   am
    22    41    42    1
    23    41    38    1
    24    82    83    1
    25    30    31    1
    26    24    22    1
    27    25    23    1
    28    42    43    1
    29    18    19    1
    30    70    64   am
    31    23    22    1
    32    37    38    1
    33    31    32    1
    34    66    63    1
    35    65    64    2
    36    64    63    1
    37     8     6    1
    38    38    39    1
    39    22    19    1
    40    32    33    1
    41   114   115    2
    42   114   113    1
    43    83    84    1
    44    19    20    1
    45    85    84    2
    46    40    39    2
    47    63    62    1
    48    39    45   am
    49    84    86   am
    50   116   113    1
    51   116   117    1
    52   116   118    1
    53   113   112    1
    54     6     5    1
    55    20    21    2
    56    33    34    2
    57    35    34    1
    58    62    56   am
    59    45    46    1
    60     5     7    1
    61     5     2    1
    62    86    87    1
    63    34    36    1
    64    92    94   ar
    65    92    91   ar
    66     4     3    2
    67    50    49    1
    68    50    51    1
    69    49    46    1
    70    90    87    1
    71    90    91    1
    72    94    96   ar
    73    56    57    2
    74    56    55    1
    75     3     2    1
    76    87    88    1
    77    91    93   ar
    78    46    47    1
    79    48    47    2
    80    47    54   am
    81     2     1    1
    82    54    55    1
    83    51    53   ar
    84    51    52   ar
    85    96    97    1
    86    96    95   ar
    87    55    58    1
    88     9    10    1
    89    93    95   ar
    90    88    89    2
    91    88    98   am
    92    17    15   am
    93    98    99    1
    94    58    59    1
    95    14    13    1
    96    14    15    1
    97    10    13    1
    98    10    11    1
    99    15    16    2
   100    11    12    2
   101    99   102    1
   102    99   100    1
   103   109   110    2
   104   109   108    1
   105    59    60    2
   106    59    61   am
   107   102   103    1
   108   101   100    2
   109   111   108    1
   110   108   107    1
   111   103   104    1
   112   104   105    1
   113   106   105    1
