@<TRIPOS>MOLECULE
tmp/6ehbB01.pdb
 83 78 0 0 0
SMALL
GASTEIGER

@<TRIPOS>ATOM
      1  N         -3.5040   43.1670   88.4960 N.3     2  GLY2       -0.1210
      2  CA        -3.1700   42.8580   89.8700 C.3     2  GLY2        0.1956
      3  C         -1.7560   43.3180   90.1580 C.2     2  GLY2        0.2611
      4  O         -1.3700   44.4860   89.9320 O.2     2  GLY2       -0.2717
      5  N         -0.9540   42.3690   90.6610 N.am    3  ILE3       -0.1979
      6  CA         0.3620   42.7790   91.0700 C.3     3  ILE3        0.1595
      7  C          1.2170   43.1050   89.8750 C.2     3  ILE3        0.2287
      8  O          2.1680   43.8270   89.9720 O.2     3  ILE3       -0.2864
      9  CB         1.1520   41.7180   91.8880 C.3     3  ILE3        0.0276
     10  CG1        1.2610   40.4450   91.0440 C.3     3  ILE3        0.0022
     11  CG2        0.4600   41.4770   93.2220 C.3     3  ILE3        0.0022
     12  CD1        2.4820   39.6310   91.3950 C.3     3  ILE3        0.0001
     13  N          1.3230   45.3560   87.5780 N.3     5  GLN5       -0.1245
     14  CA         0.6320   46.6280   87.4630 C.3     5  GLN5        0.1566
     15  C          0.6050   47.1690   86.0090 C.2     5  GLN5        0.2260
     16  O         -0.3930   47.7150   85.6090 O.2     5  GLN5       -0.2867
     17  CB         1.2180   47.6550   88.3680 C.3     5  GLN5        0.0367
     18  CG         1.0810   47.2640   89.8770 C.3     5  GLN5        0.0905
     19  CD         1.5010   48.4270   90.7440 C.2     5  GLN5        0.2608
     20  OE1        2.7060   48.6230   91.0260 O.2     5  GLN5       -0.2717
     21  NE2        0.5410   49.2670   91.0910 N.am    5  GLN5       -0.0878
     22  N          3.8100   36.0190   98.9400 N.3   220  ARG220     -0.1245
     23  CA         2.7870   37.0910   99.0840 C.3   220  ARG220      0.1563
     24  C          2.0680   36.9080  100.3920 C.2   220  ARG220      0.2260
     25  O          1.6000   35.7830  100.6590 O.2   220  ARG220     -0.2867
     26  CB         1.8590   36.9090   97.8580 C.3   220  ARG220      0.0307
     27  CG         0.8420   37.9820   97.5810 C.3   220  ARG220      0.0489
     28  CD         0.2250   37.6610   96.2050 C.3   220  ARG220      0.2205
     29  NE        -0.9330   38.5090   95.9400 N.pl3 220  ARG220     -0.0865
     30  CZ        -1.4170   38.8380   94.7400 C.cat 220  ARG220      0.5346
     31  NH1       -0.8310   38.4360   93.6040 N.pl3 220  ARG220      0.1354
     32  NH2       -2.4940   39.6130   94.6780 N.pl3 220  ARG220      0.1354
     33  N          1.2940   47.2730   99.8240 N.3   251  LYS251     -0.1245
     34  CA         0.0110   47.8960   99.5400 C.3   251  LYS251      0.1561
     35  C         -0.5370   48.5190  100.8650 C.2   251  LYS251      0.2260
     36  O         -0.6160   47.8290  101.8930 O.2   251  LYS251     -0.2867
     37  CB        -0.9440   46.8590   99.0470 C.3   251  LYS251      0.0271
     38  CG        -2.3300   47.4280   98.7430 C.3   251  LYS251      0.0035
     39  CD        -3.3350   46.3910   98.3150 C.3   251  LYS251      0.0206
     40  CE        -3.1260   45.9420   96.8910 C.3   251  LYS251      0.1093
     41  NZ        -4.4600   45.6410   96.2850 N.3   251  LYS251     -0.1314
     42  N         -3.8840   50.7090  101.6270 N.3   253  GLY253     -0.1210
     43  CA        -5.1550   51.2850  101.1850 C.3   253  GLY253      0.1956
     44  C         -5.2330   51.1110   99.6450 C.2   253  GLY253      0.2612
     45  O         -5.0910   50.0000   99.0970 O.2   253  GLY253     -0.2717
     46  N         -5.3260   52.2690   99.0000 N.am  254  GLN254     -0.1965
     47  CA        -5.4660   52.3520   97.5720 C.3   254  GLN254      0.1733
     48  C         -4.0780   52.5760   96.9380 C.2   254  GLN254      0.2616
     49  O         -3.9940   52.7670   95.6980 O.2   254  GLN254     -0.2715
     50  CB        -6.4330   53.4840   97.2230 C.3   254  GLN254      0.0408
     51  CG        -7.8830   53.0540   97.4780 C.3   254  GLN254      0.0908
     52  CD        -8.9300   53.8650   96.7170 C.2   254  GLN254      0.2608
     53  OE1       -8.8660   55.0780   96.6330 O.2   254  GLN254     -0.2717
     54  NE2       -9.8890   53.1600   96.1080 N.am  254  GLN254     -0.0878
     55  N         -3.0050   52.6140   97.7140 N.am  255  ALA255     -0.1963
     56  CA        -1.6540   52.9070   97.2330 C.3   255  ALA255      0.1728
     57  C         -0.8040   51.6730   97.1830 C.2   255  ALA255      0.2616
     58  O         -0.8750   50.8640   98.0650 O.2   255  ALA255     -0.2715
     59  CB        -0.9840   54.0060   98.0660 C.3   255  ALA255      0.0334
     60  N          0.0150   51.5100   96.1330 N.am  256  ALA256     -0.1977
     61  CA         0.9320   50.3980   96.0190 C.3   256  ALA256      0.1597
     62  C          2.3140   50.9550   95.7810 C.2   256  ALA256      0.2287
     63  O          2.5380   51.8590   94.9260 O.2   256  ALA256     -0.2864
     64  CB         0.5680   49.5220   94.8290 C.3   256  ALA256      0.0319
     65  N         -4.4160   54.0520   93.2060 N.3   282  TYR282     -0.1241
     66  CA        -5.6440   53.6230   92.5420 C.3   282  TYR282      0.1605
     67  C         -6.8380   54.4410   93.0430 C.2   282  TYR282      0.2264
     68  O         -7.4600   54.0670   94.0220 O.2   282  TYR282     -0.2867
     69  CB        -5.8840   52.1410   92.6990 C.3   282  TYR282      0.0534
     70  CG        -4.7760   51.2980   92.0310 C.ar  282  TYR282     -0.0201
     71  CD1       -3.5440   51.1550   92.6250 C.ar  282  TYR282     -0.0009
     72  CD2       -5.0000   50.6870   90.8090 C.ar  282  TYR282     -0.0009
     73  CE1       -2.5300   50.4150   92.0630 C.ar  282  TYR282      0.0417
     74  CE2       -3.9960   49.9480   90.2170 C.ar  282  TYR282      0.0417
     75  CZ        -2.7850   49.7930   90.8090 C.ar  282  TYR282      0.1957
     76  OH        -1.8090   49.0150   90.1640 O.3   282  TYR282     -0.2866
     77  N        -10.6150   51.3140   90.5380 N.3   285  PRO285     -0.2116
     78  CA        -9.8900   50.1660   89.9410 C.3   285  PRO285      0.1372
     79  C         -9.3650   50.5030   88.5260 C.2   285  PRO285      0.2244
     80  O         -8.2360   50.0080   88.1670 O.2   285  PRO285     -0.2868
     81  CB       -10.9410   49.0560   89.9280 C.3   285  PRO285      0.0268
     82  CG       -11.9670   49.4460   90.9460 C.3   285  PRO285      0.0207
     83  CD       -11.9340   50.9490   91.0710 C.3   285  PRO285      0.0892
@<TRIPOS>BOND
     1    16    15    2
     2    15    14    1
     3    14    13    1
     4    14    17    1
     5    80    79    2
     6    17    18    1
     7     1     2    1
     8    79    78    1
     9     2     3    1
    10     7     8    2
    11     7     6    1
    12    18    19    1
    13    81    78    1
    14    81    82    1
    15     4     3    2
    16    78    77    1
    17     3     5   am
    18    76    75    1
    19    74    72   ar
    20    74    75   ar
    21    77    83    1
    22     5     6    1
    23    19    20    2
    24    19    21   am
    25    72    70   ar
    26    75    73   ar
    27    82    83    1
    28    10    12    1
    29    10     9    1
    30     6     9    1
    31     9    11    1
    32    70    71   ar
    33    70    69    1
    34    73    71   ar
    35    66    69    1
    36    66    67    1
    37    66    65    1
    38    67    68    2
    39    31    30    1
    40    32    30    1
    41    30    29    2
    42    64    61    1
    43    63    62    2
    44    49    48    2
    45    62    61    1
    46    29    28    1
    47    61    60    1
    48    54    52   am
    49    60    57   am
    50    28    27    1
    51    41    40    1
    52    53    52    2
    53    52    51    1
    54    40    39    1
    55    48    47    1
    56    48    55   am
    57    57    56    1
    58    57    58    2
    59    50    51    1
    60    50    47    1
    61    56    55    1
    62    56    59    1
    63    47    46    1
    64    27    26    1
    65    26    23    1
    66    39    38    1
    67    38    37    1
    68    22    23    1
    69    46    44   am
    70    37    34    1
    71    23    24    1
    72    45    44    2
    73    34    33    1
    74    34    35    1
    75    44    43    1
    76    24    25    2
    77    35    36    2
    78    43    42    1
