@<TRIPOS>MOLECULE
tmp/6ehbC00.pdb
 78 72 0 0 0
SMALL
GASTEIGER

@<TRIPOS>ATOM
      1  N        -23.8060   33.3150   56.1980 N.3     2  GLY2       -0.1210
      2  CA       -24.6030   32.2480   55.6930 C.3     2  GLY2        0.1956
      3  C        -23.7680   31.3350   54.7830 C.2     2  GLY2        0.2611
      4  O        -22.6850   30.8680   55.1680 O.2     2  GLY2       -0.2717
      5  N        -24.2320   31.1590   53.5730 N.am    3  ILE3       -0.1979
      6  CA       -23.5490   30.2940   52.6770 C.3     3  ILE3        0.1595
      7  C        -22.1950   30.8810   52.2110 C.2     3  ILE3        0.2287
      8  O        -21.3040   30.1200   51.8300 O.2     3  ILE3       -0.2864
      9  CB       -24.2940   29.9680   51.3830 C.3     3  ILE3        0.0276
     10  CG1      -24.5920   31.1830   50.5550 C.3     3  ILE3        0.0022
     11  CG2      -25.5400   29.1930   51.7310 C.3     3  ILE3        0.0022
     12  CD1      -24.8460   30.8500   49.0880 C.3     3  ILE3        0.0001
     13  N        -19.4150   31.7110   53.5220 N.3     5  GLN5       -0.1245
     14  CA       -18.8390   31.4540   54.8330 C.3     5  GLN5        0.1566
     15  C        -17.6590   32.4030   55.2030 C.2     5  GLN5        0.2260
     16  O        -17.5910   32.8230   56.3360 O.2     5  GLN5       -0.2867
     17  CB       -18.3470   29.9900   54.9600 C.3     5  GLN5        0.0367
     18  CG       -19.4210   28.9610   54.6540 C.3     5  GLN5        0.0905
     19  CD       -18.9890   27.5700   55.0770 C.2     5  GLN5        0.2608
     20  OE1      -19.0400   27.1990   56.2780 O.2     5  GLN5       -0.2717
     21  NE2      -18.3670   26.8600   54.1470 N.am    5  GLN5       -0.0878
     22  N        -30.6030   25.6010   46.0240 N.3   220  ARG220     -0.1245
     23  CA       -30.4440   25.2400   47.4030 C.3   220  ARG220      0.1563
     24  C        -31.7510   24.6110   47.9300 C.2   220  ARG220      0.2260
     25  O        -32.8320   25.1600   47.7030 O.2   220  ARG220     -0.2867
     26  CB       -29.9820   26.4010   48.2240 C.3   220  ARG220      0.0307
     27  CG       -30.8970   27.4790   48.6420 C.3   220  ARG220      0.0489
     28  CD       -30.0820   28.6160   49.2770 C.3   220  ARG220      0.2205
     29  NE       -29.9010   28.5400   50.7540 N.pl3 220  ARG220     -0.0865
     30  CZ       -29.3140   29.5080   51.4860 C.cat 220  ARG220      0.5346
     31  NH1      -28.8320   30.5960   50.8830 N.pl3 220  ARG220      0.1354
     32  NH2      -29.2050   29.4420   52.8090 N.pl3 220  ARG220      0.1354
     33  N        -24.8420   20.7200   54.3330 N.3   251  LYS251     -0.1245
     34  CA       -24.9040   21.0490   55.7010 C.3   251  LYS251      0.1561
     35  C        -25.4540   19.8890   56.4960 C.2   251  LYS251      0.2260
     36  O        -26.4860   19.3160   56.1290 O.2   251  LYS251     -0.2867
     37  CB       -25.7190   22.2610   55.9100 C.3   251  LYS251      0.0271
     38  CG       -25.7020   22.6280   57.3700 C.3   251  LYS251      0.0035
     39  CD       -26.6990   23.7400   57.5850 C.3   251  LYS251      0.0206
     40  CE       -26.0710   24.7420   58.5010 C.3   251  LYS251      0.1093
     41  NZ       -26.8900   25.9520   58.4400 N.3   251  LYS251     -0.1314
     42  N        -26.0340   18.9750   60.4930 N.3   253  GLY253     -0.1210
     43  CA       -25.9540   19.4170   61.8620 C.3   253  GLY253      0.1956
     44  C        -25.2890   20.8030   61.8840 C.2   253  GLY253      0.2611
     45  O        -25.6710   21.6670   61.1400 O.2   253  GLY253     -0.2717
     46  N        -24.2350   20.8880   62.6630 N.am  254  GLN254     -0.1979
     47  CA       -23.4600   22.1420   62.8040 C.3   254  GLN254      0.1601
     48  C        -22.3020   22.1890   61.8150 C.2   254  GLN254      0.2287
     49  O        -21.4690   23.0930   61.9000 O.2   254  GLN254     -0.2864
     50  CB       -23.0240   22.3000   64.2270 C.3   254  GLN254      0.0394
     51  CG       -24.2460   22.5300   65.1050 C.3   254  GLN254      0.0908
     52  CD       -23.9380   22.5040   66.6010 C.2   254  GLN254      0.2608
     53  OE1      -22.9080   23.0420   67.1080 O.2   254  GLN254     -0.2717
     54  NE2      -24.8390   21.8880   67.3470 N.am  254  GLN254     -0.0878
     55  N        -20.5580   22.1270   57.9300 N.3   256  ALA256     -0.1245
     56  CA       -20.7810   22.4310   56.5200 C.3   256  ALA256      0.1562
     57  C        -19.6110   21.9290   55.7020 C.2   256  ALA256      0.2260
     58  O        -18.4570   22.2000   56.0840 O.2   256  ALA256     -0.2867
     59  CB       -20.8770   23.9510   56.3020 C.3   256  ALA256      0.0290
     60  N        -19.4450   24.6810   63.0770 N.3   282  TYR282     -0.1241
     61  CA       -19.9580   25.8340   63.8150 C.3   282  TYR282      0.1605
     62  C        -20.2760   25.4270   65.2750 C.2   282  TYR282      0.2264
     63  O        -21.3830   24.9600   65.5170 O.2   282  TYR282     -0.2867
     64  CB       -21.1510   26.4270   63.1050 C.3   282  TYR282      0.0534
     65  CG       -20.8370   27.0560   61.7500 C.ar  282  TYR282     -0.0201
     66  CD1      -20.6130   26.3040   60.6480 C.ar  282  TYR282     -0.0009
     67  CD2      -20.6770   28.4470   61.6540 C.ar  282  TYR282     -0.0009
     68  CE1      -20.3580   26.8660   59.4200 C.ar  282  TYR282      0.0417
     69  CE2      -20.4250   29.0240   60.4330 C.ar  282  TYR282      0.0417
     70  CZ       -20.1630   28.2370   59.3260 C.ar  282  TYR282      0.1957
     71  OH       -19.8880   28.8330   58.1100 O.3   282  TYR282     -0.2866
     72  N        -22.9000   30.1450   66.5910 N.3   285  PRO285     -0.2116
     73  CA       -23.0230   30.8860   65.3370 C.3   285  PRO285      0.1372
     74  C        -21.8050   31.7670   65.0460 C.2   285  PRO285      0.2244
     75  O        -21.4450   31.9220   63.8460 O.2   285  PRO285     -0.2868
     76  CB       -24.2740   31.7720   65.5720 C.3   285  PRO285      0.0268
     77  CG       -25.0900   30.9730   66.5590 C.3   285  PRO285      0.0207
     78  CD       -24.1170   30.3010   67.4740 C.3   285  PRO285      0.0892
@<TRIPOS>BOND
     1    22    23    1
     2    23    24    1
     3    23    26    1
     4    25    24    2
     5    26    27    1
     6    27    28    1
     7    12    10    1
     8    28    29    1
     9    10     9    1
    10    29    30    2
    11    31    30    1
    12     9    11    1
    13     9     6    1
    14    30    32    1
    15     8     7    2
    16     7     6    1
    17     6     5    1
    18    13    14    1
    19     5     3   am
    20    21    19   am
    21    33    34    1
    22    18    17    1
    23    18    19    1
    24     3     4    2
    25     3     2    1
    26    14    17    1
    27    14    15    1
    28    19    20    2
    29    15    16    2
    30     2     1    1
    31    34    37    1
    32    34    35    1
    33    57    58    2
    34    57    56    1
    35    37    38    1
    36    36    35    2
    37    59    56    1
    38    56    55    1
    39    38    39    1
    40    39    40    1
    41    71    70    1
    42    41    40    1
    43    70    68   ar
    44    70    69   ar
    45    68    66   ar
    46    69    67   ar
    47    42    43    1
    48    66    65   ar
    49    45    44    2
    50    67    65   ar
    51    65    64    1
    52    48    49    2
    53    48    47    1
    54    43    44    1
    55    44    46   am
    56    46    47    1
    57    47    50    1
    58    60    61    1
    59    64    61    1
    60    61    62    1
    61    75    74    2
    62    50    51    1
    63    74    73    1
    64    51    52    1
    65    62    63    2
    66    73    76    1
    67    73    72    1
    68    76    77    1
    69    77    78    1
    70    72    78    1
    71    52    53    2
    72    52    54   am
