@<TRIPOS>MOLECULE
tmp/6ehbC06.pdb
 84 82 0 0 0
SMALL
GASTEIGER

@<TRIPOS>ATOM
      1  N        -28.5820   21.0270   50.9430 N.3   224  LEU224     -0.1245
      2  CA       -27.7420   20.8610   49.8090 C.3   224  LEU224      0.1561
      3  C        -27.7270   22.1700   49.0160 C.2   224  LEU224      0.2260
      4  O        -28.6890   22.9290   48.9800 O.2   224  LEU224     -0.2867
      5  CB       -28.2980   19.7290   48.9730 C.3   224  LEU224      0.0270
      6  CG       -27.7040   19.3670   47.6650 C.3   224  LEU224      0.0019
      7  CD1      -26.2680   18.8390   47.8970 C.3   224  LEU224      0.0001
      8  CD2      -28.5750   18.2360   47.0460 C.3   224  LEU224      0.0001
      9  N        -25.8730   23.8240   45.1970 N.3   226  PHE226     -0.1241
     10  CA       -25.0240   23.6850   43.9880 C.3   226  PHE226      0.1605
     11  C        -25.0860   24.9960   43.2870 C.2   226  PHE226      0.2264
     12  O        -26.1210   25.6410   43.2510 O.2   226  PHE226     -0.2867
     13  CB       -25.5910   22.6450   42.9770 C.3   226  PHE226      0.0534
     14  CG       -25.7070   21.3060   43.4740 C.ar  226  PHE226     -0.0203
     15  CD1      -24.6080   20.4340   43.4370 C.ar  226  PHE226     -0.0042
     16  CD2      -26.9360   20.8540   43.9410 C.ar  226  PHE226     -0.0042
     17  CE1      -24.7220   19.1010   43.8570 C.ar  226  PHE226     -0.0003
     18  CE2      -27.0720   19.5340   44.3610 C.ar  226  PHE226     -0.0003
     19  CZ       -25.9690   18.6600   44.3350 C.ar  226  PHE226     -0.0000
     20  N        -20.3830   23.1540   45.2660 N.3   248  ALA248     -0.1231
     21  CA       -21.3870   22.2810   45.9290 C.3   248  ALA248      0.1694
     22  C        -21.1790   22.3360   47.4030 C.2   248  ALA248      0.2593
     23  O        -20.0460   22.4710   47.8880 O.2   248  ALA248     -0.2718
     24  CB       -21.2110   20.8870   45.4760 C.3   248  ALA248      0.0304
     25  N        -22.2540   22.3260   48.1600 N.am  249  GLY249     -0.1942
     26  CA       -22.1870   22.3560   49.5620 C.3   249  GLY249      0.2014
     27  C        -23.2030   21.4700   50.2690 C.2   249  GLY249      0.2638
     28  O        -24.2790   21.2600   49.6840 O.2   249  GLY249     -0.2714
     29  N        -22.8450   20.9890   51.4320 N.am  250  TYR250     -0.1973
     30  CA       -23.7730   20.1700   52.2200 C.3   250  TYR250      0.1639
     31  C        -23.6770   20.5170   53.6670 C.2   250  TYR250      0.2290
     32  O        -22.5570   20.5860   54.2240 O.2   250  TYR250     -0.2864
     33  CB       -23.5200   18.6940   51.9400 C.3   250  TYR250      0.0560
     34  CG       -24.7100   17.8490   52.3750 C.ar  250  TYR250     -0.0198
     35  CD1      -25.8380   17.7230   51.5550 C.ar  250  TYR250     -0.0009
     36  CD2      -24.7110   17.1640   53.6040 C.ar  250  TYR250     -0.0009
     37  CE1      -26.9760   16.9740   51.9690 C.ar  250  TYR250      0.0417
     38  CE2      -25.8290   16.3920   54.0020 C.ar  250  TYR250      0.0417
     39  CZ       -26.9640   16.3320   53.1950 C.ar  250  TYR250      0.1957
     40  OH       -28.0790   15.5970   53.6010 O.3   250  TYR250     -0.2866
     41  N        -19.8980   21.2520   54.6140 N.3   257  PHE257     -0.1227
     42  CA       -18.8490   20.7200   53.7310 C.3   257  PHE257      0.1736
     43  C        -18.9930   21.3630   52.4040 C.2   257  PHE257      0.2596
     44  O        -20.1160   21.4470   51.8490 O.2   257  PHE257     -0.2718
     45  CB       -19.0390   19.1950   53.6220 C.3   257  PHE257      0.0547
     46  CG       -18.9100   18.5080   54.9330 C.ar  257  PHE257     -0.0202
     47  CD1      -17.6710   18.2350   55.4920 C.ar  257  PHE257     -0.0042
     48  CD2      -20.0480   18.1420   55.6590 C.ar  257  PHE257     -0.0042
     49  CE1      -17.5450   17.5680   56.6980 C.ar  257  PHE257     -0.0003
     50  CE2      -19.8760   17.5080   56.8690 C.ar  257  PHE257     -0.0003
     51  CZ       -18.6840   17.2480   57.4210 C.ar  257  PHE257     -0.0000
     52  N        -17.8730   21.8240   51.7800 N.am  258  THR258     -0.1939
     53  CA       -17.9700   22.3350   50.4650 C.3   258  THR258      0.2028
     54  C        -16.8670   21.8640   49.5240 C.2   258  THR258      0.2642
     55  O        -15.8150   21.4260   49.9710 O.2   258  THR258     -0.2714
     56  CB       -18.0070   23.9340   50.3930 C.3   258  THR258      0.1808
     57  OG1      -16.6880   24.4480   50.6090 O.3   258  THR258     -0.2208
     58  CG2      -18.9900   24.5800   51.3410 C.3   258  THR258      0.0379
     59  N        -17.1460   21.9510   48.2190 N.am  259  ALA259     -0.1977
     60  CA       -16.1740   21.6630   47.1430 C.3   259  ALA259      0.1597
     61  C        -16.3530   22.6550   46.0780 C.2   259  ALA259      0.2287
     62  O        -17.5060   23.0320   45.7580 O.2   259  ALA259     -0.2864
     63  CB       -16.3160   20.2560   46.5860 C.3   259  ALA259      0.0319
     64  N        -11.5880   21.4410   48.6130 N.3   277  ILE277     -0.1231
     65  CA       -12.5940   20.8820   49.4910 C.3   277  ILE277      0.1692
     66  C        -12.4230   21.3870   50.8740 C.2   277  ILE277      0.2592
     67  O        -11.2660   21.6370   51.3150 O.2   277  ILE277     -0.2718
     68  CB       -12.5010   19.3100   49.5020 C.3   277  ILE277      0.0266
     69  CG1      -11.1110   18.8320   49.9110 C.3   277  ILE277      0.0019
     70  CG2      -12.9270   18.7790   48.1420 C.3   277  ILE277      0.0020
     71  CD1      -10.9420   17.3060   49.9830 C.3   277  ILE277      0.0001
     72  N        -13.4980   21.4820   51.6520 N.am  278  ASP278     -0.1960
     73  CA       -13.3640   21.8860   53.0500 C.3   278  ASP278      0.1840
     74  C        -14.4550   21.3770   53.9640 C.2   278  ASP278      0.2621
     75  O        -15.4540   20.7980   53.5060 O.2   278  ASP278     -0.2715
     76  CB       -13.1480   23.4580   53.1730 C.3   278  ASP278      0.1450
     77  CG       -14.4030   24.2350   53.0180 C.2   278  ASP278      0.3671
     78  OD1      -15.5140   23.6280   52.8150 O.co2 278  ASP278     -0.2456
     79  OD2      -14.2660   25.5230   53.1170 O.co2 278  ASP278     -0.2456
     80  N        -14.1810   21.5310   55.2180 N.am  279  ALA279     -0.1977
     81  CA       -15.0810   21.1470   56.3140 C.3   279  ALA279      0.1597
     82  C        -15.0200   22.2490   57.3420 C.2   279  ALA279      0.2287
     83  O        -13.9240   22.6180   57.8580 O.2   279  ALA279     -0.2864
     84  CB       -14.6220   19.8560   56.9560 C.3   279  ALA279      0.0319
@<TRIPOS>BOND
     1    13    14    1
     2    13    10    1
     3    12    11    2
     4    11    10    1
     5    15    14   ar
     6    15    17   ar
     7    14    16   ar
     8    17    19   ar
     9    16    18   ar
    10    10     9    1
    11    19    18   ar
    12    20    21    1
    13    24    21    1
    14    62    61    2
    15    21    22    1
    16    61    60    1
    17    63    60    1
    18     8     6    1
    19    60    59    1
    20    22    23    2
    21    22    25   am
    22     6     7    1
    23     6     5    1
    24    70    68    1
    25    25    26    1
    26    59    54   am
    27    64    65    1
    28     5     2    1
    29     4     3    2
    30     3     2    1
    31    65    68    1
    32    65    66    1
    33    68    69    1
    34    54    55    2
    35    54    53    1
    36    26    27    1
    37    28    27    2
    38     2     1    1
    39    69    71    1
    40    27    29   am
    41    56    53    1
    42    56    57    1
    43    56    58    1
    44    53    52    1
    45    66    67    2
    46    66    72   am
    47    29    30    1
    48    35    37   ar
    49    35    34   ar
    50    72    73    1
    51    52    43   am
    52    44    43    2
    53    33    30    1
    54    33    34    1
    55    37    39   ar
    56    30    31    1
    57    34    36   ar
    58    43    42    1
    59    78    77   ar
    60    77    79   ar
    61    77    76    1
    62    73    76    1
    63    73    74    1
    64    39    40    1
    65    39    38   ar
    66    75    74    2
    67    36    38   ar
    68    45    42    1
    69    45    46    1
    70    31    32    2
    71    42    41    1
    72    74    80   am
    73    46    47   ar
    74    46    48   ar
    75    80    81    1
    76    47    49   ar
    77    48    50   ar
    78    81    84    1
    79    81    82    1
    80    49    51   ar
    81    50    51   ar
    82    82    83    2
