@<TRIPOS>MOLECULE
tmp/6ehbA02.pdb
 77 74 0 0 0
SMALL
GASTEIGER

@<TRIPOS>ATOM
      1  N        -17.3120   87.2080   73.7220 N.3   200  VAL200     -0.1231
      2  CA       -16.0010   87.6540   73.2820 C.3   200  VAL200      0.1692
      3  C        -14.9380   86.6430   73.6690 C.2   200  VAL200      0.2593
      4  O        -15.0860   85.9030   74.6410 O.2   200  VAL200     -0.2718
      5  CB       -15.6240   89.0640   73.8710 C.3   200  VAL200      0.0266
      6  CG1      -16.6070   90.0580   73.3380 C.3   200  VAL200      0.0020
      7  CG2      -15.5670   89.0240   75.3710 C.3   200  VAL200      0.0020
      8  N        -13.8370   86.6580   72.9300 N.am  201  GLY201     -0.1942
      9  CA       -12.7110   85.7660   73.2140 C.3   201  GLY201      0.2014
     10  C        -11.3790   86.3400   72.8020 C.2   201  GLY201      0.2638
     11  O        -11.2850   87.1910   71.8750 O.2   201  GLY201     -0.2714
     12  N        -10.3660   85.8460   73.4650 N.am  202  ALA202     -0.1977
     13  CA        -8.9790   86.2670   73.2210 C.3   202  ALA202      0.1597
     14  C         -8.0300   85.1600   73.6050 C.2   202  ALA202      0.2287
     15  O         -8.3550   84.3760   74.4960 O.2   202  ALA202     -0.2864
     16  CB        -8.6230   87.5250   73.9100 C.3   202  ALA202      0.0319
     17  N         -8.2270   87.4730   68.5890 N.3   215  LEU215     -0.1231
     18  CA        -9.3810   88.1790   69.1620 C.3   215  LEU215      0.1693
     19  C        -10.5840   87.8340   68.3860 C.2   215  LEU215      0.2592
     20  O        -10.5420   87.7230   67.1770 O.2   215  LEU215     -0.2718
     21  CB        -9.1860   89.7320   69.0400 C.3   215  LEU215      0.0284
     22  CG        -7.9740   90.2760   69.6880 C.3   215  LEU215      0.0019
     23  CD1       -7.7380   91.7480   69.2810 C.3   215  LEU215      0.0001
     24  CD2       -8.0390   90.1870   71.1720 C.3   215  LEU215      0.0001
     25  N        -11.7150   87.6000   69.0960 N.am  216  ALA216     -0.1966
     26  CA       -12.9300   87.2440   68.4930 C.3   216  ALA216      0.1728
     27  C        -14.1410   87.7740   69.2120 C.2   216  ALA216      0.2616
     28  O        -14.0700   87.9630   70.4240 O.2   216  ALA216     -0.2715
     29  CB       -13.0780   85.6830   68.3950 C.3   216  ALA216      0.0334
     30  N        -15.2070   87.8610   68.4870 N.am  217  ALA217     -0.1977
     31  CA       -16.4970   88.1560   69.0230 C.3   217  ALA217      0.1597
     32  C        -17.5770   87.4910   68.2420 C.2   217  ALA217      0.2287
     33  O        -17.4870   87.3150   67.0210 O.2   217  ALA217     -0.2864
     34  CB       -16.6860   89.6950   69.0680 C.3   217  ALA217      0.0319
     35  N        -16.6490   87.3890   64.1200 N.3   228  GLY228     -0.1210
     36  CA       -15.3910   87.8100   63.5210 C.3   228  GLY228      0.1956
     37  C        -14.2550   87.3110   64.3720 C.2   228  GLY228      0.2612
     38  O        -14.3680   87.0940   65.5890 O.2   228  GLY228     -0.2717
     39  N        -13.1210   87.0990   63.7230 N.am  229  LEU229     -0.1965
     40  CA       -11.8690   86.5880   64.3220 C.3   229  LEU229      0.1728
     41  C        -10.6880   87.2320   63.6510 C.2   229  LEU229      0.2616
     42  O        -10.6860   87.3810   62.3930 O.2   229  LEU229     -0.2715
     43  CB       -11.8240   85.0570   64.0310 C.3   229  LEU229      0.0311
     44  CG       -10.5360   84.3670   64.3900 C.3   229  LEU229      0.0022
     45  CD1      -10.3510   84.2920   65.9100 C.3   229  LEU229      0.0001
     46  CD2      -10.5470   82.9590   63.6960 C.3   229  LEU229      0.0001
     47  N         -9.7070   87.6020   64.4280 N.am  230  PHE230     -0.1974
     48  CA        -8.4680   88.2030   63.9770 C.3   230  PHE230      0.1639
     49  C         -7.3350   87.4710   64.5920 C.2   230  PHE230      0.2290
     50  O         -7.3220   87.2050   65.8230 O.2   230  PHE230     -0.2864
     51  CB        -8.4420   89.6870   64.3900 C.3   230  PHE230      0.0560
     52  CG        -7.1610   90.3850   64.0250 C.ar  230  PHE230     -0.0200
     53  CD1       -6.9550   90.7310   62.7240 C.ar  230  PHE230     -0.0042
     54  CD2       -6.1230   90.5880   64.9480 C.ar  230  PHE230     -0.0042
     55  CE1       -5.7910   91.3750   62.3130 C.ar  230  PHE230     -0.0003
     56  CE2       -4.9660   91.2710   64.5140 C.ar  230  PHE230     -0.0003
     57  CZ        -4.7890   91.6060   63.2140 C.ar  230  PHE230     -0.0000
     58  N         -7.8920   87.2490   58.9690 N.3   244  TYR244     -0.1241
     59  CA        -9.2120   87.7860   59.3460 C.3   244  TYR244      0.1605
     60  C        -10.2550   86.8340   58.8690 C.2   244  TYR244      0.2264
     61  O        -10.2470   86.4000   57.7240 O.2   244  TYR244     -0.2867
     62  CB        -9.6010   89.1700   58.6300 C.3   244  TYR244      0.0534
     63  CG        -8.6110   90.2900   58.6560 C.ar  244  TYR244     -0.0201
     64  CD1       -7.5870   90.3830   57.7130 C.ar  244  TYR244     -0.0009
     65  CD2       -8.7770   91.3880   59.5750 C.ar  244  TYR244     -0.0009
     66  CE1       -6.6800   91.4820   57.7330 C.ar  244  TYR244      0.0417
     67  CE2       -7.8900   92.4960   59.5920 C.ar  244  TYR244      0.0417
     68  CZ        -6.8470   92.5420   58.6760 C.ar  244  TYR244      0.1957
     69  OH        -5.9780   93.6140   58.7150 O.3   244  TYR244     -0.2866
     70  N        -14.6880   86.4680   58.8770 N.3   246  LEU246     -0.1245
     71  CA       -16.0610   86.8060   59.1890 C.3   246  LEU246      0.1561
     72  C        -16.9350   85.6260   58.9360 C.2   246  LEU246      0.2260
     73  O        -16.7460   84.9440   57.9120 O.2   246  LEU246     -0.2867
     74  CB       -16.4540   87.9730   58.2860 C.3   246  LEU246      0.0270
     75  CG       -15.6420   89.2630   58.4660 C.3   246  LEU246      0.0019
     76  CD1      -16.1250   90.2680   57.4090 C.3   246  LEU246      0.0001
     77  CD2      -15.7800   89.8400   59.8640 C.3   246  LEU246      0.0001
@<TRIPOS>BOND
     1    76    75    1
     2    64    66   ar
     3    64    63   ar
     4    61    60    2
     5    66    68   ar
     6    73    72    2
     7    74    75    1
     8    74    71    1
     9    75    77    1
    10    62    63    1
    11    62    59    1
    12    63    65   ar
    13    68    69    1
    14    68    67   ar
    15    60    59    1
    16    70    71    1
    17    72    71    1
    18    58    59    1
    19    65    67   ar
    20    55    53   ar
    21    55    57   ar
    22    42    41    2
    23    53    52   ar
    24    57    56   ar
    25    36    35    1
    26    36    37    1
    27    41    40    1
    28    41    47   am
    29    46    44    1
    30    39    40    1
    31    39    37   am
    32    48    51    1
    33    48    47    1
    34    48    49    1
    35    52    51    1
    36    52    54   ar
    37    43    40    1
    38    43    44    1
    39    37    38    2
    40    44    45    1
    41    56    54   ar
    42    49    50    2
    43    33    32    2
    44    20    19    2
    45    32    31    1
    46    19    25   am
    47    19    18    1
    48    29    26    1
    49    30    31    1
    50    30    27   am
    51    26    25    1
    52    26    27    1
    53    17    18    1
    54    31    34    1
    55    21    18    1
    56    21    22    1
    57    27    28    2
    58    23    22    1
    59    22    24    1
    60    11    10    2
    61    10     9    1
    62    10    12   am
    63     8     9    1
    64     8     3   am
    65    13    12    1
    66    13    14    1
    67    13    16    1
    68     2     3    1
    69     2     1    1
    70     2     5    1
    71     6     5    1
    72    14    15    2
    73     3     4    2
    74     5     7    1
