@<TRIPOS>MOLECULE
tmp/6ehdA05.pdb
 149 140 0 0 0
SMALL
GASTEIGER

@<TRIPOS>ATOM
      1  N         36.9380   15.9170   12.6870 N.3    16  GLN16      -0.1245
      2  CA        36.9260   16.1120   14.1980 C.3    16  GLN16       0.1566
      3  C         38.0340   17.0200   14.6040 C.2    16  GLN16       0.2260
      4  O         39.2000   16.8310   14.1570 O.2    16  GLN16      -0.2867
      5  CB        37.1600   14.7690   14.9500 C.3    16  GLN16       0.0367
      6  CG        36.1390   13.7190   14.7160 C.3    16  GLN16       0.0905
      7  CD        36.4050   12.4560   15.4970 C.2    16  GLN16       0.2608
      8  OE1       36.8560   12.5020   16.6620 O.2    16  GLN16      -0.2717
      9  NE2       36.1700   11.3030   14.8310 N.am   16  GLN16      -0.0878
     10  N         39.9480   17.9100   18.2260 N.3    18  ARG18      -0.1245
     11  CA        40.0880   17.3850   19.6160 C.3    18  ARG18       0.1563
     12  C         41.0590   18.2540   20.4540 C.2    18  ARG18       0.2260
     13  O         42.1210   18.6710   19.9680 O.2    18  ARG18      -0.2867
     14  CB        40.6200   15.9330   19.6110 C.3    18  ARG18       0.0307
     15  CG        39.8040   14.9620   18.7040 C.3    18  ARG18       0.0489
     16  CD        40.2120   13.5100   18.9330 C.3    18  ARG18       0.2205
     17  NE        39.4150   12.5530   18.2170 N.pl3  18  ARG18      -0.0865
     18  CZ        39.5230   11.2290   18.3460 C.cat  18  ARG18       0.5346
     19  NH1       38.7450   10.4610   17.6500 N.pl3  18  ARG18       0.1354
     20  NH2       40.4650   10.6840   19.0910 N.pl3  18  ARG18       0.1354
     21  N         41.3700   15.4360   12.6790 N.3    37  ARG37      -0.1245
     22  CA        41.4180   15.0190   11.2490 C.3    37  ARG37       0.1563
     23  C         40.3480   15.6720   10.4180 C.2    37  ARG37       0.2260
     24  O         39.3590   16.1440   10.9400 O.2    37  ARG37      -0.2867
     25  CB        41.2770   13.4320   11.2000 C.3    37  ARG37       0.0307
     26  CG        39.8780   12.8800   11.3150 C.3    37  ARG37       0.0489
     27  CD        39.2720   12.6870   12.7040 C.3    37  ARG37       0.2205
     28  NE        40.0970   12.0420   13.7290 N.pl3  37  ARG37      -0.0865
     29  CZ        40.0990   10.7430   14.0410 C.cat  37  ARG37       0.5346
     30  NH1       39.3170    9.8880   13.4480 N.pl3  37  ARG37       0.1354
     31  NH2       40.9200   10.3590   14.9810 N.pl3  37  ARG37       0.1354
     32  N         37.2830   -3.1790   24.3970 N.3    95  ASP95      -0.1225
     33  CA        37.8820   -2.0190   25.0110 C.3    95  ASP95       0.1805
     34  C         36.9820   -0.7820   24.7030 C.2    95  ASP95       0.2598
     35  O         36.8030   -0.4800   23.4590 O.2    95  ASP95      -0.2718
     36  CB        39.3520   -1.7450   24.5070 C.3    95  ASP95       0.1424
     37  CG        39.8240   -0.2670   24.8240 C.2    95  ASP95       0.3668
     38  OD1       39.4650    0.2660   25.9210 O.co2  95  ASP95      -0.2456
     39  OD2       40.5110    0.3520   23.9670 O.co2  95  ASP95      -0.2456
     40  N         36.3560   -0.1870   25.7300 N.am   96  TYR96      -0.1962
     41  CA        35.4100    0.8900   25.5750 C.3    96  TYR96       0.1771
     42  C         35.9720    2.2100   26.0940 C.2    96  TYR96       0.2620
     43  O         35.2390    3.1820   26.2370 O.2    96  TYR96      -0.2715
     44  CB        34.0990    0.5400   26.2590 C.3    96  TYR96       0.0574
     45  CG        33.4920   -0.7700   25.7560 C.ar   96  TYR96      -0.0198
     46  CD1       33.4230   -1.0860   24.3910 C.ar   96  TYR96      -0.0009
     47  CD2       33.0230   -1.6880   26.6590 C.ar   96  TYR96      -0.0009
     48  CE1       32.9660   -2.3350   23.9580 C.ar   96  TYR96       0.0417
     49  CE2       32.5390   -2.9430   26.2330 C.ar   96  TYR96       0.0417
     50  CZ        32.4690   -3.2490   24.8920 C.ar   96  TYR96       0.1957
     51  OH        31.9380   -4.5150   24.5040 O.3    96  TYR96      -0.2866
     52  N         37.2940    2.2710   26.2990 N.am   97  SER97      -0.1936
     53  CA        37.9320    3.5000   26.8270 C.3    97  SER97       0.2055
     54  C         38.1760    4.6100   25.7690 C.2    97  SER97       0.2643
     55  O         38.1270    4.3760   24.5380 O.2    97  SER97      -0.2714
     56  CB        39.2950    3.0920   27.4610 C.3    97  SER97       0.2130
     57  OG        40.2640    2.7130   26.4840 O.3    97  SER97      -0.2179
     58  N         38.4890    5.8270   26.2650 N.am   98  TYR98      -0.1973
     59  CA        38.9020    6.9980   25.4550 C.3    98  TYR98       0.1639
     60  C         40.4330    7.2390   25.4970 C.2    98  TYR98       0.2290
     61  O         40.9280    7.9230   24.6360 O.2    98  TYR98      -0.2864
     62  CB        38.1750    8.2540   25.9410 C.3    98  TYR98       0.0560
     63  CG        36.8500    8.4620   25.3620 C.ar   98  TYR98      -0.0198
     64  CD1       36.7110    9.1500   24.1700 C.ar   98  TYR98      -0.0009
     65  CD2       35.6940    8.0050   25.9990 C.ar   98  TYR98      -0.0009
     66  CE1       35.4260    9.2710   23.5830 C.ar   98  TYR98       0.0417
     67  CE2       34.4220    8.1970   25.4460 C.ar   98  TYR98       0.0417
     68  CZ        34.2990    8.8650   24.2220 C.ar   98  TYR98       0.1957
     69  OH        33.0350    9.0390   23.6260 O.3    98  TYR98      -0.2866
     70  N         29.6120   -0.7440   29.5620 N.3   235  THR235     -0.1218
     71  CA        29.1060    0.6510   29.5660 C.3   235  THR235      0.1862
     72  C         27.7100    0.6760   30.0960 C.2   235  THR235      0.2287
     73  O         26.9670   -0.3390   29.9970 O.2   235  THR235     -0.2866
     74  CB        29.1310    1.2750   28.1470 C.3   235  THR235      0.1770
     75  OG1       28.1280    0.7300   27.2870 O.3   235  THR235     -0.2211
     76  CG2       30.4980    1.2230   27.4520 C.3   235  THR235      0.0375
     77  N         27.0500    8.5550   29.8590 N.3   243  LYS243     -0.1245
     78  CA        27.4220    7.1310   29.8870 C.3   243  LYS243      0.1561
     79  C         28.6330    6.8950   30.7290 C.2   243  LYS243      0.2260
     80  O         29.6610    7.5960   30.6110 O.2   243  LYS243     -0.2867
     81  CB        27.6230    6.6580   28.4460 C.3   243  LYS243      0.0271
     82  CG        28.0240    5.1960   28.3180 C.3   243  LYS243      0.0035
     83  CD        27.8750    4.6990   26.8760 C.3   243  LYS243      0.0206
     84  CE        29.0220    4.9170   25.9930 C.3   243  LYS243      0.1093
     85  NZ        28.5490    4.4030   24.6380 N.3   243  LYS243     -0.1314
     86  N         31.4440    9.7130   29.9460 N.3   271  GLU271     -0.1245
     87  CA        31.2230   10.4330   28.6600 C.3   271  GLU271      0.1567
     88  C         30.0000   11.2880   28.7640 C.2   271  GLU271      0.2260
     89  O         28.8940   10.8070   29.1320 O.2   271  GLU271     -0.2867
     90  CB        31.0450    9.4030   27.5080 C.3   271  GLU271      0.0388
     91  CG        30.6390    9.9830   26.0880 C.3   271  GLU271      0.1160
     92  CD        30.0740    8.8190   25.2360 C.2   271  GLU271      0.3649
     93  OE1       30.8830    8.0520   24.6440 O.co2 271  GLU271     -0.2457
     94  OE2       28.8610    8.5300   25.3180 O.co2 271  GLU271     -0.2457
     95  N         31.1510   16.4720   22.3500 N.3   279  ARG279     -0.1245
     96  CA        31.1910   15.7010   23.5960 C.3   279  ARG279      0.1563
     97  C         32.4590   15.9070   24.3680 C.2   279  ARG279      0.2260
     98  O         33.4380   16.3710   23.8450 O.2   279  ARG279     -0.2867
     99  CB        31.0790   14.2040   23.2620 C.3   279  ARG279      0.0307
    100  CG        32.2770   13.6090   22.5890 C.3   279  ARG279      0.0489
    101  CD        32.1030   12.0810   22.2750 C.3   279  ARG279      0.2205
    102  NE        31.0680   11.8290   21.2730 N.pl3 279  ARG279     -0.0865
    103  CZ        30.8990   10.6090   20.6950 C.cat 279  ARG279      0.5346
    104  NH1       31.6610    9.5470   21.0640 N.pl3 279  ARG279      0.1354
    105  NH2       29.9810   10.4510   19.7190 N.pl3 279  ARG279      0.1354
    106  N         42.4740    2.5410   20.5010 N.3   297  LYS297     -0.1231
    107  CA        41.7040    2.9890   19.3360 C.3   297  LYS297      0.1693
    108  C         41.0170    4.3410   19.5840 C.2   297  LYS297      0.2592
    109  O         40.9550    5.2040   18.7000 O.2   297  LYS297     -0.2718
    110  CB        40.6840    1.9470   18.8860 C.3   297  LYS297      0.0285
    111  CG        40.0100    2.2430   17.5530 C.3   297  LYS297      0.0035
    112  CD        39.1720    1.0840   17.0420 C.3   297  LYS297      0.0206
    113  CE        38.4490    1.3660   15.7630 C.3   297  LYS297      0.1093
    114  NZ        37.5720    0.2460   15.4190 N.3   297  LYS297     -0.1314
    115  N         40.4650    4.5320   20.7760 N.am  298  GLY298     -0.1957
    116  CA        39.7180    5.7710   21.0730 C.3   298  GLY298      0.1869
    117  C         40.5200    7.0700   20.8180 C.2   298  GLY298      0.2309
    118  O         40.0370    8.0200   20.1050 O.2   298  GLY298     -0.2863
    119  N         43.7390    7.0650   19.4370 N.3   300  ASP300     -0.1239
    120  CA        44.7750    6.7690   18.4840 C.3   300  ASP300      0.1674
    121  C         46.1700    6.7210   19.1140 C.2   300  ASP300      0.2266
    122  O         47.1510    6.7420   18.4090 O.2   300  ASP300     -0.2867
    123  CB        44.8730    7.8380   17.3810 C.3   300  ASP300      0.1410
    124  CG        44.1710    7.4950   16.1590 C.2   300  ASP300      0.3668
    125  OD1       43.0890    6.8640   16.2260 O.co2 300  ASP300     -0.2456
    126  OD2       44.7000    7.9220   15.1070 O.co2 300  ASP300     -0.2456
    127  N         35.7680   17.0500   22.0910 N.3   319  ARG319     -0.1301
    128  CA        35.7210   16.8810   20.6060 C.3   319  ARG319      0.1248
    129  C         34.6230   17.7240   19.9770 C.3   319  ARG319      0.2009
    130  O         33.4580   17.9000   20.5270 O.3   319  ARG319     -0.2188
    131  CB        35.3670   15.3850   20.2580 C.3   319  ARG319      0.0254
    132  CG        36.4390   14.4300   20.6190 C.3   319  ARG319      0.0485
    133  CD        35.9760   12.9870   20.3370 C.3   319  ARG319      0.2205
    134  NE        36.9810   12.0450   20.7970 N.pl3 319  ARG319     -0.0865
    135  CZ        36.8830   10.7330   20.5440 C.cat 319  ARG319      0.5346
    136  NH1       35.8190   10.2640   19.8520 N.pl3 319  ARG319      0.1354
    137  NH2       37.7860    9.9260   21.0630 N.pl3 319  ARG319      0.1354
    138  N         32.6810   17.6050   16.1370 N.3   321  TYR321     -0.1241
    139  CA        32.5110   16.7840   14.8940 C.3   321  TYR321      0.1605
    140  C         31.7840   17.6120   13.8240 C.2   321  TYR321      0.2264
    141  O         30.8360   18.2840   14.1250 O.2   321  TYR321     -0.2867
    142  CB        31.6050   15.6010   15.1540 C.3   321  TYR321      0.0534
    143  CG        32.1720   14.4940   16.1170 C.ar  321  TYR321     -0.0201
    144  CD1       32.1390   14.6330   17.5150 C.ar  321  TYR321     -0.0009
    145  CD2       32.5590   13.2320   15.6100 C.ar  321  TYR321     -0.0009
    146  CE1       32.6150   13.5940   18.3390 C.ar  321  TYR321      0.0417
    147  CE2       32.9810   12.1900   16.4300 C.ar  321  TYR321      0.0417
    148  CZ        33.0160   12.3600   17.7950 C.ar  321  TYR321      0.1957
    149  OH        33.4910   11.2820   18.5910 O.3   321  TYR321     -0.2866
@<TRIPOS>BOND
     1    23    24    2
     2    23    22    1
     3    25    22    1
     4    25    26    1
     5    22    21    1
     6    26    27    1
     7     1     2    1
     8    27    28    1
     9    30    29    1
    10    28    29    2
    11   140   141    2
    12   140   139    1
    13    29    31    1
    14     4     3    2
    15     2     3    1
    16     2     5    1
    17     6     5    1
    18     6     7    1
    19     9     7   am
    20   139   142    1
    21   139   138    1
    22   126   124   ar
    23   142   143    1
    24   114   113    1
    25     7     8    2
    26   145   143   ar
    27   145   147   ar
    28   113   112    1
    29   143   144   ar
    30   124   125   ar
    31   124   123    1
    32   147   148   ar
    33   112   111    1
    34   123   120    1
    35   144   146   ar
    36   111   110    1
    37    19    18    1
    38   148   146   ar
    39   148   149    1
    40    17    18    2
    41    17    16    1
    42    10    11    1
    43    18    20    1
    44   122   121    2
    45   120   121    1
    46   120   119    1
    47   109   108    2
    48    15    16    1
    49    15    14    1
    50   110   107    1
    51   107   108    1
    52   107   106    1
    53   108   115   am
    54    14    11    1
    55    11    12    1
    56   105   103    1
    57   136   135    1
    58    13    12    2
    59   129   130    1
    60   129   128    1
    61   118   117    2
    62   131   128    1
    63   131   132    1
    64   133   132    1
    65   133   134    1
    66   135   134    2
    67   135   137    1
    68   128   127    1
    69   103   104    1
    70   103   102    2
    71   115   116    1
    72   117   116    1
    73   102   101    1
    74   101   100    1
    75    95    96    1
    76   100    99    1
    77    99    96    1
    78    35    34    2
    79    66    64   ar
    80    66    68   ar
    81    96    97    1
    82    69    68    1
    83    98    97    2
    84    48    46   ar
    85    48    50   ar
    86    39    37   ar
    87    64    63   ar
    88    68    67   ar
    89    46    45   ar
    90    32    33    1
    91    51    50    1
    92    36    37    1
    93    36    33    1
    94    55    54    2
    95    61    60    2
    96    85    84    1
    97    93    92   ar
    98    34    33    1
    99    34    40   am
   100    37    38   ar
   101    50    49   ar
   102    92    94   ar
   103    92    91    1
   104    63    62    1
   105    63    65   ar
   106    67    65   ar
   107    59    60    1
   108    59    62    1
   109    59    58    1
   110    41    40    1
   111    41    42    1
   112    41    44    1
   113    45    44    1
   114    45    47   ar
   115    54    58   am
   116    54    53    1
   117    84    83    1
   118    91    90    1
   119    42    43    2
   120    42    52   am
   121    49    47   ar
   122    52    53    1
   123    57    56    1
   124    53    56    1
   125    83    82    1
   126    75    74    1
   127    76    74    1
   128    90    87    1
   129    74    71    1
   130    82    81    1
   131    81    78    1
   132    87    88    1
   133    87    86    1
   134    88    89    2
   135    70    71    1
   136    71    72    1
   137    77    78    1
   138    78    79    1
   139    73    72    2
   140    80    79    2
