@<TRIPOS>MOLECULE
tmp/6ehdA04.pdb
 130 120 0 0 0
SMALL
GASTEIGER

@<TRIPOS>ATOM
      1  N         50.0850   11.5890   33.3540 N.3    24  LEU24      -0.1245
      2  CA        50.6720   10.2410   33.5020 C.3    24  LEU24       0.1561
      3  C         51.5440   10.1960   34.7930 C.2    24  LEU24       0.2260
      4  O         52.2740   11.1320   35.0470 O.2    24  LEU24      -0.2867
      5  CB        51.4780    9.8410   32.2920 C.3    24  LEU24       0.0270
      6  CG        50.7990    9.7960   30.9070 C.3    24  LEU24       0.0019
      7  CD1       51.7870    9.3020   29.8560 C.3    24  LEU24       0.0001
      8  CD2       49.5280    8.9450   31.0100 C.3    24  LEU24       0.0001
      9  N         54.8900   12.5290   35.7480 N.3    27  LYS27      -0.1245
     10  CA        55.1420   13.4180   34.5950 C.3    27  LYS27       0.1561
     11  C         54.3150   14.6710   34.7030 C.2    27  LYS27       0.2260
     12  O         53.2900   14.6780   35.3820 O.2    27  LYS27      -0.2867
     13  CB        54.8860   12.6850   33.2820 C.3    27  LYS27       0.0271
     14  CG        56.0400   11.7840   32.8610 C.3    27  LYS27       0.0035
     15  CD        55.5990   10.6580   31.9490 C.3    27  LYS27       0.0206
     16  CE        56.6030    9.5140   31.9710 C.3    27  LYS27       0.1093
     17  NZ        56.1150    8.3700   31.1540 N.3    27  LYS27      -0.1314
     18  N         43.1960    4.8200   27.8410 N.3   100  PHE100     -0.1241
     19  CA        44.2040    3.9020   28.4410 C.3   100  PHE100      0.1605
     20  C         44.0630    2.4030   28.1210 C.2   100  PHE100      0.2264
     21  O         44.9920    1.6490   28.3120 O.2   100  PHE100     -0.2867
     22  CB        44.2200    4.0860   29.9660 C.3   100  PHE100      0.0534
     23  CG        44.5450    5.5310   30.4190 C.ar  100  PHE100     -0.0203
     24  CD1       45.7530    6.1270   29.9780 C.ar  100  PHE100     -0.0042
     25  CD2       43.6340    6.2670   31.1680 C.ar  100  PHE100     -0.0042
     26  CE1       46.0490    7.4820   30.3300 C.ar  100  PHE100     -0.0003
     27  CE2       43.9250    7.6060   31.5060 C.ar  100  PHE100     -0.0003
     28  CZ        45.1510    8.1750   31.0960 C.ar  100  PHE100     -0.0000
     29  N         45.0210   -2.9210   26.0110 N.3   103  THR103     -0.1218
     30  CA        46.2700   -3.6670   26.2450 C.3   103  THR103      0.1862
     31  C         46.1070   -5.1660   25.9080 C.2   103  THR103      0.2287
     32  O         47.1180   -5.8320   25.6150 O.2   103  THR103     -0.2866
     33  CB        46.8070   -3.6380   27.6820 C.3   103  THR103      0.1770
     34  OG1       45.8620   -4.1960   28.6090 O.3   103  THR103     -0.2211
     35  CG2       47.0580   -2.1190   28.0830 C.3   103  THR103      0.0375
     36  N         50.7980   -8.2310   33.0480 N.3   263  GLY263     -0.1210
     37  CA        50.3890   -6.8130   33.1280 C.3   263  GLY263      0.1956
     38  C         48.8930   -6.6850   33.3310 C.2   263  GLY263      0.2613
     39  O         48.1390   -7.4990   32.7730 O.2   263  GLY263     -0.2717
     40  N         48.4850   -5.7100   34.1680 N.am  264  THR264     -0.1938
     41  CA        47.1010   -5.4210   34.5130 C.3   264  THR264      0.2028
     42  C         46.8210   -3.9520   34.1540 C.2   264  THR264      0.2642
     43  O         47.6650   -3.0770   34.4920 O.2   264  THR264     -0.2714
     44  CB        46.8990   -5.6600   36.0130 C.3   264  THR264      0.1808
     45  OG1       47.1270   -7.0790   36.2940 O.3   264  THR264     -0.2208
     46  CG2       45.5070   -5.3720   36.3780 C.3   264  THR264      0.0379
     47  N         45.6610   -3.7050   33.5080 N.am  265  LEU265     -0.1977
     48  CA        45.2000   -2.3120   33.2450 C.3   265  LEU265      0.1596
     49  C         43.7510   -2.2360   33.6110 C.2   265  LEU265      0.2287
     50  O         42.9370   -3.0490   33.1340 O.2   265  LEU265     -0.2864
     51  CB        45.4910   -1.8880   31.7550 C.3   265  LEU265      0.0297
     52  CG        45.1990   -0.4600   31.2540 C.3   265  LEU265      0.0022
     53  CD1       43.7350   -0.1300   31.2390 C.3   265  LEU265      0.0001
     54  CD2       45.9430    0.5900   32.0510 C.3   265  LEU265      0.0001
     55  N         47.6850    1.1370   35.9480 N.3   287  GLY287     -0.1210
     56  CA        48.4930    0.1220   35.2810 C.3   287  GLY287      0.1956
     57  C         49.5380   -0.5230   36.2350 C.2   287  GLY287      0.2612
     58  O         50.0870    0.1830   37.0830 O.2   287  GLY287     -0.2717
     59  N         49.7880   -1.8280   36.1040 N.am  288  ASP288     -0.1959
     60  CA        50.8910   -2.5030   36.8740 C.3   288  ASP288      0.1840
     61  C         51.4360   -3.6470   36.0620 C.2   288  ASP288      0.2623
     62  O         50.6730   -4.5880   35.7250 O.2   288  ASP288     -0.2715
     63  CB        50.3470   -2.9830   38.1980 C.3   288  ASP288      0.1450
     64  CG        51.4760   -3.4280   39.1860 C.2   288  ASP288      0.3671
     65  OD1       52.4380   -2.6990   39.3240 O.co2 288  ASP288     -0.2456
     66  OD2       51.3890   -4.5280   39.6900 O.co2 288  ASP288     -0.2456
     67  N         52.7490   -3.6110   35.7700 N.am  289  GLY289     -0.1940
     68  CA        53.3920   -4.6850   35.0620 C.3   289  GLY289      0.2014
     69  C         53.8080   -4.3490   33.6890 C.2   289  GLY289      0.2640
     70  O         54.0700   -3.1570   33.3730 O.2   289  GLY289     -0.2714
     71  N         53.8460   -5.3700   32.8310 N.am  290  THR290     -0.1936
     72  CA        54.4040   -5.3070   31.4930 C.3   290  THR290      0.2028
     73  C         53.3870   -5.2490   30.3230 C.2   290  THR290      0.2642
     74  O         52.3750   -5.9570   30.4230 O.2   290  THR290     -0.2714
     75  CB        55.2560   -6.5790   31.3140 C.3   290  THR290      0.1808
     76  OG1       56.3650   -6.5200   32.2550 O.3   290  THR290     -0.2208
     77  CG2       55.7950   -6.7200   29.9130 C.3   290  THR290      0.0379
     78  N         53.6660   -4.4380   29.2950 N.am  291  THR291     -0.1950
     79  CA        53.1110   -4.6000   27.9230 C.3   291  THR291      0.1897
     80  C         54.2220   -4.6900   26.9210 C.2   291  THR291      0.2313
     81  O         55.2080   -3.9180   27.0910 O.2   291  THR291     -0.2863
     82  CB        52.0840   -3.4870   27.5460 C.3   291  THR291      0.1794
     83  OG1       51.5940   -3.6710   26.2150 O.3   291  THR291     -0.2208
     84  CG2       52.6850   -2.0760   27.5920 C.3   291  THR291      0.0378
     85  N         50.9050   -1.5980   22.6630 N.3   294  TYR294     -0.1241
     86  CA        49.4530   -1.6420   22.2680 C.3   294  TYR294      0.1605
     87  C         49.0300   -0.3090   21.6760 C.2   294  TYR294      0.2264
     88  O         49.7490    0.6860   21.8330 O.2   294  TYR294     -0.2867
     89  CB        48.6080   -2.0560   23.4810 C.3   294  TYR294      0.0534
     90  CG        48.3270   -0.9710   24.5730 C.ar  294  TYR294     -0.0201
     91  CD1       49.2880   -0.6450   25.5580 C.ar  294  TYR294     -0.0009
     92  CD2       47.1190   -0.2230   24.5790 C.ar  294  TYR294     -0.0009
     93  CE1       49.0960    0.3410   26.5200 C.ar  294  TYR294      0.0417
     94  CE2       46.8860    0.6840   25.5620 C.ar  294  TYR294      0.0417
     95  CZ        47.8760    1.0280   26.5200 C.ar  294  TYR294      0.1957
     96  OH        47.6070    1.9360   27.5020 O.3   294  TYR294     -0.2866
     97  N         51.4270    2.9760   22.4570 N.3   303  VAL303     -0.1245
     98  CA        52.2790    2.8450   23.6130 C.3   303  VAL303      0.1561
     99  C         53.2920    1.7440   23.2620 C.2   303  VAL303      0.2260
    100  O         52.9000    0.6400   22.8850 O.2   303  VAL303     -0.2867
    101  CB        51.4870    2.4560   24.9160 C.3   303  VAL303      0.0252
    102  CG1       52.4770    2.1470   26.0340 C.3   303  VAL303      0.0019
    103  CG2       50.4830    3.5400   25.3070 C.3   303  VAL303      0.0019
    104  N         56.8470   -1.5230   27.4680 N.3   306  THR306     -0.1218
    105  CA        57.1580   -0.8300   28.7470 C.3   306  THR306      0.1862
    106  C         56.7670   -1.6470   30.0060 C.2   306  THR306      0.2287
    107  O         56.0200   -2.6290   29.9420 O.2   306  THR306     -0.2866
    108  CB        56.5430    0.6100   28.8200 C.3   306  THR306      0.1770
    109  OG1       57.1720    1.3260   29.8820 O.3   306  THR306     -0.2211
    110  CG2       55.0680    0.6320   29.1150 C.3   306  THR306      0.0375
    111  N         55.5420   -0.7430   34.0630 N.3   308  VAL308     -0.1245
    112  CA        55.1650    0.3050   35.0340 C.3   308  VAL308      0.1561
    113  C         54.8890   -0.3240   36.3740 C.2   308  VAL308      0.2260
    114  O         54.5810   -1.5200   36.4660 O.2   308  VAL308     -0.2867
    115  CB        53.9480    1.1780   34.5550 C.3   308  VAL308      0.0252
    116  CG1       54.2020    1.7320   33.1570 C.3   308  VAL308      0.0019
    117  CG2       52.6640    0.3840   34.5970 C.3   308  VAL308      0.0019
    118  N         51.0290    2.4590   38.5500 N.3   311  ALA311     -0.1245
    119  CA        50.9060    3.8360   37.9780 C.3   311  ALA311      0.1562
    120  C         49.4230    4.3360   37.9580 C.2   311  ALA311      0.2260
    121  O         48.5400    3.5760   37.4230 O.2   311  ALA311     -0.2867
    122  CB        51.4970    3.8550   36.6120 C.3   311  ALA311      0.0290
    123  N         46.8620    7.2500   36.4890 N.3   313  ASN313     -0.1240
    124  CA        46.8530    8.0840   35.2280 C.3   313  ASN313      0.1653
    125  C         45.4970    8.6960   35.0450 C.2   313  ASN313      0.2266
    126  O         44.4690    8.0790   35.4100 O.2   313  ASN313     -0.2867
    127  CB        47.1950    7.2120   33.9770 C.3   313  ASN313      0.1155
    128  CG        48.5060    6.4350   34.1180 C.2   313  ASN313      0.2627
    129  OD1       49.5940    6.9820   33.9380 O.2   313  ASN313     -0.2716
    130  ND2       48.3960    5.1230   34.5170 N.am  313  ASN313     -0.0877
@<TRIPOS>BOND
     1    87    88    2
     2    87    86    1
     3    86    85    1
     4    86    89    1
     5    97    98    1
     6   100    99    2
     7    99    98    1
     8    89    90    1
     9    98   101    1
    10    90    92   ar
    11    90    91   ar
    12    92    94   ar
    13   101   103    1
    14   101   102    1
    15    91    93   ar
    16    94    95   ar
    17    32    31    2
    18    31    30    1
    19    29    30    1
    20    83    82    1
    21    30    33    1
    22    95    93   ar
    23    95    96    1
    24    80    81    2
    25    80    79    1
    26   104   105    1
    27    82    84    1
    28    82    79    1
    29    33    35    1
    30    33    34    1
    31    18    19    1
    32    79    78    1
    33    20    21    2
    34    20    19    1
    35    19    22    1
    36   105   108    1
    37   105   106    1
    38   108   110    1
    39   108   109    1
    40    78    73   am
    41     7     6    1
    42    77    75    1
    43   107   106    2
    44    22    23    1
    45    24    26   ar
    46    24    23   ar
    47    73    74    2
    48    73    72    1
    49    26    28   ar
    50    23    25   ar
    51     6     8    1
    52     6     5    1
    53    28    27   ar
    54    17    16    1
    55    25    27   ar
    56    53    52    1
    57    52    51    1
    58    52    54    1
    59    75    72    1
    60    75    76    1
    61    72    71    1
    62    51    48    1
    63    15    16    1
    64    15    14    1
    65     5     2    1
    66    39    38    2
    67    71    69   am
    68    14    13    1
    69    36    37    1
    70    37    38    1
    71    50    49    2
    72   116   115    1
    73    48    47    1
    74    48    49    1
    75    13    10    1
    76    38    40   am
    77     1     2    1
    78    70    69    2
    79     2     3    1
    80    47    42   am
    81    69    68    1
    82   129   128    2
    83   127   128    1
    84   127   124    1
    85   111   112    1
    86   128   130   am
    87    42    43    2
    88    42    41    1
    89    40    41    1
    90    41    44    1
    91   115   117    1
    92   115   112    1
    93    10    11    1
    94    10     9    1
    95    11    12    2
    96     3     4    2
    97   112   113    1
    98   125   124    1
    99   125   126    2
   100    68    67    1
   101   124   123    1
   102    56    55    1
   103    56    57    1
   104    62    61    2
   105    67    61   am
   106    44    45    1
   107    44    46    1
   108    61    60    1
   109    59    57   am
   110    59    60    1
   111    57    58    2
   112   113   114    2
   113   122   119    1
   114    60    63    1
   115   121   120    2
   116   120   119    1
   117   119   118    1
   118    63    64    1
   119    64    65   ar
   120    64    66   ar
