@<TRIPOS>MOLECULE
tmp/6ehdA00.pdb
 110 101 0 0 0
SMALL
GASTEIGER

@<TRIPOS>ATOM
      1  N         39.9480   17.9100   18.2260 N.3    18  ARG18      -0.1245
      2  CA        40.0880   17.3850   19.6160 C.3    18  ARG18       0.1563
      3  C         41.0590   18.2540   20.4540 C.2    18  ARG18       0.2260
      4  O         42.1210   18.6710   19.9680 O.2    18  ARG18      -0.2867
      5  CB        40.6200   15.9330   19.6110 C.3    18  ARG18       0.0307
      6  CG        39.8040   14.9620   18.7040 C.3    18  ARG18       0.0489
      7  CD        40.2120   13.5100   18.9330 C.3    18  ARG18       0.2205
      8  NE        39.4150   12.5530   18.2170 N.pl3  18  ARG18      -0.0865
      9  CZ        39.5230   11.2290   18.3460 C.cat  18  ARG18       0.5346
     10  NH1       38.7450   10.4610   17.6500 N.pl3  18  ARG18       0.1354
     11  NH2       40.4650   10.6840   19.0910 N.pl3  18  ARG18       0.1354
     12  N         41.3700   15.4360   12.6790 N.3    37  ARG37      -0.1245
     13  CA        41.4180   15.0190   11.2490 C.3    37  ARG37       0.1563
     14  C         40.3480   15.6720   10.4180 C.2    37  ARG37       0.2260
     15  O         39.3590   16.1440   10.9400 O.2    37  ARG37      -0.2867
     16  CB        41.2770   13.4320   11.2000 C.3    37  ARG37       0.0307
     17  CG        39.8780   12.8800   11.3150 C.3    37  ARG37       0.0489
     18  CD        39.2720   12.6870   12.7040 C.3    37  ARG37       0.2205
     19  NE        40.0970   12.0420   13.7290 N.pl3  37  ARG37      -0.0865
     20  CZ        40.0990   10.7430   14.0410 C.cat  37  ARG37       0.5346
     21  NH1       39.3170    9.8880   13.4480 N.pl3  37  ARG37       0.1354
     22  NH2       40.9200   10.3590   14.9810 N.pl3  37  ARG37       0.1354
     23  N         41.6030   11.1600    3.7900 N.3    57  GLU57      -0.1245
     24  CA        41.5730   11.7350    5.1610 C.3    57  GLU57       0.1567
     25  C         42.9250   12.2250    5.4920 C.2    57  GLU57       0.2260
     26  O         43.9290   11.4730    5.3560 O.2    57  GLU57      -0.2867
     27  CB        41.1640   10.6380    6.1620 C.3    57  GLU57       0.0388
     28  CG        40.8870   11.1990    7.6290 C.3    57  GLU57       0.1160
     29  CD        40.2900   10.1000    8.5930 C.2    57  GLU57       0.3649
     30  OE1       41.0190    9.6540    9.4880 O.co2  57  GLU57      -0.2457
     31  OE2       39.1020    9.7520    8.3830 O.co2  57  GLU57      -0.2457
     32  N         46.1980   10.3320    6.0880 N.3    66  ARG66      -0.1245
     33  CA        45.9540    9.2150    7.0640 C.3    66  ARG66       0.1563
     34  C         45.4410    7.9570    6.3530 C.2    66  ARG66       0.2260
     35  O         45.8730    6.8300    6.6670 O.2    66  ARG66      -0.2867
     36  CB        44.9150    9.6210    8.1800 C.3    66  ARG66       0.0307
     37  CG        45.5820   10.4170    9.3150 C.3    66  ARG66       0.0489
     38  CD        44.4890   11.0710   10.2040 C.3    66  ARG66       0.2205
     39  NE        43.5580   10.1560   10.8690 N.pl3  66  ARG66      -0.0865
     40  CZ        43.7650    9.5320   12.0240 C.cat  66  ARG66       0.5346
     41  NH1       42.8130    8.7800   12.5290 N.pl3  66  ARG66       0.1354
     42  NH2       44.8950    9.6270   12.6730 N.pl3  66  ARG66       0.1354
     43  N         43.4350    1.5330    7.4950 N.3    85  TRP85      -0.1241
     44  CA        43.6110    0.8200    8.8100 C.3    85  TRP85       0.1605
     45  C         43.5300   -0.7070    8.5650 C.2    85  TRP85       0.2264
     46  O         42.8200   -1.1230    7.5940 O.2    85  TRP85      -0.2867
     47  CB        42.5920    1.2660    9.8450 C.3    85  TRP85       0.0550
     48  CG        42.5060    2.7530   10.0460 C.ar   85  TRP85       0.0003
     49  CD1       41.3690    3.5000    9.9250 C.ar   85  TRP85       0.0946
     50  CD2       43.5780    3.6720   10.1870 C.ar   85  TRP85       0.0152
     51  NE1       41.6640    4.8150   10.0760 N.ar   85  TRP85      -0.2442
     52  CE2       43.0170    4.9510   10.2400 C.ar   85  TRP85       0.0810
     53  CE3       44.9890    3.5420   10.2740 C.ar   85  TRP85       0.0012
     54  CZ2       43.7980    6.1100   10.3740 C.ar   85  TRP85       0.0191
     55  CZ3       45.7680    4.6950   10.4300 C.ar   85  TRP85       0.0001
     56  CH2       45.1680    5.9560   10.4770 C.ar   85  TRP85       0.0015
     57  N         42.0300   -3.8190   13.2640 N.3    89  ASP89      -0.1239
     58  CA        41.7010   -2.5160   13.9430 C.3    89  ASP89       0.1674
     59  C         40.2430   -2.1830   13.7850 C.2    89  ASP89       0.2266
     60  O         39.6270   -1.7120   14.7610 O.2    89  ASP89      -0.2867
     61  CB        42.5560   -1.4100   13.4130 C.3    89  ASP89       0.1410
     62  CG        42.5370   -0.1130   14.2560 C.2    89  ASP89       0.3668
     63  OD1       42.9530   -0.1500   15.4060 O.co2  89  ASP89      -0.2456
     64  OD2       42.1870    0.9410   13.6920 O.co2  89  ASP89      -0.2456
     65  N         51.2060   -1.1840   14.0420 N.3   112  ASP112     -0.1225
     66  CA        50.5330    0.0360   14.5410 C.3   112  ASP112      0.1805
     67  C         49.1560    0.2690   13.8200 C.2   112  ASP112      0.2597
     68  O         48.7580    1.3820   13.6110 O.2   112  ASP112     -0.2718
     69  CB        51.4240    1.3020   14.3790 C.3   112  ASP112      0.1424
     70  CG        52.7220    1.2200   15.1920 C.2   112  ASP112      0.3668
     71  OD1       52.8380    0.3910   16.1390 O.co2 112  ASP112     -0.2456
     72  OD2       53.6470    1.9850   14.8640 O.co2 112  ASP112     -0.2456
     73  N         48.4950   -0.8140   13.4030 N.am  113  ALA113     -0.1979
     74  CA        47.1560   -0.8000   12.9180 C.3   113  ALA113      0.1597
     75  C         47.0310   -0.1860   11.5160 C.2   113  ALA113      0.2287
     76  O         45.9270    0.0870   11.0880 O.2   113  ALA113     -0.2864
     77  CB        46.2060   -0.1330   13.9200 C.3   113  ALA113      0.0319
     78  N         47.8300   -0.3160   21.0730 N.3   295  THR295     -0.1218
     79  CA        47.2000    0.8510   20.4840 C.3   295  THR295      0.1862
     80  C         45.8330    1.1100   21.1270 C.2   295  THR295      0.2287
     81  O         45.0930    0.1700   21.3620 O.2   295  THR295     -0.2866
     82  CB        47.0750    0.6420   18.8950 C.3   295  THR295      0.1770
     83  OG1       45.8610    1.1500   18.3690 O.3   295  THR295     -0.2211
     84  CG2       47.1710   -0.7630   18.4630 C.3   295  THR295      0.0375
     85  N         42.4740    2.5410   20.5010 N.3   297  LYS297     -0.1245
     86  CA        41.7040    2.9890   19.3360 C.3   297  LYS297      0.1561
     87  C         41.0170    4.3410   19.5840 C.2   297  LYS297      0.2260
     88  O         40.9550    5.2040   18.7000 O.2   297  LYS297     -0.2867
     89  CB        40.6840    1.9470   18.8860 C.3   297  LYS297      0.0271
     90  CG        40.0100    2.2430   17.5530 C.3   297  LYS297      0.0035
     91  CD        39.1720    1.0840   17.0420 C.3   297  LYS297      0.0206
     92  CE        38.4490    1.3660   15.7630 C.3   297  LYS297      0.1093
     93  NZ        37.5720    0.2460   15.4190 N.3   297  LYS297     -0.1314
     94  N         43.7390    7.0650   19.4370 N.3   300  ASP300     -0.1239
     95  CA        44.7750    6.7690   18.4840 C.3   300  ASP300      0.1674
     96  C         46.1700    6.7210   19.1140 C.2   300  ASP300      0.2266
     97  O         47.1510    6.7420   18.4090 O.2   300  ASP300     -0.2867
     98  CB        44.8730    7.8380   17.3810 C.3   300  ASP300      0.1410
     99  CG        44.1710    7.4950   16.1590 C.2   300  ASP300      0.3668
    100  OD1       43.0890    6.8640   16.2260 O.co2 300  ASP300     -0.2456
    101  OD2       44.7000    7.9220   15.1070 O.co2 300  ASP300     -0.2456
    102  N         49.7020    5.2380   20.5020 N.3   302  GLU302     -0.1245
    103  CA        50.4880    3.9980   20.4720 C.3   302  GLU302      0.1567
    104  C         51.3880    4.0700   21.7090 C.2   302  GLU302      0.2260
    105  O         51.9500    5.1180   22.0290 O.2   302  GLU302     -0.2867
    106  CB        51.2840    3.8150   19.1580 C.3   302  GLU302      0.0388
    107  CG        50.4260    3.7120   17.8740 C.3   302  GLU302      0.1160
    108  CD        49.7200    2.3660   17.6840 C.2   302  GLU302      0.3649
    109  OE1       49.7060    1.5320   18.6050 O.co2 302  GLU302     -0.2457
    110  OE2       49.1270    2.1370   16.6140 O.co2 302  GLU302     -0.2457
@<TRIPOS>BOND
     1    23    24    1
     2    24    25    1
     3    24    27    1
     4    26    25    2
     5    32    33    1
     6    27    28    1
     7    34    35    2
     8    34    33    1
     9    33    36    1
    10    43    44    1
    11    46    45    2
    12    28    29    1
    13    36    37    1
    14    31    29   ar
    15    45    44    1
    16    29    30   ar
    17    44    47    1
    18    37    38    1
    19    47    48    1
    20    49    48   ar
    21    49    51   ar
    22    48    50   ar
    23    51    52   ar
    24    50    52   ar
    25    50    53   ar
    26    38    39    1
    27    52    54   ar
    28    53    55   ar
    29    54    56   ar
    30    14    15    2
    31    14    13    1
    32    55    56   ar
    33    39    40    2
    34    76    75    2
    35    16    13    1
    36    16    17    1
    37    13    12    1
    38    17    18    1
    39    75    74    1
    40    40    41    1
    41    40    42    1
    42    18    19    1
    43    74    73    1
    44    74    77    1
    45    57    58    1
    46    73    67   am
    47    61    58    1
    48    61    62    1
    49    21    20    1
    50    68    67    2
    51    64    62   ar
    52    19    20    2
    53    59    58    1
    54    59    60    2
    55    67    66    1
    56    20    22    1
    57    65    66    1
    58    62    63   ar
    59    69    66    1
    60    69    70    1
    61    72    70   ar
    62   101    99   ar
    63    70    71   ar
    64    93    92    1
    65    92    91    1
    66    99   100   ar
    67    99    98    1
    68   110   108   ar
    69    91    90    1
    70    98    95    1
    71    90    89    1
    72    10     9    1
    73   108   107    1
    74   108   109   ar
    75   107   106    1
    76     8     9    2
    77     8     7    1
    78     1     2    1
    79     9    11    1
    80    83    82    1
    81    97    96    2
    82    84    82    1
    83    95    96    1
    84    95    94    1
    85    88    87    2
    86     6     7    1
    87     6     5    1
    88    89    86    1
    89    82    79    1
    90   106   103    1
    91    86    87    1
    92    86    85    1
    93     5     2    1
    94     2     3    1
    95     4     3    2
    96   103   102    1
    97   103   104    1
    98    79    78    1
    99    79    80    1
   100    80    81    2
   101   104   105    2
