@<TRIPOS>MOLECULE
tmp/6ehdA06.pdb
 85 82 0 0 0
SMALL
GASTEIGER

@<TRIPOS>ATOM
      1  N         21.9350   -5.5120   27.2770 N.3   202  ILE202     -0.1245
      2  CA        20.7160   -5.7190   28.1230 C.3   202  ILE202      0.1561
      3  C         20.2810   -4.3560   28.6860 C.2   202  ILE202      0.2260
      4  O         20.9130   -3.8360   29.6290 O.2   202  ILE202     -0.2867
      5  CB        20.9050   -6.7320   29.2840 C.3   202  ILE202      0.0252
      6  CG1       22.3940   -6.8410   29.7260 C.3   202  ILE202      0.0019
      7  CG2       20.3440   -8.0890   28.8650 C.3   202  ILE202      0.0019
      8  CD1       22.6750   -7.4660   31.0870 C.3   202  ILE202      0.0001
      9  N         22.5910   -1.3450   29.4450 N.3   205  ALA205     -0.1231
     10  CA        23.9480   -1.9050   29.6880 C.3   205  ALA205      0.1694
     11  C         24.5230   -2.6080   28.4820 C.2   205  ALA205      0.2592
     12  O         23.7740   -3.2580   27.6870 O.2   205  ALA205     -0.2718
     13  CB        23.9640   -2.8390   30.9190 C.3   205  ALA205      0.0304
     14  N         25.8670   -2.5550   28.3470 N.am  206  LEU206     -0.1966
     15  CA        26.5990   -3.3580   27.3410 C.3   206  LEU206      0.1728
     16  C         27.7080   -4.0490   28.1000 C.2   206  LEU206      0.2616
     17  O         28.3960   -3.3780   28.9070 O.2   206  LEU206     -0.2715
     18  CB        27.1800   -2.4410   26.2620 C.3   206  LEU206      0.0311
     19  CG        28.2240   -3.0640   25.3280 C.3   206  LEU206      0.0022
     20  CD1       27.5070   -4.1230   24.4990 C.3   206  LEU206      0.0001
     21  CD2       28.8820   -2.0010   24.4420 C.3   206  LEU206      0.0001
     22  N         27.8570   -5.3780   27.9550 N.am  207  ILE207     -0.1977
     23  CA        29.0510   -6.0720   28.5850 C.3   207  ILE207      0.1596
     24  C         29.7880   -6.8550   27.5220 C.2   207  ILE207      0.2287
     25  O         29.1580   -7.5580   26.7020 O.2   207  ILE207     -0.2864
     26  CB        28.6310   -7.0490   29.7060 C.3   207  ILE207      0.0276
     27  CG1       27.8440   -6.2460   30.7740 C.3   207  ILE207      0.0022
     28  CG2       29.8800   -7.6460   30.3510 C.3   207  ILE207      0.0022
     29  CD1       27.4060   -7.0400   32.0160 C.3   207  ILE207      0.0001
     30  N         32.5540   -2.8810   30.1920 N.3   234  GLY234     -0.1210
     31  CA        31.1340   -2.5190   30.0040 C.3   234  GLY234      0.1956
     32  C         30.8530   -1.0330   29.9690 C.2   234  GLY234      0.2613
     33  O         31.6970   -0.2100   30.3810 O.2   234  GLY234     -0.2717
     34  N         29.6120   -0.7440   29.5620 N.am  235  THR235     -0.1938
     35  CA        29.1060    0.6510   29.5660 C.3   235  THR235      0.2028
     36  C         27.7100    0.6760   30.0960 C.2   235  THR235      0.2642
     37  O         26.9670   -0.3390   29.9970 O.2   235  THR235     -0.2714
     38  CB        29.1310    1.2750   28.1470 C.3   235  THR235      0.1808
     39  OG1       28.1280    0.7300   27.2870 O.3   235  THR235     -0.2208
     40  CG2       30.4980    1.2230   27.4520 C.3   235  THR235      0.0379
     41  N         27.3060    1.8180   30.6440 N.am  236  TYR236     -0.1973
     42  CA        25.9450    1.9480   31.1980 C.3   236  TYR236      0.1639
     43  C         25.4420    3.3630   30.9600 C.2   236  TYR236      0.2290
     44  O         26.0670    4.3240   31.4420 O.2   236  TYR236     -0.2864
     45  CB        25.8860    1.6370   32.6690 C.3   236  TYR236      0.0560
     46  CG        24.4820    1.2900   33.1460 C.ar  236  TYR236     -0.0198
     47  CD1       23.5470    2.3090   33.5280 C.ar  236  TYR236     -0.0009
     48  CD2       24.0390   -0.0320   33.1970 C.ar  236  TYR236     -0.0009
     49  CE1       22.2280    1.9850   33.9260 C.ar  236  TYR236      0.0417
     50  CE2       22.7140   -0.3360   33.5550 C.ar  236  TYR236      0.0417
     51  CZ        21.8310    0.6890   33.9310 C.ar  236  TYR236      0.1957
     52  OH        20.5480    0.3670   34.2960 O.3   236  TYR236     -0.2866
     53  N         28.5310    5.9240   31.6530 N.3   244  LEU244     -0.1231
     54  CA        29.6770    5.5170   32.4130 C.3   244  LEU244      0.1693
     55  C         30.3350    4.2820   31.7230 C.2   244  LEU244      0.2592
     56  O         29.6490    3.4440   31.1280 O.2   244  LEU244     -0.2718
     57  CB        29.2840    5.0980   33.8820 C.3   244  LEU244      0.0284
     58  CG        28.5550    6.1690   34.7450 C.3   244  LEU244      0.0019
     59  CD1       28.4620    5.7000   36.2150 C.3   244  LEU244      0.0001
     60  CD2       29.3030    7.4610   34.6520 C.3   244  LEU244      0.0001
     61  N         31.6130    4.1090   31.9360 N.am  245  TYR245     -0.1962
     62  CA        32.2830    2.9160   31.3430 C.3   245  TYR245      0.1771
     63  C         33.4650    2.4650   32.2160 C.2   245  TYR245      0.2619
     64  O         34.0590    3.2130   33.0270 O.2   245  TYR245     -0.2715
     65  CB        32.7520    3.2250   29.9080 C.3   245  TYR245      0.0574
     66  CG        33.7530    4.3340   29.7950 C.ar  245  TYR245     -0.0198
     67  CD1       35.1090    4.1140   29.9200 C.ar  245  TYR245     -0.0009
     68  CD2       33.3130    5.6490   29.5210 C.ar  245  TYR245     -0.0009
     69  CE1       36.0400    5.1440   29.7800 C.ar  245  TYR245      0.0417
     70  CE2       34.2430    6.7040   29.3930 C.ar  245  TYR245      0.0417
     71  CZ        35.5770    6.4710   29.5320 C.ar  245  TYR245      0.1957
     72  OH        36.5430    7.4660   29.4050 O.3   245  TYR245     -0.2866
     73  N         33.8140    1.1660   32.1060 N.am  246  ALA246     -0.1977
     74  CA        34.9380    0.5750   32.9090 C.3   246  ALA246      0.1597
     75  C         35.4680   -0.6920   32.2670 C.2   246  ALA246      0.2287
     76  O         34.7470   -1.3610   31.4630 O.2   246  ALA246     -0.2864
     77  CB        34.4540    0.2740   34.3640 C.3   246  ALA246      0.0319
     78  N         38.2580    3.5230   34.4830 N.3   268  LEU268     -0.1245
     79  CA        36.8870    3.9080   34.8120 C.3   268  LEU268      0.1561
     80  C         36.6890    5.3660   34.2650 C.2   268  LEU268      0.2260
     81  O         37.5800    6.1860   34.4430 O.2   268  LEU268     -0.2867
     82  CB        36.7700    4.0250   36.3690 C.3   268  LEU268      0.0270
     83  CG        35.4630    4.4880   37.0150 C.3   268  LEU268      0.0019
     84  CD1       34.2030    3.7450   36.6070 C.3   268  LEU268      0.0001
     85  CD2       35.4930    4.4970   38.5640 C.3   268  LEU268      0.0001
@<TRIPOS>BOND
     1    21    19    1
     2    20    19    1
     3    19    18    1
     4    18    15    1
     5    25    24    2
     6     1     2    1
     7    39    38    1
     8    15    16    1
     9    15    14    1
    10    40    38    1
    11    24    23    1
    12    12    11    2
    13    22    16   am
    14    22    23    1
    15    16    17    2
    16     2     3    1
    17     2     5    1
    18    38    35    1
    19    14    11   am
    20    11    10    1
    21    23    26    1
    22     3     4    2
    23     7     5    1
    24     5     6    1
    25    70    68   ar
    26    70    71   ar
    27    72    71    1
    28     9    10    1
    29    68    66   ar
    30    71    69   ar
    31    34    35    1
    32    34    32   am
    33    35    36    1
    34    10    13    1
    35    26    28    1
    36    26    27    1
    37     6     8    1
    38    69    67   ar
    39    66    65    1
    40    66    67   ar
    41    65    62    1
    42    32    31    1
    43    32    33    2
    44    37    36    2
    45    31    30    1
    46    36    41   am
    47    41    42    1
    48    27    29    1
    49    43    42    1
    50    43    44    2
    51    56    55    2
    52    42    45    1
    53    62    61    1
    54    62    63    1
    55    76    75    2
    56    53    54    1
    57    55    61   am
    58    55    54    1
    59    73    63   am
    60    73    74    1
    61    63    64    2
    62    75    74    1
    63    54    57    1
    64    45    46    1
    65    74    77    1
    66    46    48   ar
    67    46    47   ar
    68    48    50   ar
    69    47    49   ar
    70    50    51   ar
    71    57    58    1
    72    49    51   ar
    73    51    52    1
    74    80    81    2
    75    80    79    1
    76    78    79    1
    77    60    58    1
    78    58    59    1
    79    79    82    1
    80    82    83    1
    81    84    83    1
    82    83    85    1
