@<TRIPOS>MOLECULE
tmp/6eheA04.pdb
 80 78 0 0 0
SMALL
GASTEIGER

@<TRIPOS>ATOM
      1  N         43.7360  126.3260    4.9490 N.3   145  LEU145     -0.1245
      2  CA        44.0080  124.9530    4.5580 C.3   145  LEU145      0.1561
      3  C         45.2990  124.5160    5.2170 C.2   145  LEU145      0.2260
      4  O         46.3110  125.2030    5.0560 O.2   145  LEU145     -0.2867
      5  CB        44.1440  124.8190    3.0320 C.3   145  LEU145      0.0270
      6  CG        44.6860  123.4510    2.5880 C.3   145  LEU145      0.0019
      7  CD1       43.6780  122.3790    2.9770 C.3   145  LEU145      0.0001
      8  CD2       44.9410  123.4100    1.1040 C.3   145  LEU145      0.0001
      9  N         50.6480  124.5720    6.5570 N.3   159  GLY159     -0.1210
     10  CA        49.5180  125.1620    5.8770 C.3   159  GLY159      0.1956
     11  C         49.3830  126.6090    6.2790 C.2   159  GLY159      0.2612
     12  O         50.2610  127.1820    6.9150 O.2   159  GLY159     -0.2717
     13  N         48.2530  127.1830    5.8990 N.am  160  GLY160     -0.1942
     14  CA        48.0580  128.6040    6.1190 C.3   160  GLY160      0.2014
     15  C         46.8100  129.0680    5.4370 C.2   160  GLY160      0.2639
     16  O         45.8790  128.2940    5.1850 O.2   160  GLY160     -0.2714
     17  N         46.7890  130.3620    5.1290 N.am  161  GLY161     -0.1939
     18  CA        45.6030  130.9260    4.5190 C.3   161  GLY161      0.2014
     19  C         45.6350  132.4360    4.5650 C.2   161  GLY161      0.2638
     20  O         46.7010  133.0530    4.6560 O.2   161  GLY161     -0.2714
     21  N         44.4470  133.0170    4.5230 N.am  162  GLN162     -0.1977
     22  CA        44.3590  134.4500    4.3120 C.3   162  GLN162      0.1601
     23  C         43.0700  134.9460    4.9130 C.2   162  GLN162      0.2287
     24  O         42.0220  134.3230    4.7340 O.2   162  GLN162     -0.2864
     25  CB        44.4200  134.7860    2.8200 C.3   162  GLN162      0.0394
     26  CG        43.9720  136.1840    2.4660 C.3   162  GLN162      0.0908
     27  CD        44.0590  136.4280    0.9690 C.2   162  GLN162      0.2608
     28  OE1       45.1250  136.2520    0.3880 O.2   162  GLN162     -0.2717
     29  NE2       42.9380  136.8100    0.3390 N.am  162  GLN162     -0.0878
     30  N         48.0530  137.3950    5.3660 N.3   189  SER189     -0.1202
     31  CA        48.3200  136.1640    4.6460 C.3   189  SER189      0.2020
     32  C         49.4130  135.4400    5.3940 C.2   189  SER189      0.2619
     33  O         50.3830  136.0670    5.8130 O.2   189  SER189     -0.2717
     34  CB        48.7630  136.4420    3.2140 C.3   189  SER189      0.2103
     35  OG        47.7220  137.1400    2.5430 O.3   189  SER189     -0.2182
     36  N         49.2490  134.1380    5.6050 N.am  190  TYR190     -0.1961
     37  CA        50.2080  133.4870    6.4850 C.3   190  TYR190      0.1771
     38  C         50.3870  132.0330    6.0920 C.2   190  TYR190      0.2619
     39  O         49.4910  131.3980    5.5170 O.2   190  TYR190     -0.2715
     40  CB        49.7720  133.5970    7.9550 C.3   190  TYR190      0.0574
     41  CG        48.3030  133.3440    8.1250 C.ar  190  TYR190     -0.0198
     42  CD1       47.3790  134.3800    7.9860 C.ar  190  TYR190     -0.0009
     43  CD2       47.8270  132.0690    8.4210 C.ar  190  TYR190     -0.0009
     44  CE1       46.0040  134.1540    8.1200 C.ar  190  TYR190      0.0417
     45  CE2       46.4600  131.8310    8.5760 C.ar  190  TYR190      0.0417
     46  CZ        45.5570  132.8790    8.4060 C.ar  190  TYR190      0.1957
     47  OH        44.2070  132.6440    8.5470 O.3   190  TYR190     -0.2866
     48  N         51.5600  131.5160    6.4340 N.am  191  PHE191     -0.1974
     49  CA        51.9120  130.1390    6.1640 C.3   191  PHE191      0.1639
     50  C         52.7980  129.6540    7.2910 C.2   191  PHE191      0.2290
     51  O         53.4980  130.4430    7.9310 O.2   191  PHE191     -0.2864
     52  CB        52.6170  129.9750    4.8140 C.3   191  PHE191      0.0560
     53  CG        52.8880  128.5260    4.4560 C.ar  191  PHE191     -0.0200
     54  CD1       51.9080  127.7490    3.8600 C.ar  191  PHE191     -0.0042
     55  CD2       54.1040  127.9370    4.7600 C.ar  191  PHE191     -0.0042
     56  CE1       52.1350  126.4310    3.5540 C.ar  191  PHE191     -0.0003
     57  CE2       54.3330  126.6120    4.4670 C.ar  191  PHE191     -0.0003
     58  CZ        53.3480  125.8570    3.8670 C.ar  191  PHE191     -0.0000
     59  N         55.1620  132.5810    8.6980 N.3   210  ASN210     -0.1225
     60  CA        55.3970  133.7620    7.8990 C.3   210  ASN210      0.1785
     61  C         54.0570  134.4120    7.6770 C.2   210  ASN210      0.2597
     62  O         53.0580  133.7140    7.5040 O.2   210  ASN210     -0.2718
     63  CB        56.0480  133.4480    6.5470 C.3   210  ASN210      0.1169
     64  CG        56.1290  134.6850    5.6360 C.2   210  ASN210      0.2627
     65  OD1       55.4460  134.7690    4.6140 O.2   210  ASN210     -0.2716
     66  ND2       56.9680  135.6530    6.0160 N.am  210  ASN210     -0.0877
     67  N         54.0360  135.7420    7.7000 N.am  211  ALA211     -0.1966
     68  CA        52.7980  136.4630    7.4390 C.3   211  ALA211      0.1728
     69  C         53.0960  137.7970    6.7660 C.2   211  ALA211      0.2616
     70  O         54.1990  138.3340    6.8290 O.2   211  ALA211     -0.2715
     71  CB        51.9900  136.6950    8.7270 C.3   211  ALA211      0.0334
     72  N         52.0710  138.3350    6.1460 N.am  212  GLU212     -0.1977
     73  CA        52.1450  139.6020    5.4630 C.3   212  GLU212      0.1602
     74  C         50.8350  140.3100    5.7410 C.2   212  GLU212      0.2287
     75  O         49.7570  139.7630    5.4850 O.2   212  GLU212     -0.2864
     76  CB        52.3620  139.4250    3.9560 C.3   212  GLU212      0.0415
     77  CG        52.6030  140.7490    3.2390 C.3   212  GLU212      0.1163
     78  CD        52.4650  140.6400    1.7470 C.2   212  GLU212      0.3649
     79  OE1       51.3360  140.4020    1.2650 O.co2 212  GLU212     -0.2457
     80  OE2       53.5010  140.7820    1.0720 O.co2 212  GLU212     -0.2457
@<TRIPOS>BOND
     1    29    27   am
     2    28    27    2
     3    27    26    1
     4    80    78   ar
     5     8     6    1
     6    79    78   ar
     7    78    77    1
     8    26    25    1
     9    35    34    1
    10     6     7    1
    11     6     5    1
    12    25    22    1
    13     5     2    1
    14    34    31    1
    15    77    76    1
    16    56    54   ar
    17    56    58   ar
    18    54    53   ar
    19    58    57   ar
    20    76    73    1
    21    22    21    1
    22    22    23    1
    23    53    55   ar
    24    53    52    1
    25    57    55   ar
    26    18    19    1
    27    18    17    1
    28    21    19   am
    29     2     1    1
    30     2     3    1
    31    19    20    2
    32    65    64    2
    33    31    30    1
    34    31    32    1
    35    24    23    2
    36    52    49    1
    37     4     3    2
    38    17    15   am
    39    16    15    2
    40    32    36   am
    41    32    33    2
    42    15    14    1
    43    73    74    1
    44    73    72    1
    45    75    74    2
    46    39    38    2
    47    36    37    1
    48    64    66   am
    49    64    63    1
    50    10    11    1
    51    10     9    1
    52    13    14    1
    53    13    11   am
    54    38    48   am
    55    38    37    1
    56    72    69   am
    57    49    48    1
    58    49    50    1
    59    11    12    2
    60    37    40    1
    61    63    60    1
    62    69    70    2
    63    69    68    1
    64    50    51    2
    65    68    67    1
    66    68    71    1
    67    62    61    2
    68    61    67   am
    69    61    60    1
    70    60    59    1
    71    40    41    1
    72    42    44   ar
    73    42    41   ar
    74    44    46   ar
    75    41    43   ar
    76    46    47    1
    77    46    45   ar
    78    43    45   ar
