@<TRIPOS>MOLECULE
tmp/6eheA02.pdb
 90 87 0 0 0
SMALL
GASTEIGER

@<TRIPOS>ATOM
      1  N         31.9530  118.3070    8.4380 N.3    76  PHE76      -0.1241
      2  CA        31.7250  119.6880    8.0540 C.3    76  PHE76       0.1605
      3  C         31.0890  120.3670    9.2520 C.2    76  PHE76       0.2264
      4  O         30.1270  119.8460    9.8210 O.2    76  PHE76      -0.2867
      5  CB        30.8080  119.7780    6.8480 C.3    76  PHE76       0.0534
      6  CG        31.2370  118.9340    5.6840 C.ar   76  PHE76      -0.0203
      7  CD1       31.0630  117.5560    5.6930 C.ar   76  PHE76      -0.0042
      8  CD2       31.7970  119.5160    4.5780 C.ar   76  PHE76      -0.0042
      9  CE1       31.4700  116.7810    4.6190 C.ar   76  PHE76      -0.0003
     10  CE2       32.1940  118.7540    3.4960 C.ar   76  PHE76      -0.0003
     11  CZ        32.0320  117.3880    3.5210 C.ar   76  PHE76      -0.0000
     12  N         32.4380  127.5800    7.5180 N.3   116  VAL116     -0.1245
     13  CA        32.3570  126.1420    7.3220 C.3   116  VAL116      0.1561
     14  C         33.7840  125.6050    7.4120 C.2   116  VAL116      0.2260
     15  O         34.6960  126.0950    6.7300 O.2   116  VAL116     -0.2867
     16  CB        31.6900  125.7650    5.9870 C.3   116  VAL116      0.0252
     17  CG1       32.2750  126.5550    4.8620 C.3   116  VAL116      0.0019
     18  CG2       31.9040  124.2950    5.7170 C.3   116  VAL116      0.0019
     19  N         36.1300  121.9670    7.5710 N.3   118  TYR118     -0.1241
     20  CA        36.1740  120.6100    7.0720 C.3   118  TYR118      0.1605
     21  C         37.3470  119.9080    7.7200 C.2   118  TYR118      0.2264
     22  O         38.4300  120.5000    7.8260 O.2   118  TYR118     -0.2867
     23  CB        36.3730  120.6100    5.5730 C.3   118  TYR118      0.0534
     24  CG        36.6030  119.2340    5.0320 C.ar  118  TYR118     -0.0201
     25  CD1       35.5530  118.3520    4.9200 C.ar  118  TYR118     -0.0009
     26  CD2       37.8690  118.8050    4.6300 C.ar  118  TYR118     -0.0009
     27  CE1       35.7410  117.0960    4.4380 C.ar  118  TYR118      0.0417
     28  CE2       38.0610  117.5250    4.1380 C.ar  118  TYR118      0.0417
     29  CZ        36.9760  116.6840    4.0490 C.ar  118  TYR118      0.1957
     30  OH        37.0910  115.4150    3.5700 O.3   118  TYR118     -0.2866
     31  N         40.4270  122.3360    6.6800 N.3   129  ALA129     -0.1231
     32  CA        40.2280  123.5420    5.8840 C.3   129  ALA129      0.1694
     33  C         39.0410  124.3200    6.4260 C.2   129  ALA129      0.2593
     34  O         38.2630  123.8200    7.2350 O.2   129  ALA129     -0.2718
     35  CB        40.0140  123.2200    4.4130 C.3   129  ALA129      0.0304
     36  N         38.9280  125.5660    5.9970 N.am  130  GLY130     -0.1942
     37  CA        37.9040  126.4440    6.5410 C.3   130  GLY130      0.2014
     38  C         37.6910  127.6280    5.6510 C.2   130  GLY130      0.2638
     39  O         38.6240  128.1280    5.0080 O.2   130  GLY130     -0.2714
     40  N         36.4520  128.1010    5.5960 N.am  131  TYR131     -0.1973
     41  CA        36.0800  129.2960    4.8500 C.3   131  TYR131      0.1639
     42  C         35.1530  130.1340    5.7140 C.2   131  TYR131      0.2290
     43  O         34.1580  129.6270    6.2380 O.2   131  TYR131     -0.2864
     44  CB        35.3820  128.9560    3.5200 C.3   131  TYR131      0.0560
     45  CG        35.2250  130.1320    2.5700 C.ar  131  TYR131     -0.0198
     46  CD1       36.3340  130.6850    1.9250 C.ar  131  TYR131     -0.0009
     47  CD2       33.9740  130.6930    2.3070 C.ar  131  TYR131     -0.0009
     48  CE1       36.2020  131.7740    1.0470 C.ar  131  TYR131      0.0417
     49  CE2       33.8350  131.7860    1.4190 C.ar  131  TYR131      0.0417
     50  CZ        34.9510  132.3100    0.7980 C.ar  131  TYR131      0.1957
     51  OH        34.8400  133.3850   -0.0590 O.3   131  TYR131     -0.2866
     52  N         40.0840  132.1370    4.5920 N.3   143  ALA143     -0.1231
     53  CA        40.2130  130.9080    3.8320 C.3   143  ALA143      0.1694
     54  C         41.4750  130.2340    4.3240 C.2   143  ALA143      0.2592
     55  O         42.5330  130.8680    4.3460 O.2   143  ALA143     -0.2718
     56  CB        40.2890  131.1700    2.3160 C.3   143  ALA143      0.0304
     57  N         41.3640  128.9680    4.7120 N.am  144  GLU144     -0.1966
     58  CA        42.4470  128.3080    5.4120 C.3   144  GLU144      0.1733
     59  C         42.5080  126.8440    4.9920 C.2   144  GLU144      0.2616
     60  O         41.4740  126.1990    4.7360 O.2   144  GLU144     -0.2715
     61  CB        42.2540  128.4210    6.9250 C.3   144  GLU144      0.0429
     62  CG        42.7230  129.7650    7.4890 C.3   144  GLU144      0.1163
     63  CD        42.5400  129.8920    8.9900 C.2   144  GLU144      0.3649
     64  OE1       41.7980  129.0500    9.5540 O.co2 144  GLU144     -0.2457
     65  OE2       43.0990  130.8390    9.5960 O.co2 144  GLU144     -0.2457
     66  N         43.7360  126.3260    4.9490 N.am  145  LEU145     -0.1977
     67  CA        44.0080  124.9530    4.5580 C.3   145  LEU145      0.1596
     68  C         45.2990  124.5160    5.2170 C.2   145  LEU145      0.2287
     69  O         46.3110  125.2030    5.0560 O.2   145  LEU145     -0.2864
     70  CB        44.1440  124.8190    3.0320 C.3   145  LEU145      0.0297
     71  CG        44.6860  123.4510    2.5880 C.3   145  LEU145      0.0022
     72  CD1       43.6780  122.3790    2.9770 C.3   145  LEU145      0.0001
     73  CD2       44.9410  123.4100    1.1040 C.3   145  LEU145      0.0001
     74  N         48.2530  127.1830    5.8990 N.3   160  GLY160     -0.1210
     75  CA        48.0580  128.6040    6.1190 C.3   160  GLY160      0.1956
     76  C         46.8100  129.0680    5.4370 C.2   160  GLY160      0.2612
     77  O         45.8790  128.2940    5.1850 O.2   160  GLY160     -0.2717
     78  N         46.7890  130.3620    5.1290 N.am  161  GLY161     -0.1942
     79  CA        45.6030  130.9260    4.5190 C.3   161  GLY161      0.2014
     80  C         45.6350  132.4360    4.5650 C.2   161  GLY161      0.2638
     81  O         46.7010  133.0530    4.6560 O.2   161  GLY161     -0.2714
     82  N         44.4470  133.0170    4.5230 N.am  162  GLN162     -0.1977
     83  CA        44.3590  134.4500    4.3120 C.3   162  GLN162      0.1601
     84  C         43.0700  134.9460    4.9130 C.2   162  GLN162      0.2287
     85  O         42.0220  134.3230    4.7340 O.2   162  GLN162     -0.2864
     86  CB        44.4200  134.7860    2.8200 C.3   162  GLN162      0.0394
     87  CG        43.9720  136.1840    2.4660 C.3   162  GLN162      0.0908
     88  CD        44.0590  136.4280    0.9690 C.2   162  GLN162      0.2608
     89  OE1       45.1250  136.2520    0.3880 O.2   162  GLN162     -0.2717
     90  NE2       42.9380  136.8100    0.3390 N.am  162  GLN162     -0.0878
@<TRIPOS>BOND
     1    51    50    1
     2    90    88   am
     3    89    88    2
     4    50    48   ar
     5    50    49   ar
     6    88    87    1
     7    48    46   ar
     8    73    71    1
     9    49    47   ar
    10    46    45   ar
    11    47    45   ar
    12    56    53    1
    13    87    86    1
    14    45    44    1
    15    71    72    1
    16    71    70    1
    17    86    83    1
    18    70    67    1
    19    10    11   ar
    20    10     8   ar
    21    44    41    1
    22    11     9   ar
    23    30    29    1
    24    53    54    1
    25    53    52    1
    26    29    28   ar
    27    29    27   ar
    28    28    26   ar
    29    83    82    1
    30    83    84    1
    31    54    55    2
    32    54    57   am
    33    35    32    1
    34    27    25   ar
    35    79    80    1
    36    79    78    1
    37    82    80   am
    38    67    66    1
    39    67    68    1
    40    80    81    2
    41     8     6   ar
    42     9     7   ar
    43    26    24   ar
    44    57    58    1
    45    85    84    2
    46    60    59    2
    47    41    40    1
    48    41    42    1
    49    17    16    1
    50    25    24   ar
    51    66    59   am
    52    59    58    1
    53    39    38    2
    54    24    23    1
    55    69    68    2
    56    78    76   am
    57    77    76    2
    58    58    61    1
    59    76    75    1
    60    23    20    1
    61    40    38   am
    62    38    37    1
    63     6     7   ar
    64     6     5    1
    65    42    43    2
    66    18    16    1
    67    32    33    1
    68    32    31    1
    69    74    75    1
    70    16    13    1
    71    36    33   am
    72    36    37    1
    73    33    34    2
    74    15    14    2
    75     5     2    1
    76    61    62    1
    77    20    19    1
    78    20    21    1
    79    13    14    1
    80    13    12    1
    81    62    63    1
    82    21    22    2
    83     2     1    1
    84     2     3    1
    85    63    64   ar
    86    63    65   ar
    87     3     4    2
