@<TRIPOS>MOLECULE
tmp/6ehuB03.pdb
 104 99 0 0 0
SMALL
GASTEIGER

@<TRIPOS>ATOM
      1  N       -125.1240  177.0520  407.8570 N.3    34  GLN34      -0.1231
      2  CA      -124.6850  175.8740  407.0780 C.3    34  GLN34       0.1698
      3  C       -124.6640  174.5770  407.8970 C.2    34  GLN34       0.2592
      4  O       -124.8720  173.5070  407.3200 O.2    34  GLN34      -0.2718
      5  CB      -123.3260  176.1040  406.3670 C.3    34  GLN34       0.0381
      6  CG      -122.0700  176.1590  407.2700 C.3    34  GLN34       0.0905
      7  CD      -121.8550  177.4410  408.0410 C.2    34  GLN34       0.2608
      8  OE1     -122.5300  178.4450  407.8460 O.2    34  GLN34      -0.2717
      9  NE2     -120.8790  177.4460  408.9320 N.am   34  GLN34      -0.0878
     10  N       -124.4320  174.6760  409.2500 N.am   35  ASP35      -0.1974
     11  CA      -124.3890  173.5380  410.1680 C.3    35  ASP35       0.1709
     12  C       -125.7490  172.8750  410.3970 C.2    35  ASP35       0.2293
     13  O       -125.7990  171.7440  410.8940 O.2    35  ASP35      -0.2864
     14  CB      -123.7300  173.9200  411.4980 C.3    35  ASP35       0.1436
     15  CG      -122.2230  174.1420  411.4300 C.2    35  ASP35       0.3671
     16  OD1     -121.6120  173.8280  410.3660 O.co2  35  ASP35      -0.2456
     17  OD2     -121.6470  174.6120  412.4440 O.co2  35  ASP35      -0.2456
     18  N       -127.4160  171.6560  408.1030 N.3    37  TYR37      -0.1227
     19  CA      -127.5610  170.7000  406.9920 C.3    37  TYR37       0.1736
     20  C       -126.4970  169.6620  406.8960 C.2    37  TYR37       0.2595
     21  O       -125.3070  169.9730  406.9420 O.2    37  TYR37      -0.2718
     22  CB      -127.6570  171.4570  405.6450 C.3    37  TYR37       0.0548
     23  CG      -128.7260  172.5240  405.6700 C.ar   37  TYR37      -0.0200
     24  CD1     -130.0730  172.1880  405.5650 C.ar   37  TYR37      -0.0009
     25  CD2     -128.3980  173.8620  405.8620 C.ar   37  TYR37      -0.0009
     26  CE1     -131.0730  173.1670  405.6190 C.ar   37  TYR37       0.0417
     27  CE2     -129.3880  174.8500  405.9180 C.ar   37  TYR37       0.0417
     28  CZ      -130.7230  174.4900  405.8030 C.ar   37  TYR37       0.1957
     29  OH      -131.7030  175.4290  405.9180 O.3    37  TYR37      -0.2866
     30  N       -126.9340  168.4340  406.6690 N.am   38  GLN38      -0.1965
     31  CA      -126.0420  167.2980  406.5090 C.3    38  GLN38       0.1733
     32  C       -126.2580  166.7430  405.1180 C.2    38  GLN38       0.2616
     33  O       -127.3650  166.3170  404.8150 O.2    38  GLN38      -0.2715
     34  CB      -126.3740  166.2280  407.5730 C.3    38  GLN38       0.0408
     35  CG      -125.3850  165.0740  407.6770 C.3    38  GLN38       0.0908
     36  CD      -126.0010  163.8860  408.3870 C.2    38  GLN38       0.2608
     37  OE1     -126.1370  162.7960  407.8030 O.2    38  GLN38      -0.2717
     38  NE2     -126.4300  164.0760  409.6430 N.am   38  GLN38      -0.0878
     39  N       -125.2310  166.7660  404.2690 N.am   39  LEU39      -0.1977
     40  CA      -125.3270  166.2390  402.9080 C.3    39  LEU39       0.1596
     41  C       -125.4900  164.7190  402.9600 C.2    39  LEU39       0.2287
     42  O       -124.8180  164.0650  403.7580 O.2    39  LEU39      -0.2864
     43  CB      -124.1080  166.6460  402.0450 C.3    39  LEU39       0.0297
     44  CG      -123.8870  168.1610  401.7930 C.3    39  LEU39       0.0022
     45  CD1     -122.7250  168.3770  400.8630 C.3    39  LEU39       0.0001
     46  CD2     -125.1140  168.8360  401.1370 C.3    39  LEU39       0.0001
     47  N       -129.7150  170.7380  398.3260 N.3    65  VAL65      -0.1245
     48  CA      -128.6610  171.7570  398.4490 C.3    65  VAL65       0.1561
     49  C       -127.9620  171.9420  397.1010 C.2    65  VAL65       0.2260
     50  O       -127.4060  170.9910  396.5860 O.2    65  VAL65      -0.2867
     51  CB      -127.6650  171.4340  399.5940 C.3    65  VAL65       0.0252
     52  CG1     -126.4520  172.3790  399.5660 C.3    65  VAL65       0.0019
     53  CG2     -128.3630  171.4820  400.9560 C.3    65  VAL65       0.0019
     54  N       -124.9490  173.8700  395.3920 N.3    67  ILE67      -0.1245
     55  CA      -123.6730  174.5290  395.6540 C.3    67  ILE67       0.1561
     56  C       -123.2640  175.1990  394.3800 C.2    67  ILE67       0.2260
     57  O       -123.1680  174.5380  393.3630 O.2    67  ILE67      -0.2867
     58  CB      -122.5910  173.5290  396.1530 C.3    67  ILE67       0.0252
     59  CG1     -123.0740  172.7830  397.4110 C.3    67  ILE67       0.0019
     60  CG2     -121.2290  174.2640  396.3640 C.3    67  ILE67       0.0019
     61  CD1     -122.2420  171.5680  397.8580 C.3    67  ILE67       0.0001
     62  N       -126.8790  179.7520  402.4150 N.3    99  VAL99      -0.1231
     63  CA      -125.7530  179.4680  403.3220 C.3    99  VAL99       0.1692
     64  C       -124.4460  179.6090  402.5980 C.2    99  VAL99       0.2592
     65  O       -124.4240  179.6360  401.3540 O.2    99  VAL99      -0.2718
     66  CB      -125.8510  178.0810  404.0010 C.3    99  VAL99       0.0266
     67  CG1     -127.1000  177.9810  404.8800 C.3    99  VAL99       0.0020
     68  CG2     -125.7960  176.9480  402.9650 C.3    99  VAL99       0.0020
     69  N       -123.3720  179.7060  403.3870 N.am  100  LYS100     -0.1966
     70  CA      -122.0180  179.8820  402.8900 C.3   100  LYS100      0.1728
     71  C       -121.0440  178.9880  403.6470 C.2   100  LYS100      0.2616
     72  O       -121.1190  178.8690  404.8690 O.2   100  LYS100     -0.2715
     73  CB      -121.5950  181.3770  402.9420 C.3   100  LYS100      0.0311
     74  CG      -120.2490  181.6840  402.2650 C.3   100  LYS100      0.0038
     75  CD      -120.0400  183.1720  401.9800 C.3   100  LYS100      0.0206
     76  CE      -120.5200  183.6410  400.6140 C.3   100  LYS100      0.1093
     77  NZ      -120.4680  185.1430  400.4600 N.3   100  LYS100     -0.1314
     78  N       -120.1870  178.2870  402.9020 N.am  101  ASP101     -0.1958
     79  CA      -119.1880  177.3930  403.5080 C.3   101  ASP101      0.1825
     80  C       -118.0850  178.2960  404.0810 C.2   101  ASP101      0.2464
     81  O       -117.4690  179.0160  403.2980 O.2   101  ASP101     -0.2730
     82  CB      -118.6220  176.4260  402.4440 C.3   101  ASP101      0.1450
     83  CG      -117.3400  175.6960  402.8490 C.2   101  ASP101      0.3671
     84  OD1     -117.2380  175.2690  404.0050 O.co2 101  ASP101     -0.2456
     85  OD2     -116.4510  175.5790  402.0180 O.co2 101  ASP101     -0.2456
     86  N       -117.8260  178.3080  405.4110 N.am  102  PRO102     -0.2727
     87  CA      -116.7820  179.2180  405.9350 C.3   102  PRO102      0.1402
     88  C       -115.3630  178.8870  405.4720 C.2   102  PRO102      0.2269
     89  O       -114.5340  179.7890  405.4050 O.2   102  PRO102     -0.2865
     90  CB      -116.9530  179.1380  407.4550 C.3   102  PRO102      0.0296
     91  CG      -117.5660  177.7920  407.6910 C.3   102  PRO102      0.0237
     92  CD      -118.4450  177.5200  406.4950 C.3   102  PRO102      0.0939
     93  N       -117.6700  179.4520  399.5040 N.3   106  THR106     -0.1218
     94  CA      -118.5980  179.1390  398.4130 C.3   106  THR106      0.1862
     95  C       -120.0380  179.1610  398.9380 C.2   106  THR106      0.2287
     96  O       -120.2830  178.5960  400.0010 O.2   106  THR106     -0.2866
     97  CB      -118.2290  177.8070  397.7820 C.3   106  THR106      0.1770
     98  OG1     -118.3450  176.7920  398.7750 O.3   106  THR106     -0.2211
     99  CG2     -116.8070  177.7990  397.2700 C.3   106  THR106      0.0375
    100  N       -124.3090  178.4320  398.8290 N.3   108  ALA108     -0.1245
    101  CA      -125.2210  177.3810  398.4040 C.3   108  ALA108      0.1562
    102  C       -126.6630  177.8080  398.6760 C.2   108  ALA108      0.2260
    103  O       -126.9030  178.6130  399.5950 O.2   108  ALA108     -0.2867
    104  CB      -124.9170  176.0660  399.1130 C.3   108  ALA108      0.0290
@<TRIPOS>BOND
     1    57    56    2
     2    56    55    1
     3    54    55    1
     4    55    58    1
     5    58    60    1
     6    58    59    1
     7    50    49    2
     8    49    48    1
     9    99    97    1
    10    59    61    1
    11    97    94    1
    12    97    98    1
    13    47    48    1
    14   101   102    1
    15   101   100    1
    16   101   104    1
    17    94    95    1
    18    94    93    1
    19    48    51    1
    20   102   103    2
    21    95    96    2
    22    52    51    1
    23    51    53    1
    24    77    76    1
    25    76    75    1
    26    45    44    1
    27    46    44    1
    28    65    64    2
    29    44    43    1
    30    75    74    1
    31    85    83   ar
    32    43    40    1
    33    74    73    1
    34    62    63    1
    35    82    83    1
    36    82    79    1
    37    64    63    1
    38    64    69   am
    39    83    84   ar
    40    70    73    1
    41    70    69    1
    42    70    71    1
    43    78    79    1
    44    78    71   am
    45    40    41    1
    46    40    39    1
    47    41    42    2
    48    68    66    1
    49    81    80    2
    50    63    66    1
    51    79    80    1
    52    71    72    2
    53    66    67    1
    54    80    86   am
    55    39    32   am
    56    33    32    2
    57    32    31    1
    58    89    88    2
    59    86    87    1
    60    86    92    1
    61    88    87    1
    62    24    26   ar
    63    24    23   ar
    64    26    28   ar
    65    22    23    1
    66    22    19    1
    67    23    25   ar
    68    28    27   ar
    69    28    29    1
    70    25    27   ar
    71    87    90    1
    72     5     2    1
    73     5     6    1
    74    92    91    1
    75    31    30    1
    76    31    34    1
    77    30    20   am
    78    20    21    2
    79    20    19    1
    80    19    18    1
    81     2     1    1
    82     2     3    1
    83     6     7    1
    84     4     3    2
    85    90    91    1
    86    34    35    1
    87    35    36    1
    88    37    36    2
    89     8     7    2
    90     3    10   am
    91     7     9   am
    92    36    38   am
    93    10    11    1
    94    11    12    1
    95    11    14    1
    96    16    15   ar
    97    12    13    2
    98    15    14    1
    99    15    17   ar
