@<TRIPOS>MOLECULE
tmp/6ehuB02.pdb
 206 195 0 0 0
SMALL
GASTEIGER

@<TRIPOS>ATOM
      1  N       -127.3870  164.4410  393.7710 N.3    43  LEU43      -0.1231
      2  CA      -128.5570  164.2430  392.8970 C.3    43  LEU43       0.1693
      3  C       -128.2390  164.4680  391.4350 C.2    43  LEU43       0.2593
      4  O       -128.8540  163.8530  390.5740 O.2    43  LEU43      -0.2718
      5  CB      -129.7400  165.1230  393.3090 C.3    43  LEU43       0.0284
      6  CG      -130.3660  164.8460  394.6640 C.3    43  LEU43       0.0019
      7  CD1     -131.5230  165.8200  394.9260 C.3    43  LEU43       0.0001
      8  CD2     -130.8930  163.4070  394.7580 C.3    43  LEU43       0.0001
      9  N       -127.3030  165.3670  391.1730 N.am   44  GLY44      -0.1942
     10  CA      -126.8910  165.7310  389.8280 C.3    44  GLY44       0.2014
     11  C       -126.1780  167.0650  389.8180 C.2    44  GLY44       0.2639
     12  O       -125.7400  167.5540  390.8670 O.2    44  GLY44      -0.2714
     13  N       -126.0330  167.6450  388.6240 N.am   45  ARG45      -0.1963
     14  CA      -125.3410  168.9130  388.4470 C.3    45  ARG45       0.1729
     15  C       -126.0560  169.8140  387.4670 C.2    45  ARG45       0.2616
     16  O       -126.7790  169.3360  386.5930 O.2    45  ARG45      -0.2715
     17  CB      -123.9400  168.6870  387.8580 C.3    45  ARG45       0.0348
     18  CG      -123.0270  167.7440  388.6080 C.3    45  ARG45       0.0492
     19  CD      -121.8190  167.3750  387.7580 C.3    45  ARG45       0.2205
     20  NE      -121.0070  166.3460  388.4110 N.pl3  45  ARG45      -0.0865
     21  CZ      -119.8850  165.8330  387.9140 C.cat  45  ARG45       0.5346
     22  NH1     -119.4170  166.2470  386.7410 N.pl3  45  ARG45       0.1354
     23  NH2     -119.2210  164.9010  388.5870 N.pl3  45  ARG45       0.1354
     24  N       -125.7850  171.1090  387.6020 N.am   46  GLY46      -0.1955
     25  CA      -126.1320  172.1630  386.6630 C.3    46  GLY46       0.1869
     26  C       -124.8270  172.4370  385.9300 C.2    46  GLY46       0.2309
     27  O       -123.8380  171.7050  386.1380 O.2    46  GLY46      -0.2863
     28  N       -125.5470  169.5220  392.9060 N.3    51  VAL51      -0.1245
     29  CA      -126.8010  169.4270  393.6640 C.3    51  VAL51       0.1561
     30  C       -126.8380  168.1750  394.5080 C.2    51  VAL51       0.2260
     31  O       -126.5730  167.0910  393.9900 O.2    51  VAL51      -0.2867
     32  CB      -128.0230  169.5600  392.6960 C.3    51  VAL51       0.0252
     33  CG1     -129.3510  169.4560  393.4510 C.3    51  VAL51       0.0019
     34  CG2     -127.9530  170.8640  391.9070 C.3    51  VAL51       0.0019
     35  N       -137.7400  163.1910  392.6470 N.3   116  ASN116     -0.1225
     36  CA      -137.5400  163.0080  391.2100 C.3   116  ASN116      0.1785
     37  C       -137.7010  161.5900  390.6860 C.2   116  ASN116      0.2597
     38  O       -137.0330  160.6730  391.1640 O.2   116  ASN116     -0.2718
     39  CB      -136.1470  163.5020  390.8100 C.3   116  ASN116      0.1169
     40  CG      -136.1020  164.9570  390.4870 C.2   116  ASN116      0.2627
     41  OD1     -136.3190  165.3610  389.3450 O.2   116  ASN116     -0.2716
     42  ND2     -135.8160  165.7720  391.4880 N.am  116  ASN116     -0.0877
     43  N       -138.5140  161.4330  389.6360 N.am  117  THR117     -0.1953
     44  CA      -138.6470  160.1770  388.8990 C.3   117  THR117      0.1897
     45  C       -137.4330  160.1600  387.9390 C.2   117  THR117      0.2313
     46  O       -137.0460  161.2370  387.4660 O.2   117  THR117     -0.2863
     47  CB      -139.9890  160.1380  388.1400 C.3   117  THR117      0.1794
     48  OG1     -141.0760  160.3800  389.0300 O.3   117  THR117     -0.2208
     49  CG2     -140.2040  158.8200  387.4160 C.3   117  THR117      0.0378
     50  N       -135.0090  160.2160  384.8440 N.3   119  PHE119     -0.1241
     51  CA      -135.1320  160.9220  383.5640 C.3   119  PHE119      0.1605
     52  C       -135.3820  159.9910  382.3770 C.2   119  PHE119      0.2264
     53  O       -136.2750  160.2630  381.5630 O.2   119  PHE119     -0.2867
     54  CB      -133.9140  161.8520  383.3130 C.3   119  PHE119      0.0534
     55  CG      -132.6000  161.1700  382.9990 C.ar  119  PHE119     -0.0203
     56  CD1     -131.8050  160.6470  384.0170 C.ar  119  PHE119     -0.0042
     57  CD2     -132.1550  161.0480  381.6850 C.ar  119  PHE119     -0.0042
     58  CE1     -130.5970  159.9970  383.7220 C.ar  119  PHE119     -0.0003
     59  CE2     -130.9450  160.4060  381.3930 C.ar  119  PHE119     -0.0003
     60  CZ      -130.1770  159.8830  382.4130 C.ar  119  PHE119     -0.0000
     61  N       -138.8420  158.4460  382.5390 N.3   122  LEU122     -0.1231
     62  CA      -139.8380  159.4580  382.1600 C.3   122  LEU122      0.1693
     63  C       -139.8940  159.6250  380.6230 C.2   122  LEU122      0.2592
     64  O       -140.9720  159.6140  380.0390 O.2   122  LEU122     -0.2718
     65  CB      -139.5470  160.8250  382.8280 C.3   122  LEU122      0.0284
     66  CG      -139.9150  160.9600  384.3080 C.3   122  LEU122      0.0019
     67  CD1     -139.3400  162.2340  384.9030 C.3   122  LEU122      0.0001
     68  CD2     -141.4220  160.9150  384.5100 C.3   122  LEU122      0.0001
     69  N       -138.7350  159.7100  379.9770 N.am  123  TYR123     -0.1976
     70  CA      -138.6500  159.8680  378.5320 C.3   123  TYR123      0.1639
     71  C       -139.3250  158.7310  377.7900 C.2   123  TYR123      0.2290
     72  O       -140.0600  158.9530  376.8310 O.2   123  TYR123     -0.2864
     73  CB      -137.1790  160.0070  378.1080 C.3   123  TYR123      0.0560
     74  CG      -136.9760  160.2890  376.6320 C.ar  123  TYR123     -0.0198
     75  CD1     -137.2280  161.5490  376.1030 C.ar  123  TYR123     -0.0009
     76  CD2     -136.4750  159.3120  375.7770 C.ar  123  TYR123     -0.0009
     77  CE1     -137.0120  161.8300  374.7560 C.ar  123  TYR123      0.0417
     78  CE2     -136.2390  159.5840  374.4300 C.ar  123  TYR123      0.0417
     79  CZ      -136.5140  160.8450  373.9230 C.ar  123  TYR123      0.1957
     80  OH      -136.2970  161.1220  372.6000 O.3   123  TYR123     -0.2866
     81  N       -143.8240  158.2360  379.3430 N.3   126  LEU126     -0.1245
     82  CA      -144.9270  159.1990  379.4030 C.3   126  LEU126      0.1561
     83  C       -145.8600  158.9790  378.2110 C.2   126  LEU126      0.2260
     84  O       -145.4090  158.7580  377.0780 O.2   126  LEU126     -0.2867
     85  CB      -144.4360  160.6580  379.4860 C.3   126  LEU126      0.0270
     86  CG      -143.7270  161.1320  380.7730 C.3   126  LEU126      0.0019
     87  CD1     -143.5290  162.6270  380.7390 C.3   126  LEU126      0.0001
     88  CD2     -144.4750  160.7200  382.0700 C.3   126  LEU126      0.0001
     89  N       -147.8930  163.8560  378.5020 N.3   131  ILE131     -0.1245
     90  CA      -147.2070  164.9370  377.8060 C.3   131  ILE131      0.1561
     91  C       -148.0740  166.1830  377.8130 C.2   131  ILE131      0.2260
     92  O       -147.5750  167.2360  378.2010 O.2   131  ILE131     -0.2867
     93  CB      -146.7180  164.5610  376.3850 C.3   131  ILE131      0.0252
     94  CG1     -145.6920  163.4040  376.4490 C.3   131  ILE131      0.0019
     95  CG2     -146.0810  165.7840  375.6860 C.3   131  ILE131      0.0019
     96  CD1     -145.3590  162.7830  375.0930 C.3   131  ILE131      0.0001
     97  N       -148.2620  167.4680  381.6600 N.3   134  TYR134     -0.1241
     98  CA      -147.0300  168.0870  382.1590 C.3   134  TYR134      0.1605
     99  C       -146.6660  169.3860  381.4020 C.2   134  TYR134      0.2264
    100  O       -146.1420  170.3320  382.0270 O.2   134  TYR134     -0.2867
    101  CB      -145.8670  167.0960  382.2240 C.3   134  TYR134      0.0534
    102  CG      -146.0310  166.0840  383.3400 C.ar  134  TYR134     -0.0201
    103  CD1     -146.1250  166.4910  384.6710 C.ar  134  TYR134     -0.0009
    104  CD2     -146.0030  164.7220  383.0750 C.ar  134  TYR134     -0.0009
    105  CE1     -146.2930  165.5700  385.6980 C.ar  134  TYR134      0.0417
    106  CE2     -146.1390  163.7850  384.0950 C.ar  134  TYR134      0.0417
    107  CZ      -146.3030  164.2130  385.4050 C.ar  134  TYR134      0.1957
    108  OH      -146.4490  163.3040  386.4150 O.3   134  TYR134     -0.2866
    109  N       -146.0260  173.0820  383.0690 N.3   138  ILE138     -0.1245
    110  CA      -144.9000  173.9810  382.7570 C.3   138  ILE138      0.1561
    111  C       -145.4260  175.3610  382.3590 C.2   138  ILE138      0.2260
    112  O       -144.8950  176.3740  382.7930 O.2   138  ILE138     -0.2867
    113  CB      -143.9500  173.4040  381.6640 C.3   138  ILE138      0.0252
    114  CG1     -143.3000  172.1020  382.1240 C.3   138  ILE138      0.0019
    115  CG2     -142.8350  174.4600  381.3240 C.3   138  ILE138      0.0019
    116  CD1     -142.6050  171.2350  380.9580 C.3   138  ILE138      0.0001
    117  N       -135.5240  170.1250  379.5130 N.3   157  PRO157     -0.2102
    118  CA      -135.9030  169.0170  380.3940 C.3   157  PRO157      0.1504
    119  C       -135.1120  168.9220  381.6900 C.2   157  PRO157      0.2575
    120  O       -135.7030  168.5920  382.7160 O.2   157  PRO157     -0.2718
    121  CB      -135.6760  167.7870  379.5160 C.3   157  PRO157      0.0282
    122  CG      -135.9040  168.2860  378.1300 C.3   157  PRO157      0.0208
    123  CD      -135.2160  169.6170  378.1530 C.3   157  PRO157      0.0893
    124  N       -133.7980  169.2180  381.6550 N.am  158  HIS158     -0.1976
    125  CA      -132.9710  169.1900  382.8720 C.3   158  HIS158      0.1656
    126  C       -133.4600  170.1820  383.9490 C.2   158  HIS158      0.2291
    127  O       -133.2670  169.9350  385.1370 O.2   158  HIS158     -0.2864
    128  CB      -131.5080  169.4630  382.5110 C.3   158  HIS158      0.0771
    129  CG      -130.5680  169.2660  383.6570 C.ar  158  HIS158      0.0820
    130  ND1     -130.1980  168.0010  384.0850 N.ar  158  HIS158     -0.2267
    131  CD2     -129.9750  170.1830  384.4480 C.ar  158  HIS158      0.1154
    132  CE1     -129.4110  168.1930  385.1340 C.ar  158  HIS158      0.1986
    133  NE2     -129.2440  169.4870  385.3830 N.ar  158  HIS158     -0.2212
    134  N       -136.5590  170.8020  384.6240 N.3   160  VAL160     -0.1231
    135  CA      -137.9420  170.4640  384.9560 C.3   160  VAL160      0.1692
    136  C       -137.9060  169.1900  385.7800 C.2   160  VAL160      0.2592
    137  O       -137.5090  168.1680  385.2530 O.2   160  VAL160     -0.2718
    138  CB      -138.8440  170.3390  383.6880 C.3   160  VAL160      0.0266
    139  CG1     -140.2220  169.7770  384.0430 C.3   160  VAL160      0.0020
    140  CG2     -138.9800  171.6820  382.9640 C.3   160  VAL160      0.0020
    141  N       -138.2910  169.2590  387.0660 N.am  161  MET161     -0.1965
    142  CA      -138.3090  168.0970  387.9670 C.3   161  MET161      0.1736
    143  C       -139.7210  167.5800  388.0640 C.2   161  MET161      0.2616
    144  O       -140.6510  168.3590  388.3240 O.2   161  MET161     -0.2715
    145  CB      -137.7650  168.4630  389.3670 C.3   161  MET161      0.0427
    146  CG      -136.2510  168.5800  389.4180 C.3   161  MET161      0.0599
    147  SD      -135.7210  168.9960  391.1110 S.3   161  MET161     -0.1393
    148  CE      -133.9360  168.6480  390.9640 C.3   161  MET161      0.0692
    149  N       -139.8970  166.2790  387.8140 N.am  162  ILE162     -0.1977
    150  CA      -141.1980  165.6120  387.8440 C.3   162  ILE162      0.1596
    151  C       -141.2340  164.4780  388.8660 C.2   162  ILE162      0.2287
    152  O       -140.3680  163.5920  388.8670 O.2   162  ILE162     -0.2864
    153  CB      -141.6800  165.1170  386.4470 C.3   162  ILE162      0.0276
    154  CG1     -141.7410  166.2700  385.4000 C.3   162  ILE162      0.0022
    155  CG2     -143.0250  164.3650  386.5680 C.3   162  ILE162      0.0022
    156  CD1     -141.9990  165.8710  383.8990 C.3   162  ILE162      0.0001
    157  N       -137.1730  174.5350  387.7640 N.3   172  ILE172     -0.1245
    158  CA      -136.0040  174.7990  388.5950 C.3   172  ILE172      0.1561
    159  C       -134.9050  175.5710  387.8790 C.2   172  ILE172      0.2260
    160  O       -135.0660  175.9270  386.6960 O.2   172  ILE172     -0.2867
    161  CB      -135.4600  173.4470  389.1990 C.3   172  ILE172      0.0252
    162  CG1     -134.7150  172.6030  388.1290 C.3   172  ILE172      0.0019
    163  CG2     -136.5640  172.6280  389.8930 C.3   172  ILE172      0.0019
    164  CD1     -133.6490  171.6060  388.6830 C.3   172  ILE172      0.0001
    165  N       -138.5320  171.3010  373.5590 N.3   219  MET219     -0.1245
    166  CA      -138.7930  170.2010  374.4740 C.3   219  MET219      0.1570
    167  C       -139.9140  169.3730  373.9100 C.2   219  MET219      0.2261
    168  O       -139.8220  168.1440  373.9320 O.2   219  MET219     -0.2867
    169  CB      -139.2470  170.6940  375.8790 C.3   219  MET219      0.0387
    170  CG      -138.1810  171.2820  376.7060 C.3   219  MET219      0.0595
    171  SD      -138.7250  171.7160  378.3870 S.3   219  MET219     -0.1393
    172  CE      -139.4490  170.2190  378.9680 C.3   219  MET219      0.0692
    173  N       -139.0150  167.2610  370.8870 N.3   222  SER222     -0.1202
    174  CA      -138.1870  166.1520  371.3490 C.3   222  SER222      0.2020
    175  C       -139.0130  165.0120  371.9670 C.2   222  SER222      0.2618
    176  O       -138.6790  163.8500  371.7520 O.2   222  SER222     -0.2717
    177  CB      -137.1460  166.6480  372.3440 C.3   222  SER222      0.2103
    178  OG      -136.4560  165.5660  372.9440 O.3   222  SER222     -0.2182
    179  N       -140.0830  165.3630  372.6710 N.am  223  MET223     -0.1979
    180  CA      -140.9410  164.3910  373.3260 C.3   223  MET223      0.1605
    181  C       -141.8790  163.6670  372.3680 C.2   223  MET223      0.2287
    182  O       -141.9130  162.4400  372.3410 O.2   223  MET223     -0.2864
    183  CB      -141.7650  165.0700  374.4280 C.3   223  MET223      0.0413
    184  CG      -140.9420  165.7950  375.4830 C.3   223  MET223      0.0598
    185  SD      -141.9230  166.8400  376.5840 S.3   223  MET223     -0.1393
    186  CE      -140.7300  168.1010  377.0080 C.3   223  MET223      0.0692
    187  N       -139.6690  161.7860  369.6880 N.3   226  ARG226     -0.1245
    188  CA      -138.6990  160.8520  370.2570 C.3   226  ARG226      0.1563
    189  C       -137.3230  161.0640  369.6200 C.2   226  ARG226      0.2260
    190  O       -136.6970  160.1330  369.1410 O.2   226  ARG226     -0.2867
    191  CB      -139.2150  159.3860  370.1600 C.3   226  ARG226      0.0307
    192  CG      -140.4070  159.0730  371.0840 C.3   226  ARG226      0.0489
    193  CD      -139.9800  158.2250  372.2730 C.3   226  ARG226      0.2205
    194  NE      -141.0490  158.0050  373.2530 N.pl3 226  ARG226     -0.0865
    195  CZ      -141.9710  157.0460  373.1640 C.cat 226  ARG226      0.5346
    196  NH1     -141.9760  156.2120  372.1290 N.pl3 226  ARG226      0.1354
    197  NH2     -142.8850  156.9040  374.1190 N.pl3 226  ARG226      0.1354
    198  N       -133.9970  163.3530  370.7830 N.3   228  GLU228     -0.1245
    199  CA      -133.4250  164.2000  371.8200 C.3   228  GLU228      0.1567
    200  C       -131.9350  164.5480  371.5780 C.2   228  GLU228      0.2260
    201  O       -131.1240  163.6480  371.6510 O.2   228  GLU228     -0.2867
    202  CB      -133.6480  163.5290  373.1880 C.3   228  GLU228      0.0388
    203  CG      -133.1500  164.3390  374.3800 C.3   228  GLU228      0.1160
    204  CD      -133.1070  163.5890  375.6980 C.2   228  GLU228      0.3649
    205  OE1     -132.2940  162.6430  375.8260 O.co2 228  GLU228     -0.2457
    206  OE2     -133.8110  164.0200  376.6410 O.co2 228  GLU228     -0.2457
@<TRIPOS>BOND
     1   190   189    2
     2   189   188    1
     3   187   188    1
     4   191   188    1
     5   191   192    1
     6   198   199    1
     7   173   174    1
     8   192   193    1
     9   174   175    1
    10   174   177    1
    11   200   201    2
    12   200   199    1
    13   176   175    2
    14   199   202    1
    15   175   179   am
    16   196   195    1
    17   193   194    1
    18   182   181    2
    19   177   178    1
    20   181   180    1
    21    80    79    1
    22   179   180    1
    23   195   194    2
    24   195   197    1
    25   202   203    1
    26   180   183    1
    27   165   166    1
    28   167   168    2
    29   167   166    1
    30    79    78   ar
    31    79    77   ar
    32   203   204    1
    33   183   184    1
    34    78    76   ar
    35   166   169    1
    36    77    75   ar
    37    96    94    1
    38   184   185    1
    39    95    93    1
    40   204   205   ar
    41   204   206   ar
    42    76    74   ar
    43   169   170    1
    44    75    74   ar
    45    93    94    1
    46    93    90    1
    47   185   186    1
    48    74    73    1
    49   170   171    1
    50    72    71    2
    51    84    83    2
    52    71    70    1
    53    90    91    1
    54    90    89    1
    55    91    92    2
    56    73    70    1
    57   122   123    1
    58   122   121    1
    59   123   117    1
    60    83    82    1
    61   171   172    1
    62    70    69    1
    63    81    82    1
    64    82    85    1
    65    85    86    1
    66   117   118    1
    67   121   118    1
    68    69    63   am
    69    64    63    2
    70   118   119    1
    71    63    62    1
    72    87    86    1
    73    86    88    1
    74   116   114    1
    75   115   113    1
    76    59    57   ar
    77    59    60   ar
    78    99   100    2
    79    99    98    1
    80    53    52    2
    81   124   119   am
    82   124   125    1
    83    97    98    1
    84   113   114    1
    85   113   110    1
    86    57    55   ar
    87   119   120    2
    88    98   101    1
    89    62    61    1
    90    62    65    1
    91   101   102    1
    92   111   110    1
    93   111   112    2
    94    52    51    1
    95    60    58   ar
    96   128   125    1
    97   128   129    1
    98   110   109    1
    99    65    66    1
   100   125   126    1
   101   140   138    1
   102    55    54    1
   103    55    56   ar
   104   104   102   ar
   105   104   106   ar
   106    54    51    1
   107   102   103   ar
   108    51    50    1
   109   129   130   ar
   110   129   131   ar
   111   138   139    1
   112   138   135    1
   113    58    56   ar
   114   156   154    1
   115   126   127    2
   116   130   132   ar
   117   106   107   ar
   118    66    68    1
   119    66    67    1
   120   131   133   ar
   121   134   135    1
   122   103   105   ar
   123   135   136    1
   124   132   133   ar
   125   137   136    2
   126   154   153    1
   127   107   105   ar
   128   107   108    1
   129   136   141   am
   130    26    27    2
   131    26    25    1
   132   153   155    1
   133   153   150    1
   134    16    15    2
   135    25    24    1
   136   160   159    2
   137    22    21    1
   138   141   142    1
   139    49    47    1
   140    46    45    2
   141    15    24   am
   142    15    14    1
   143    19    20    1
   144    19    18    1
   145   157   158    1
   146   149   150    1
   147   149   143   am
   148   150   151    1
   149    17    14    1
   150    17    18    1
   151   159   158    1
   152    21    20    2
   153    21    23    1
   154    45    44    1
   155   142   143    1
   156   142   145    1
   157   143   144    2
   158   162   164    1
   159   162   161    1
   160    47    44    1
   161    47    48    1
   162    14    13    1
   163   158   161    1
   164    13    11   am
   165   151   152    2
   166    44    43    1
   167   161   163    1
   168    41    40    2
   169   145   146    1
   170   146   147    1
   171    43    37   am
   172    11    10    1
   173    11    12    2
   174    10     9    1
   175    40    39    1
   176    40    42   am
   177     4     3    2
   178    37    38    2
   179    37    36    1
   180    39    36    1
   181   148   147    1
   182     9     3   am
   183    36    35    1
   184     3     2    1
   185    34    32    1
   186    32    33    1
   187    32    29    1
   188     2     5    1
   189     2     1    1
   190    28    29    1
   191     5     6    1
   192    29    30    1
   193    31    30    2
   194     6     8    1
   195     6     7    1
