@<TRIPOS>MOLECULE
tmp/6ei3A12.pdb
 162 153 0 0 0
SMALL
GASTEIGER

@<TRIPOS>ATOM
      1  N        123.2780   20.9970  172.8110 N.3    36  GLN36      -0.1245
      2  CA       123.0200   20.5310  174.1740 C.3    36  GLN36       0.1566
      3  C        122.7980   21.6840  175.1590 C.2    36  GLN36       0.2260
      4  O        122.2290   21.4640  176.2180 O.2    36  GLN36      -0.2867
      5  CB       124.1000   19.5440  174.6510 C.3    36  GLN36       0.0367
      6  CG       125.5090   20.1020  174.7920 C.3    36  GLN36       0.0905
      7  CD       126.5940   19.0490  174.6680 C.2    36  GLN36       0.2608
      8  OE1      127.7730   19.3770  174.5070 O.2    36  GLN36      -0.2717
      9  NE2      126.2320   17.7660  174.7060 N.am   36  GLN36      -0.0878
     10  N        127.6490   27.6320  171.1920 N.3    46  GLU46      -0.1245
     11  CA       127.6850   26.2470  170.7410 C.3    46  GLU46       0.1567
     12  C        127.5530   26.1360  169.2220 C.2    46  GLU46       0.2260
     13  O        128.3130   25.3820  168.6180 O.2    46  GLU46      -0.2867
     14  CB       126.6360   25.4040  171.4540 C.3    46  GLU46       0.0388
     15  CG       126.8060   23.9070  171.2310 C.3    46  GLU46       0.1160
     16  CD       125.7470   23.0420  171.8790 C.2    46  GLU46       0.3649
     17  OE1      124.8060   23.5940  172.4910 O.co2  46  GLU46      -0.2457
     18  OE2      125.8710   21.8020  171.7940 O.co2  46  GLU46      -0.2457
     19  N        130.7620   27.2870  167.7380 N.3    49  HIS49      -0.1226
     20  CA       131.7810   26.2830  168.0260 C.3    49  HIS49       0.1752
     21  C        131.7940   25.2180  166.9630 C.2    49  HIS49       0.2595
     22  O        132.8570   24.9160  166.4520 O.2    49  HIS49      -0.2718
     23  CB       131.5990   25.6660  169.4220 C.3    49  HIS49       0.0759
     24  CG       132.8760   25.1070  169.9530 C.ar   49  HIS49       0.0818
     25  ND1      133.8070   25.9150  170.6040 N.ar   49  HIS49      -0.2268
     26  CD2      133.3930   23.8650  169.8140 C.ar   49  HIS49       0.1154
     27  CE1      134.8320   25.1250  170.8770 C.ar   49  HIS49       0.1986
     28  NE2      134.6350   23.8880  170.4060 N.ar   49  HIS49      -0.2212
     29  N        130.6070   24.7030  166.5800 N.am   50  ILE50      -0.1980
     30  CA       130.4600   23.6950  165.5370 C.3    50  ILE50       0.1595
     31  C        130.9090   24.2130  164.1470 C.2    50  ILE50       0.2287
     32  O        131.6490   23.5210  163.4420 O.2    50  ILE50      -0.2864
     33  CB       128.9990   23.1480  165.5300 C.3    50  ILE50       0.0276
     34  CG1      128.6760   22.4310  166.8580 C.3    50  ILE50       0.0022
     35  CG2      128.7610   22.2100  164.3250 C.3    50  ILE50       0.0022
     36  CD1      127.1760   22.3400  167.2160 C.3    50  ILE50       0.0001
     37  N        134.6560   24.9240  164.1340 N.3    53  SER53      -0.1202
     38  CA       135.4010   23.6470  164.2200 C.3    53  SER53       0.2020
     39  C        135.3970   22.9750  162.8320 C.2    53  SER53       0.2618
     40  O        136.4150   22.4320  162.4000 O.2    53  SER53      -0.2717
     41  CB       134.7660   22.7030  165.2450 C.3    53  SER53       0.2103
     42  OG       135.0030   23.2180  166.5380 O.3    53  SER53      -0.2182
     43  N        134.2450   23.0100  162.1530 N.am   54  PHE54      -0.1975
     44  CA       134.0660   22.5120  160.7810 C.3    54  PHE54       0.1639
     45  C        135.0430   23.2410  159.8040 C.2    54  PHE54       0.2290
     46  O        135.7300   22.5830  159.0260 O.2    54  PHE54      -0.2864
     47  CB       132.5990   22.7180  160.3340 C.3    54  PHE54       0.0560
     48  CG       132.3450   22.4220  158.8800 C.ar   54  PHE54      -0.0200
     49  CD1      132.2430   21.1070  158.4280 C.ar   54  PHE54      -0.0042
     50  CD2      132.2010   23.4520  157.9600 C.ar   54  PHE54      -0.0042
     51  CE1      132.0050   20.8330  157.0780 C.ar   54  PHE54      -0.0003
     52  CE2      131.9890   23.1790  156.6050 C.ar   54  PHE54      -0.0003
     53  CZ       131.8950   21.8750  156.1730 C.ar   54  PHE54      -0.0000
     54  N        137.7900   24.7580  160.5980 N.3    56  ILE56      -0.1231
     55  CA       139.1300   24.3140  160.9910 C.3    56  ILE56       0.1692
     56  C        139.5060   23.0300  160.2330 C.2    56  ILE56       0.2592
     57  O        140.5660   22.9920  159.6240 O.2    56  ILE56      -0.2718
     58  CB       139.2620   24.1950  162.5270 C.3    56  ILE56       0.0266
     59  CG1      139.5590   25.5900  163.1100 C.3    56  ILE56       0.0019
     60  CG2      140.3690   23.1910  162.9110 C.3    56  ILE56       0.0020
     61  CD1      139.3500   25.7570  164.5580 C.3    56  ILE56       0.0001
     62  N        138.6040   22.0440  160.2110 N.am   57  GLY57      -0.1957
     63  CA       138.8260   20.7860  159.5070 C.3    57  GLY57       0.1869
     64  C        138.9900   20.9750  158.0170 C.2    57  GLY57       0.2309
     65  O        139.8950   20.3970  157.4040 O.2    57  GLY57      -0.2863
     66  N        142.3970   22.5000  157.3850 N.3    60  PHE60      -0.1227
     67  CA       143.5390   21.7510  157.9320 C.3    60  PHE60       0.1736
     68  C        143.8280   20.5010  157.0650 C.2    60  PHE60       0.2595
     69  O        144.9920   20.2380  156.7580 O.2    60  PHE60      -0.2718
     70  CB       143.2950   21.3270  159.3950 C.3    60  PHE60       0.0547
     71  CG       144.3460   20.3600  159.9000 C.ar   60  PHE60      -0.0202
     72  CD1      145.6210   20.8090  160.2470 C.ar   60  PHE60      -0.0042
     73  CD2      144.0950   18.9910  159.9340 C.ar   60  PHE60      -0.0042
     74  CE1      146.6070   19.9090  160.6730 C.ar   60  PHE60      -0.0003
     75  CE2      145.0910   18.0900  160.3480 C.ar   60  PHE60      -0.0003
     76  CZ       146.3370   18.5580  160.7200 C.ar   60  PHE60      -0.0000
     77  N        142.7640   19.7190  156.7000 N.am   61  PHE61      -0.1976
     78  CA       142.8880   18.4700  155.9380 C.3    61  PHE61       0.1639
     79  C        143.5310   18.6330  154.5330 C.2    61  PHE61       0.2290
     80  O        144.1130   17.6390  154.1090 O.2    61  PHE61      -0.2864
     81  CB       141.5820   17.6700  155.8840 C.3    61  PHE61       0.0560
     82  CG       141.2600   17.0500  157.2250 C.ar   61  PHE61      -0.0200
     83  CD1      142.1330   16.1420  157.8180 C.ar   61  PHE61      -0.0042
     84  CD2      140.0830   17.3710  157.8920 C.ar   61  PHE61      -0.0042
     85  CE1      141.8420   15.5780  159.0670 C.ar   61  PHE61      -0.0003
     86  CE2      139.7860   16.8040  159.1440 C.ar   61  PHE61      -0.0003
     87  CZ       140.6680   15.9040  159.7180 C.ar   61  PHE61      -0.0000
     88  N        122.5440   13.8730  167.0330 N.3   100  ARG100     -0.1245
     89  CA       123.7340   14.6730  167.3110 C.3   100  ARG100      0.1563
     90  C        125.0040   13.9360  166.8730 C.2   100  ARG100      0.2260
     91  O        125.8380   14.5120  166.1750 O.2   100  ARG100     -0.2867
     92  CB       123.7620   15.0070  168.8120 C.3   100  ARG100      0.0307
     93  CG       124.7460   16.0730  169.2100 C.3   100  ARG100      0.0489
     94  CD       124.7900   16.2260  170.7150 C.3   100  ARG100      0.2205
     95  NE       125.8750   17.1230  171.1020 N.pl3 100  ARG100     -0.0865
     96  CZ       127.0860   16.7270  171.4750 C.cat 100  ARG100      0.5346
     97  NH1      127.3810   15.4330  171.5340 N.pl3 100  ARG100      0.1354
     98  NH2      128.0080   17.6200  171.8050 N.pl3 100  ARG100      0.1354
     99  N        127.1220   15.0220  163.4530 N.3   104  PHE104     -0.1241
    100  CA       128.4890   15.5210  163.6540 C.3   104  PHE104      0.1605
    101  C        129.5210   14.6580  162.9250 C.2   104  PHE104      0.2264
    102  O        130.5070   15.2000  162.4270 O.2   104  PHE104     -0.2867
    103  CB       128.8470   15.7460  165.1340 C.3   104  PHE104      0.0534
    104  CG       128.0560   16.8290  165.8460 C.ar  104  PHE104     -0.0203
    105  CD1      127.2200   17.6900  165.1400 C.ar  104  PHE104     -0.0042
    106  CD2      128.1570   16.9950  167.2240 C.ar  104  PHE104     -0.0042
    107  CE1      126.4690   18.6680  165.8030 C.ar  104  PHE104     -0.0003
    108  CE2      127.4340   17.9990  167.8820 C.ar  104  PHE104     -0.0003
    109  CZ       126.5820   18.8170  167.1680 C.ar  104  PHE104     -0.0000
    110  N        129.3600   16.0060  159.4390 N.3   107  LEU107     -0.1231
    111  CA       130.1720   17.2330  159.3210 C.3   107  LEU107      0.1693
    112  C        131.6530   16.9280  159.2920 C.2   107  LEU107      0.2592
    113  O        132.3700   17.5880  158.5600 O.2   107  LEU107     -0.2718
    114  CB       129.8970   18.2330  160.4500 C.3   107  LEU107      0.0284
    115  CG       128.5180   18.8680  160.5190 C.3   107  LEU107      0.0019
    116  CD1      128.3870   19.6740  161.7980 C.3   107  LEU107      0.0001
    117  CD2      128.2500   19.7580  159.3240 C.3   107  LEU107      0.0001
    118  N        132.0950   15.9640  160.1140 N.am  108  GLY108     -0.1957
    119  CA       133.4850   15.5130  160.1680 C.3   108  GLY108      0.1869
    120  C        133.9520   14.9350  158.8340 C.2   108  GLY108      0.2309
    121  O        135.0320   15.2650  158.3470 O.2   108  GLY108     -0.2863
    122  N        134.1200   17.7960  156.2560 N.3   111  ALA111     -0.1245
    123  CA       135.3360   18.5820  156.4980 C.3   111  ALA111      0.1562
    124  C        136.5680   17.8650  155.9140 C.2   111  ALA111      0.2260
    125  O        137.3900   18.4780  155.2420 O.2   111  ALA111     -0.2867
    126  CB       135.5260   18.7880  157.9970 C.3   111  ALA111      0.0290
    127  N        139.2650   19.8670  169.3870 N.3   249  VAL249     -0.1245
    128  CA       139.5540   20.7430  168.2330 C.3   249  VAL249      0.1561
    129  C        140.4650   21.9170  168.6390 C.2   249  VAL249      0.2260
    130  O        141.4460   22.1710  167.9420 O.2   249  VAL249     -0.2867
    131  CB       138.2830   21.2000  167.4610 C.3   249  VAL249      0.0252
    132  CG1      138.6380   22.1420  166.2990 C.3   249  VAL249      0.0019
    133  CG2      137.5100   19.9890  166.9380 C.3   249  VAL249      0.0019
    134  N        144.0890   20.4670  169.5200 N.3   252  LEU252     -0.1231
    135  CA       144.8230   20.0720  168.3210 C.3   252  LEU252      0.1693
    136  C        145.3570   21.3080  167.5720 C.2   252  LEU252      0.2592
    137  O        146.4860   21.2700  167.0760 O.2   252  LEU252     -0.2718
    138  CB       143.9470   19.1970  167.3960 C.3   252  LEU252      0.0284
    139  CG       143.6910   17.7380  167.8440 C.3   252  LEU252      0.0019
    140  CD1      142.5810   17.1090  167.0090 C.3   252  LEU252      0.0001
    141  CD2      144.9640   16.8820  167.7480 C.3   252  LEU252      0.0001
    142  N        144.5570   22.4110  167.5440 N.am  253  CYS253     -0.1970
    143  CA       144.9210   23.6850  166.9100 C.3   253  CYS253      0.1712
    144  C        145.9830   24.4380  167.6460 C.2   253  CYS253      0.2296
    145  O        146.8210   25.0380  166.9940 O.2   253  CYS253     -0.2864
    146  CB       143.7000   24.5620  166.6950 C.3   253  CYS253      0.0983
    147  SG       142.6410   23.9960  165.3630 S.3   253  CYS253     -0.0798
    148  N        149.1210   22.7940  166.9060 N.3   256  LEU256     -0.1245
    149  CA       149.5470   23.1910  165.5570 C.3   256  LEU256      0.1561
    150  C        150.2710   24.5450  165.5790 C.2   256  LEU256      0.2260
    151  O        151.3740   24.6360  165.0450 O.2   256  LEU256     -0.2867
    152  CB       148.3760   23.1740  164.5590 C.3   256  LEU256      0.0270
    153  CG       148.6050   23.7780  163.1440 C.3   256  LEU256      0.0019
    154  CD1      149.5150   22.8860  162.2690 C.3   256  LEU256      0.0001
    155  CD2      147.2690   24.0470  162.4500 C.3   256  LEU256      0.0001
    156  N        142.6640   28.2110  159.1090 N.3   442  THR442     -0.1218
    157  CA       142.5250   27.3020  160.2630 C.3   442  THR442      0.1862
    158  C        142.7850   28.1040  161.5440 C.2   442  THR442      0.2287
    159  O        141.9430   28.0900  162.4420 O.2   442  THR442     -0.2866
    160  CB       143.4840   26.0790  160.1530 C.3   442  THR442      0.1770
    161  OG1      143.0370   25.2240  159.1080 O.3   442  THR442     -0.2211
    162  CG2      143.5570   25.2440  161.4420 C.3   442  THR442      0.0375
@<TRIPOS>BOND
     1    80    79    2
     2    79    78    1
     3   125   124    2
     4    81    78    1
     5    81    82    1
     6   124   123    1
     7    78    77    1
     8    53    52   ar
     9    53    51   ar
    10   122   123    1
    11   123   126    1
    12    52    50   ar
    13    77    68   am
    14    69    68    2
    15    68    67    1
    16    51    49   ar
    17    82    83   ar
    18    82    84   ar
    19    66    67    1
    20    65    64    2
    21    83    85   ar
    22    84    86   ar
    23    67    70    1
    24    50    48   ar
    25    64    63    1
    26   121   120    2
    27    49    48   ar
    28   113   112    2
    29   120   119    1
    30    48    47    1
    31    46    45    2
    32    85    87   ar
    33   161   160    1
    34   156   157    1
    35    86    87   ar
    36   112   111    1
    37   112   118   am
    38   111   110    1
    39   111   114    1
    40   117   115    1
    41    70    71    1
    42    63    62    1
    43    57    56    2
    44    45    44    1
    45    71    73   ar
    46    71    72   ar
    47    73    75   ar
    48   118   119    1
    49   160   157    1
    50   160   162    1
    51    62    56   am
    52    56    55    1
    53    72    74   ar
    54   157   158    1
    55    47    44    1
    56    75    76   ar
    57   114   115    1
    58   115   116    1
    59    54    55    1
    60    74    76   ar
    61    44    43    1
    62    55    58    1
    63   158   159    2
    64    43    39   am
    65   154   153    1
    66    40    39    2
    67   102   101    2
    68   155   153    1
    69    58    60    1
    70    58    59    1
    71    39    38    1
    72   101   100    1
    73    59    61    1
    74   153   152    1
    75    32    31    2
    76    99   100    1
    77   100   103    1
    78    37    38    1
    79    31    30    1
    80    38    41    1
    81    35    33    1
    82   152   149    1
    83   151   150    2
    84   103   104    1
    85   105   107   ar
    86   105   104   ar
    87    41    42    1
    88   147   146    1
    89    33    30    1
    90    33    34    1
    91    30    29    1
    92   149   150    1
    93   149   148    1
    94   107   109   ar
    95   104   106   ar
    96    91    90    2
    97   132   131    1
    98    22    21    2
    99    29    21   am
   100   146   143    1
   101    34    36    1
   102    90    89    1
   103   143   142    1
   104   143   144    1
   105   133   131    1
   106    21    20    1
   107   145   144    2
   108   140   139    1
   109    88    89    1
   110   137   136    2
   111   109   108   ar
   112   106   108   ar
   113    89    92    1
   114   138   139    1
   115   138   135    1
   116   131   128    1
   117   142   136   am
   118   136   135    1
   119    19    20    1
   120   141   139    1
   121   130   129    2
   122    20    23    1
   123   128   129    1
   124   128   127    1
   125   135   134    1
   126    13    12    2
   127    92    93    1
   128    93    94    1
   129    12    11    1
   130    23    24    1
   131    26    24   ar
   132    26    28   ar
   133    24    25   ar
   134    28    27   ar
   135    25    27   ar
   136    94    95    1
   137    11    10    1
   138    11    14    1
   139    95    96    2
   140    15    14    1
   141    15    16    1
   142    96    97    1
   143    96    98    1
   144    18    16   ar
   145    16    17   ar
   146     1     2    1
   147     2     5    1
   148     2     3    1
   149     8     7    2
   150     5     6    1
   151     7     9   am
   152     7     6    1
   153     3     4    2
