@<TRIPOS>MOLECULE
tmp/6ei3A03.pdb
 152 146 0 0 0
SMALL
GASTEIGER

@<TRIPOS>ATOM
      1  N        149.6920   25.5600  166.2560 N.3   257  VAL257     -0.1245
      2  CA       150.2800   26.9030  166.4010 C.3   257  VAL257      0.1561
      3  C        151.6430   26.8390  167.1010 C.2   257  VAL257      0.2260
      4  O        152.5830   27.5270  166.6840 O.2   257  VAL257     -0.2867
      5  CB       149.2990   27.8800  167.0960 C.3   257  VAL257      0.0252
      6  CG1      149.9790   29.2020  167.4710 C.3   257  VAL257      0.0019
      7  CG2      148.0690   28.1230  166.2170 C.3   257  VAL257      0.0019
      8  N        154.1920   25.3040  164.6780 N.3   260  LEU260     -0.1231
      9  CA       154.5630   26.2620  163.6340 C.3   260  LEU260      0.1693
     10  C        155.5540   27.3070  164.1630 C.2   260  LEU260      0.2591
     11  O        156.5450   27.5980  163.5000 O.2   260  LEU260     -0.2718
     12  CB       153.3130   26.9460  163.0220 C.3   260  LEU260      0.0284
     13  CG       152.4020   26.0600  162.1500 C.3   260  LEU260      0.0019
     14  CD1      151.0510   26.7280  161.9080 C.3   260  LEU260      0.0001
     15  CD2      153.0710   25.6920  160.8150 C.3   260  LEU260      0.0001
     16  N        155.2950   27.8500  165.3590 N.am  261  ALA261     -0.1980
     17  CA       156.1520   28.8630  165.9600 C.3   261  ALA261      0.1597
     18  C        157.5300   28.3240  166.3710 C.2   261  ALA261      0.2287
     19  O        158.5450   28.9490  166.0510 O.2   261  ALA261     -0.2864
     20  CB       155.4500   29.5120  167.1450 C.3   261  ALA261      0.0319
     21  N        159.3750   26.6440  163.1070 N.3   264  GLY264     -0.1210
     22  CA       159.6250   27.8050  162.2510 C.3   264  GLY264      0.1956
     23  C        160.7050   28.7240  162.8050 C.2   264  GLY264      0.2612
     24  O        161.7110   28.9860  162.1310 O.2   264  GLY264     -0.2717
     25  N        160.5160   29.1610  164.0520 N.am  265  GLY265     -0.1956
     26  CA       161.4360   30.0350  164.7690 C.3   265  GLY265      0.1869
     27  C        162.7790   29.3820  165.0390 C.2   265  GLY265      0.2309
     28  O        163.8120   30.0590  165.0620 O.2   265  GLY265     -0.2863
     29  N        164.6320   29.3860  161.7120 N.3   268  TRP268     -0.1241
     30  CA       165.1030   30.7610  161.5090 C.3   268  TRP268      0.1605
     31  C        166.4450   30.9870  162.2250 C.2   268  TRP268      0.2264
     32  O        167.3230   31.6540  161.6790 O.2   268  TRP268     -0.2867
     33  CB       164.0480   31.7810  161.9960 C.3   268  TRP268      0.0550
     34  CG       164.4640   33.2110  161.7960 C.ar  268  TRP268      0.0003
     35  CD1      165.0800   34.0220  162.7040 C.ar  268  TRP268      0.0946
     36  CD2      164.3560   33.9730  160.5850 C.ar  268  TRP268      0.0152
     37  NE1      165.3610   35.2420  162.1350 N.ar  268  TRP268     -0.2442
     38  CE2      164.9160   35.2450  160.8380 C.ar  268  TRP268      0.0810
     39  CE3      163.8120   33.7140  159.3150 C.ar  268  TRP268      0.0012
     40  CZ2      164.9580   36.2530  159.8660 C.ar  268  TRP268      0.0191
     41  CZ3      163.8340   34.7220  158.3600 C.ar  268  TRP268      0.0001
     42  CH2      164.4320   35.9620  158.6280 C.ar  268  TRP268      0.0015
     43  N        159.8410   31.7020  155.4790 N.3   290  LEU290     -0.1231
     44  CA       159.6550   32.0040  156.9020 C.3   290  LEU290      0.1693
     45  C        159.1820   33.4370  157.1440 C.2   290  LEU290      0.2591
     46  O        158.3750   33.6690  158.0430 O.2   290  LEU290     -0.2718
     47  CB       160.8820   31.6680  157.7410 C.3   290  LEU290      0.0284
     48  CG       161.2500   30.1880  157.8210 C.3   290  LEU290      0.0019
     49  CD1      162.6220   30.0120  158.4520 C.3   290  LEU290      0.0001
     50  CD2      160.1530   29.3540  158.5580 C.3   290  LEU290      0.0001
     51  N        159.6440   34.3850  156.3210 N.am  291  ARG291     -0.1980
     52  CA       159.1790   35.7710  156.3810 C.3   291  ARG291      0.1597
     53  C        157.7010   35.8280  155.9960 C.2   291  ARG291      0.2287
     54  O        156.9420   36.5640  156.6170 O.2   291  ARG291     -0.2864
     55  CB       160.0100   36.6640  155.4570 C.3   291  ARG291      0.0334
     56  CG       161.4030   36.9220  155.9830 C.3   291  ARG291      0.0492
     57  CD       162.0200   38.0640  155.2150 C.3   291  ARG291      0.2205
     58  NE       163.4710   38.1180  155.3730 N.pl3 291  ARG291     -0.0865
     59  CZ       164.3350   37.6430  154.4850 C.cat 291  ARG291      0.5346
     60  NH1      163.9020   37.0630  153.3690 N.pl3 291  ARG291      0.1354
     61  NH2      165.6390   37.7520  154.6980 N.pl3 291  ARG291      0.1354
     62  N        155.5290   33.3010  156.3980 N.3   293  LEU293     -0.1231
     63  CA       154.8360   32.6820  157.5230 C.3   293  LEU293      0.1693
     64  C        154.4820   33.7390  158.5830 C.2   293  LEU293      0.2591
     65  O        153.3830   33.6760  159.1410 O.2   293  LEU293     -0.2718
     66  CB       155.6610   31.5060  158.1180 C.3   293  LEU293      0.0284
     67  CG       155.0820   30.7670  159.3580 C.3   293  LEU293      0.0019
     68  CD1      153.7630   30.0550  159.0490 C.3   293  LEU293      0.0001
     69  CD2      156.0880   29.7680  159.9230 C.3   293  LEU293      0.0001
     70  N        155.3800   34.7340  158.8150 N.am  294  VAL294     -0.1980
     71  CA       155.1140   35.8330  159.7520 C.3   294  VAL294      0.1595
     72  C        153.9750   36.7230  159.2150 C.2   294  VAL294      0.2287
     73  O        153.0350   37.0100  159.9600 O.2   294  VAL294     -0.2864
     74  CB       156.3770   36.6380  160.1460 C.3   294  VAL294      0.0276
     75  CG1      156.0200   37.7980  161.0770 C.3   294  VAL294      0.0022
     76  CG2      157.3960   35.7270  160.8210 C.3   294  VAL294      0.0022
     77  N        150.7700   34.8030  159.5910 N.3   297  ALA297     -0.1231
     78  CA       150.3700   34.7420  161.0120 C.3   297  ALA297      0.1694
     79  C        149.6090   36.0130  161.4290 C.2   297  ALA297      0.2591
     80  O        148.6110   35.9530  162.1550 O.2   297  ALA297     -0.2718
     81  CB       151.6060   34.5480  161.9000 C.3   297  ALA297      0.0304
     82  N        150.0810   37.1580  160.9380 N.am  298  LEU298     -0.1980
     83  CA       149.5220   38.4790  161.2200 C.3   298  LEU298      0.1596
     84  C        148.2190   38.7600  160.4950 C.2   298  LEU298      0.2287
     85  O        147.5120   39.6990  160.8580 O.2   298  LEU298     -0.2864
     86  CB       150.5830   39.5550  160.9270 C.3   298  LEU298      0.0297
     87  CG       151.7540   39.5700  161.9000 C.3   298  LEU298      0.0022
     88  CD1      152.8800   40.4740  161.4010 C.3   298  LEU298      0.0001
     89  CD2      151.3040   39.9960  163.2960 C.3   298  LEU298      0.0001
     90  N        145.9490   36.1250  160.1630 N.3   300  THR300     -0.1204
     91  CA       144.9580   35.2130  160.7990 C.3   300  THR300      0.1979
     92  C        143.7560   35.9690  161.4460 C.2   300  THR300      0.2459
     93  O        142.6480   35.4910  161.2560 O.2   300  THR300     -0.2732
     94  CB       145.6070   34.2100  161.7830 C.3   300  THR300      0.1783
     95  OG1      146.2440   34.9180  162.8550 O.3   300  THR300     -0.2211
     96  CG2      146.5920   33.2840  161.1100 C.3   300  THR300      0.0376
     97  N        143.8950   37.1630  162.1110 N.am  301  PRO301     -0.2728
     98  CA       142.6980   37.8450  162.6570 C.3   301  PRO301      0.1401
     99  C        141.7240   38.2760  161.5700 C.2   301  PRO301      0.2269
    100  O        140.5340   38.3580  161.8480 O.2   301  PRO301     -0.2865
    101  CB       143.2960   39.0530  163.3730 C.3   301  PRO301      0.0296
    102  CG       144.6830   38.5740  163.7720 C.3   301  PRO301      0.0237
    103  CD       145.1130   37.9050  162.5070 C.3   301  PRO301      0.0939
    104  N        143.9340   28.8310  161.6040 N.3   443  VAL443     -0.1245
    105  CA       144.3440   29.5890  162.8010 C.3   443  VAL443      0.1561
    106  C        143.3650   30.7630  163.0880 C.2   443  VAL443      0.2260
    107  O        142.9870   30.9320  164.2450 O.2   443  VAL443     -0.2867
    108  CB       145.8420   29.9910  162.7770 C.3   443  VAL443      0.0252
    109  CG1      146.2370   30.8140  164.0070 C.3   443  VAL443      0.0019
    110  CG2      146.7270   28.7460  162.6880 C.3   443  VAL443      0.0019
    111  N        141.0540   31.3980  166.6890 N.3   447  TRP447     -0.1241
    112  CA       140.8580   32.5870  167.5310 C.3   447  TRP447      0.1605
    113  C        139.3810   32.7900  167.8970 C.2   447  TRP447      0.2264
    114  O        139.1000   33.3060  168.9730 O.2   447  TRP447     -0.2867
    115  CB       141.4590   33.8710  166.9150 C.3   447  TRP447      0.0550
    116  CG       142.9040   33.8030  166.4840 C.ar  447  TRP447      0.0003
    117  CD1      143.4350   34.3500  165.3560 C.ar  447  TRP447      0.0946
    118  CD2      143.9910   33.1530  167.1670 C.ar  447  TRP447      0.0152
    119  NE1      144.7860   34.1050  165.2990 N.ar  447  TRP447     -0.2442
    120  CE2      145.1560   33.3740  166.3990 C.ar  447  TRP447      0.0810
    121  CE3      144.1030   32.4330  168.3720 C.ar  447  TRP447      0.0012
    122  CZ2      146.4120   32.8910  166.7850 C.ar  447  TRP447      0.0191
    123  CZ3      145.3440   31.9400  168.7470 C.ar  447  TRP447      0.0001
    124  CH2      146.4780   32.1500  167.9450 C.ar  447  TRP447      0.0015
    125  N        140.6710   43.6580  167.8940 N.3   482  PHE482     -0.1241
    126  CA       141.6180   42.5990  167.5430 C.3   482  PHE482      0.1605
    127  C        142.1270   42.8060  166.1030 C.2   482  PHE482      0.2264
    128  O        143.3290   42.6980  165.8750 O.2   482  PHE482     -0.2867
    129  CB       140.9570   41.2120  167.7290 C.3   482  PHE482      0.0534
    130  CG       141.7750   39.9670  167.4420 C.ar  482  PHE482     -0.0203
    131  CD1      143.1150   39.8860  167.8190 C.ar  482  PHE482     -0.0042
    132  CD2      141.1930   38.8580  166.8310 C.ar  482  PHE482     -0.0042
    133  CE1      143.8580   38.7220  167.5860 C.ar  482  PHE482     -0.0003
    134  CE2      141.9320   37.6860  166.6110 C.ar  482  PHE482     -0.0003
    135  CZ       143.2580   37.6250  166.9910 C.ar  482  PHE482     -0.0000
    136  N        145.8480   43.9570  164.9160 N.3   486  ALA486     -0.1245
    137  CA       146.4870   43.1180  163.9000 C.3   486  ALA486      0.1562
    138  C        146.9610   43.9830  162.7580 C.2   486  ALA486      0.2260
    139  O        148.0810   43.7870  162.3100 O.2   486  ALA486     -0.2867
    140  CB       145.5180   42.0710  163.3840 C.3   486  ALA486      0.0290
    141  N        155.4600   45.4140  160.8210 N.3   493  TYR493     -0.1241
    142  CA       156.2660   44.3440  160.2300 C.3   493  TYR493      0.1605
    143  C        156.5200   44.6510  158.7270 C.2   493  TYR493      0.2264
    144  O        157.6580   44.5620  158.2700 O.2   493  TYR493     -0.2867
    145  CB       155.5980   42.9620  160.4090 C.3   493  TYR493      0.0534
    146  CG       156.4680   41.8400  159.8830 C.ar  493  TYR493     -0.0201
    147  CD1      157.5330   41.3430  160.6360 C.ar  493  TYR493     -0.0009
    148  CD2      156.3050   41.3550  158.5870 C.ar  493  TYR493     -0.0009
    149  CE1      158.3780   40.3540  160.1290 C.ar  493  TYR493      0.0417
    150  CE2      157.1460   40.3720  158.0690 C.ar  493  TYR493      0.0417
    151  CZ       158.1630   39.8560  158.8520 C.ar  493  TYR493      0.1957
    152  OH       158.9730   38.8800  158.3280 O.3   493  TYR493     -0.2866
@<TRIPOS>BOND
     1    60    59    1
     2    59    61    1
     3    59    58    2
     4    57    58    1
     5    57    56    1
     6    55    56    1
     7    55    52    1
     8    43    44    1
     9    53    52    1
    10    53    54    2
    11    51    52    1
    12    51    45   am
    13    62    63    1
    14    44    45    1
    15    44    47    1
    16    45    46    2
    17    63    66    1
    18    63    64    1
    19    47    48    1
    20    48    49    1
    21    48    50    1
    22   150   148   ar
    23   150   151   ar
    24    66    67    1
    25   144   143    2
    26   152   151    1
    27    41    42   ar
    28    41    39   ar
    29    64    70   am
    30    64    65    2
    31   148   146   ar
    32    42    40   ar
    33   143   142    1
    34    70    71    1
    35   151   149   ar
    36    68    67    1
    37    72    71    1
    38    72    73    2
    39    39    36   ar
    40    67    69    1
    41    77    78    1
    42    71    74    1
    43    40    38   ar
    44   146   145    1
    45   146   147   ar
    46   149   147   ar
    47    74    76    1
    48    74    75    1
    49    90    91    1
    50   142   145    1
    51   142   141    1
    52    84    85    2
    53    84    83    1
    54    36    38   ar
    55    36    34   ar
    56    91    92    1
    57    91    94    1
    58    15    13    1
    59    38    37   ar
    60    86    83    1
    61    86    87    1
    62    82    83    1
    63    82    79   am
    64    78    79    1
    65    78    81    1
    66    96    94    1
    67    93    92    2
    68    88    87    1
    69    79    80    2
    70    92    97   am
    71    30    29    1
    72    30    33    1
    73    30    31    1
    74    99   100    2
    75    99    98    1
    76   104   105    1
    77    32    31    2
    78    94    95    1
    79    34    33    1
    80    34    35   ar
    81    87    89    1
    82    14    13    1
    83    97   103    1
    84    97    98    1
    85    24    23    2
    86    37    35   ar
    87    13    12    1
    88    22    23    1
    89    22    21    1
    90   139   138    2
    91   103   102    1
    92    98   101    1
    93   110   108    1
    94   138   137    1
    95   108   105    1
    96   108   109    1
    97   105   106    1
    98    23    25   am
    99    12     9    1
   100   106   107    2
   101   101   102    1
   102   140   137    1
   103    11    10    2
   104     9    10    1
   105     9     8    1
   106   137   136    1
   107    25    26    1
   108    10    16   am
   109    26    27    1
   110    27    28    2
   111   119   117   ar
   112   119   120   ar
   113   117   116   ar
   114    16    17    1
   115   128   127    2
   116    17    18    1
   117    17    20    1
   118    19    18    2
   119   127   126    1
   120     7     5    1
   121     1     2    1
   122   120   122   ar
   123   120   118   ar
   124     2     5    1
   125     2     3    1
   126   116   115    1
   127   116   118   ar
   128   134   132   ar
   129   134   135   ar
   130     4     3    2
   131   111   112    1
   132   122   124   ar
   133   132   130   ar
   134   115   112    1
   135   135   133   ar
   136     5     6    1
   137   118   121   ar
   138   130   129    1
   139   130   131   ar
   140   112   113    1
   141   126   129    1
   142   126   125    1
   143   133   131   ar
   144   113   114    2
   145   124   123   ar
   146   121   123   ar
