@<TRIPOS>MOLECULE
tmp/6ei3A13.pdb
 119 115 0 0 0
SMALL
GASTEIGER

@<TRIPOS>ATOM
      1  N        123.2780   20.9970  172.8110 N.3    36  GLN36      -0.1245
      2  CA       123.0200   20.5310  174.1740 C.3    36  GLN36       0.1566
      3  C        122.7980   21.6840  175.1590 C.2    36  GLN36       0.2260
      4  O        122.2290   21.4640  176.2180 O.2    36  GLN36      -0.2867
      5  CB       124.1000   19.5440  174.6510 C.3    36  GLN36       0.0367
      6  CG       125.5090   20.1020  174.7920 C.3    36  GLN36       0.0905
      7  CD       126.5940   19.0490  174.6680 C.2    36  GLN36       0.2608
      8  OE1      127.7730   19.3770  174.5070 O.2    36  GLN36      -0.2717
      9  NE2      126.2320   17.7660  174.7060 N.am   36  GLN36      -0.0878
     10  N        130.7620   27.2870  167.7380 N.3    49  HIS49      -0.1241
     11  CA       131.7810   26.2830  168.0260 C.3    49  HIS49       0.1621
     12  C        131.7940   25.2180  166.9630 C.2    49  HIS49       0.2264
     13  O        132.8570   24.9160  166.4520 O.2    49  HIS49      -0.2867
     14  CB       131.5990   25.6660  169.4220 C.3    49  HIS49       0.0745
     15  CG       132.8760   25.1070  169.9530 C.ar   49  HIS49       0.0817
     16  ND1      133.8070   25.9150  170.6040 N.ar   49  HIS49      -0.2268
     17  CD2      133.3930   23.8650  169.8140 C.ar   49  HIS49       0.1154
     18  CE1      134.8320   25.1250  170.8770 C.ar   49  HIS49       0.1986
     19  NE2      134.6350   23.8880  170.4060 N.ar   49  HIS49      -0.2212
     20  N        142.3970   22.5000  157.3850 N.3    60  PHE60      -0.1227
     21  CA       143.5390   21.7510  157.9320 C.3    60  PHE60       0.1736
     22  C        143.8280   20.5010  157.0650 C.2    60  PHE60       0.2595
     23  O        144.9920   20.2380  156.7580 O.2    60  PHE60      -0.2718
     24  CB       143.2950   21.3270  159.3950 C.3    60  PHE60       0.0547
     25  CG       144.3460   20.3600  159.9000 C.ar   60  PHE60      -0.0202
     26  CD1      145.6210   20.8090  160.2470 C.ar   60  PHE60      -0.0042
     27  CD2      144.0950   18.9910  159.9340 C.ar   60  PHE60      -0.0042
     28  CE1      146.6070   19.9090  160.6730 C.ar   60  PHE60      -0.0003
     29  CE2      145.0910   18.0900  160.3480 C.ar   60  PHE60      -0.0003
     30  CZ       146.3370   18.5580  160.7200 C.ar   60  PHE60      -0.0000
     31  N        142.7640   19.7190  156.7000 N.am   61  PHE61      -0.1976
     32  CA       142.8880   18.4700  155.9380 C.3    61  PHE61       0.1639
     33  C        143.5310   18.6330  154.5330 C.2    61  PHE61       0.2290
     34  O        144.1130   17.6390  154.1090 O.2    61  PHE61      -0.2864
     35  CB       141.5820   17.6700  155.8840 C.3    61  PHE61       0.0560
     36  CG       141.2600   17.0500  157.2250 C.ar   61  PHE61      -0.0200
     37  CD1      142.1330   16.1420  157.8180 C.ar   61  PHE61      -0.0042
     38  CD2      140.0830   17.3710  157.8920 C.ar   61  PHE61      -0.0042
     39  CE1      141.8420   15.5780  159.0670 C.ar   61  PHE61      -0.0003
     40  CE2      139.7860   16.8040  159.1440 C.ar   61  PHE61      -0.0003
     41  CZ       140.6680   15.9040  159.7180 C.ar   61  PHE61      -0.0000
     42  N        122.5440   13.8730  167.0330 N.3   100  ARG100     -0.1245
     43  CA       123.7340   14.6730  167.3110 C.3   100  ARG100      0.1563
     44  C        125.0040   13.9360  166.8730 C.2   100  ARG100      0.2260
     45  O        125.8380   14.5120  166.1750 O.2   100  ARG100     -0.2867
     46  CB       123.7620   15.0070  168.8120 C.3   100  ARG100      0.0307
     47  CG       124.7460   16.0730  169.2100 C.3   100  ARG100      0.0489
     48  CD       124.7900   16.2260  170.7150 C.3   100  ARG100      0.2205
     49  NE       125.8750   17.1230  171.1020 N.pl3 100  ARG100     -0.0865
     50  CZ       127.0860   16.7270  171.4750 C.cat 100  ARG100      0.5346
     51  NH1      127.3810   15.4330  171.5340 N.pl3 100  ARG100      0.1354
     52  NH2      128.0080   17.6200  171.8050 N.pl3 100  ARG100      0.1354
     53  N        141.9430   18.7470  176.8840 N.3   243  THR243     -0.1203
     54  CA       140.7360   18.3210  176.1640 C.3   243  THR243      0.1994
     55  C        139.4590   18.5340  177.0030 C.2   243  THR243      0.2618
     56  O        138.4440   18.9740  176.4600 O.2   243  THR243     -0.2717
     57  CB       140.9150   16.8800  175.6300 C.3   243  THR243      0.1784
     58  OG1      142.0290   16.8710  174.7290 O.3   243  THR243     -0.2211
     59  CG2      139.6930   16.3610  174.8740 C.3   243  THR243      0.0376
     60  N        139.5370   18.2800  178.3200 N.am  244  GLU244     -0.1965
     61  CA       138.4390   18.4330  179.2770 C.3   244  GLU244      0.1733
     62  C        137.8790   19.8570  179.3430 C.2   244  GLU244      0.2616
     63  O        136.6610   20.0270  179.3310 O.2   244  GLU244     -0.2715
     64  CB       138.8980   18.0160  180.6870 C.3   244  GLU244      0.0429
     65  CG       138.9730   16.5230  180.9240 C.3   244  GLU244      0.1163
     66  CD       139.3810   16.1880  182.3460 C.2   244  GLU244      0.3649
     67  OE1      140.6020   16.1760  182.6270 O.co2 244  GLU244     -0.2457
     68  OE2      138.4790   15.9880  183.1900 O.co2 244  GLU244     -0.2457
     69  N        138.7600   20.8680  179.4420 N.am  245  GLN245     -0.1963
     70  CA       138.3570   22.2680  179.5890 C.3   245  GLN245      0.1733
     71  C        138.2550   23.0660  178.2810 C.2   245  GLN245      0.2616
     72  O        137.5860   24.1040  178.2760 O.2   245  GLN245     -0.2715
     73  CB       139.2560   23.0130  180.5950 C.3   245  GLN245      0.0408
     74  CG       140.7600   22.7920  180.4240 C.3   245  GLN245      0.0908
     75  CD       141.2700   21.7550  181.3920 C.2   245  GLN245      0.2608
     76  OE1      141.1380   20.5430  181.1770 O.2   245  GLN245     -0.2717
     77  NE2      141.8690   22.2110  182.4800 N.am  245  GLN245     -0.0878
     78  N        138.9000   22.6060  177.1880 N.am  246  LEU246     -0.1963
     79  CA       138.8680   23.3350  175.9120 C.3   246  LEU246      0.1728
     80  C        138.2440   22.5700  174.7370 C.2   246  LEU246      0.2617
     81  O        137.8240   23.1970  173.7720 O.2   246  LEU246     -0.2715
     82  CB       140.2800   23.8290  175.5240 C.3   246  LEU246      0.0311
     83  CG       140.9360   24.8870  176.4230 C.3   246  LEU246      0.0022
     84  CD1      142.4100   25.0520  176.0870 C.3   246  LEU246      0.0001
     85  CD2      140.2410   26.2290  176.3050 C.3   246  LEU246      0.0001
     86  N        138.2120   21.2430  174.8080 N.am  247  GLY247     -0.1940
     87  CA       137.7250   20.4060  173.7130 C.3   247  GLY247      0.2014
     88  C        138.8790   20.0330  172.8020 C.2   247  GLY247      0.2639
     89  O        139.8640   20.7790  172.7160 O.2   247  GLY247     -0.2714
     90  N        138.7820   18.8700  172.1340 N.am  248  LEU248     -0.1963
     91  CA       139.8290   18.3290  171.2570 C.3   248  LEU248      0.1728
     92  C        140.2420   19.2540  170.0940 C.2   248  LEU248      0.2616
     93  O        141.4460   19.3950  169.8480 O.2   248  LEU248     -0.2715
     94  CB       139.4380   16.9320  170.7240 C.3   248  LEU248      0.0311
     95  CG       140.5130   16.1200  169.9620 C.3   248  LEU248      0.0022
     96  CD1      141.7860   15.8950  170.7990 C.3   248  LEU248      0.0001
     97  CD2      139.9620   14.7890  169.5040 C.3   248  LEU248      0.0001
     98  N        139.2650   19.8670  169.3870 N.am  249  VAL249     -0.1977
     99  CA       139.5540   20.7430  168.2330 C.3   249  VAL249      0.1596
    100  C        140.4650   21.9170  168.6390 C.2   249  VAL249      0.2287
    101  O        141.4460   22.1710  167.9420 O.2   249  VAL249     -0.2864
    102  CB       138.2830   21.2000  167.4610 C.3   249  VAL249      0.0276
    103  CG1      138.6380   22.1420  166.2990 C.3   249  VAL249      0.0022
    104  CG2      137.5100   19.9890  166.9380 C.3   249  VAL249      0.0022
    105  N        144.0890   20.4670  169.5200 N.3   252  LEU252     -0.1245
    106  CA       144.8230   20.0720  168.3210 C.3   252  LEU252      0.1561
    107  C        145.3570   21.3080  167.5720 C.2   252  LEU252      0.2260
    108  O        146.4860   21.2700  167.0760 O.2   252  LEU252     -0.2867
    109  CB       143.9470   19.1970  167.3960 C.3   252  LEU252      0.0270
    110  CG       143.6910   17.7380  167.8440 C.3   252  LEU252      0.0019
    111  CD1      142.5810   17.1090  167.0090 C.3   252  LEU252      0.0001
    112  CD2      144.9640   16.8820  167.7480 C.3   252  LEU252      0.0001
    113  N        135.2840   30.4330  174.4790 N.3   453  VAL453     -0.1245
    114  CA       135.6680   29.8310  175.7580 C.3   453  VAL453      0.1561
    115  C        135.8740   30.9610  176.7730 C.2   453  VAL453      0.2260
    116  O        135.3300   30.8900  177.8760 O.2   453  VAL453     -0.2867
    117  CB       136.9280   28.9280  175.6130 C.3   453  VAL453      0.0252
    118  CG1      137.4820   28.5210  176.9790 C.3   453  VAL453      0.0019
    119  CG2      136.6210   27.6930  174.7690 C.3   453  VAL453      0.0019
@<TRIPOS>BOND
     1    34    33    2
     2    33    32    1
     3    35    32    1
     4    35    36    1
     5    32    31    1
     6    31    22   am
     7    23    22    2
     8    22    21    1
     9    36    37   ar
    10    36    38   ar
    11    20    21    1
    12    37    39   ar
    13    38    40   ar
    14    21    24    1
    15    39    41   ar
    16    40    41   ar
    17    24    25    1
    18    25    27   ar
    19    25    26   ar
    20    27    29   ar
    21    26    28   ar
    22    29    30   ar
    23    28    30   ar
    24    45    44    2
    25   103   102    1
    26    13    12    2
    27    44    43    1
    28   104   102    1
    29    12    11    1
    30   111   110    1
    31    42    43    1
    32   108   107    2
    33    43    46    1
    34   109   110    1
    35   109   106    1
    36   102    99    1
    37   107   106    1
    38    10    11    1
    39   112   110    1
    40   101   100    2
    41    11    14    1
    42    99   100    1
    43    99    98    1
    44   106   105    1
    45    46    47    1
    46    47    48    1
    47    98    92   am
    48    14    15    1
    49    97    95    1
    50    17    15   ar
    51    17    19   ar
    52    93    92    2
    53    15    16   ar
    54    95    94    1
    55    95    96    1
    56    92    91    1
    57    19    18   ar
    58    16    18   ar
    59    48    49    1
    60    94    91    1
    61    49    50    2
    62    91    90    1
    63    50    51    1
    64    50    52    1
    65    90    88   am
    66    89    88    2
    67    88    87    1
    68     1     2    1
    69    87    86    1
    70    81    80    2
    71     2     5    1
    72     2     3    1
    73   113   114    1
    74     8     7    2
    75     5     6    1
    76     7     9   am
    77     7     6    1
    78    58    57    1
    79    80    86   am
    80    80    79    1
    81   119   117    1
    82    59    57    1
    83     3     4    2
    84    82    79    1
    85    82    83    1
    86   117   114    1
    87   117   118    1
    88    57    54    1
    89   114   115    1
    90    79    78    1
    91    84    83    1
    92    54    53    1
    93    54    55    1
    94    85    83    1
    95    56    55    2
    96   115   116    2
    97    55    60   am
    98    78    71   am
    99    72    71    2
   100    71    70    1
   101    60    61    1
   102    61    62    1
   103    61    64    1
   104    63    62    2
   105    62    69   am
   106    69    70    1
   107    70    73    1
   108    74    73    1
   109    74    75    1
   110    64    65    1
   111    65    66    1
   112    76    75    2
   113    75    77   am
   114    66    67   ar
   115    66    68   ar
