@<TRIPOS>MOLECULE
tmp/6ei3A11.pdb
 96 89 0 0 0
SMALL
GASTEIGER

@<TRIPOS>ATOM
      1  N        140.0560   47.5880  157.3910 N.3   373  PHE373     -0.1241
      2  CA       138.6720   47.6610  156.9150 C.3   373  PHE373      0.1605
      3  C        137.7820   46.5590  157.4780 C.2   373  PHE373      0.2264
      4  O        136.6050   46.8220  157.7340 O.2   373  PHE373     -0.2867
      5  CB       138.5800   47.7200  155.3890 C.3   373  PHE373      0.0534
      6  CG       138.6160   49.1410  154.8740 C.ar  373  PHE373     -0.0203
      7  CD1      137.4750   49.9390  154.9030 C.ar  373  PHE373     -0.0042
      8  CD2      139.7900   49.6860  154.3710 C.ar  373  PHE373     -0.0042
      9  CE1      137.5120   51.2600  154.4390 C.ar  373  PHE373     -0.0003
     10  CE2      139.8200   50.9980  153.8890 C.ar  373  PHE373     -0.0003
     11  CZ       138.6840   51.7800  153.9360 C.ar  373  PHE373     -0.0000
     12  N        136.7830   47.9200  160.7190 N.3   376  VAL376     -0.1245
     13  CA       135.7410   48.9430  160.5050 C.3   376  VAL376      0.1561
     14  C        134.3690   48.2670  160.3040 C.2   376  VAL376      0.2260
     15  O        133.3780   48.7400  160.8530 O.2   376  VAL376     -0.2867
     16  CB       136.1190   49.9330  159.3560 C.3   376  VAL376      0.0252
     17  CG1      135.0390   51.0050  159.1430 C.3   376  VAL376      0.0019
     18  CG2      137.4640   50.6010  159.6350 C.3   376  VAL376      0.0019
     19  N        133.0700   47.3830  163.5880 N.3   379  ILE379     -0.1231
     20  CA       132.5820   48.5520  164.3440 C.3   379  ILE379      0.1692
     21  C        131.0920   48.7440  163.9390 C.2   379  ILE379      0.2591
     22  O        130.2420   48.9380  164.8090 O.2   379  ILE379     -0.2718
     23  CB       133.4210   49.8590  164.1440 C.3   379  ILE379      0.0266
     24  CG1      134.8460   49.7620  164.7710 C.3   379  ILE379      0.0019
     25  CG2      132.6540   51.1260  164.6540 C.3   379  ILE379      0.0020
     26  CD1      134.9110   49.6600  166.3630 C.3   379  ILE379      0.0001
     27  N        130.7940   48.6410  162.6250 N.am  380  ALA380     -0.1980
     28  CA       129.4480   48.7380  162.0700 C.3   380  ALA380      0.1597
     29  C        128.5330   47.6180  162.6030 C.2   380  ALA380      0.2287
     30  O        127.4260   47.9340  163.0270 O.2   380  ALA380     -0.2864
     31  CB       129.4960   48.7070  160.5550 C.3   380  ALA380      0.0319
     32  N        127.7940   48.3990  166.3000 N.3   383  ALA383     -0.1231
     33  CA       126.9160   49.5750  166.3890 C.3   383  ALA383      0.1694
     34  C        125.4680   49.1830  166.0410 C.2   383  ALA383      0.2591
     35  O        124.5280   49.6660  166.6690 O.2   383  ALA383     -0.2718
     36  CB       127.4230   50.6800  165.4700 C.3   383  ALA383      0.0304
     37  N        125.3000   48.2420  165.0980 N.am  384  ILE384     -0.1980
     38  CA       123.9870   47.7220  164.7430 C.3   384  ILE384      0.1595
     39  C        123.4280   46.9400  165.9440 C.2   384  ILE384      0.2287
     40  O        122.2710   47.1480  166.3300 O.2   384  ILE384     -0.2864
     41  CB       124.0500   46.8910  163.4490 C.3   384  ILE384      0.0276
     42  CG1      124.1830   47.8210  162.2210 C.3   384  ILE384      0.0022
     43  CG2      122.8290   45.9540  163.3310 C.3   384  ILE384      0.0022
     44  CD1      124.8870   47.1470  161.0130 C.3   384  ILE384      0.0001
     45  N        122.2040   49.2490  168.7620 N.3   387  ALA387     -0.1245
     46  CA       120.8930   49.8170  168.4200 C.3   387  ALA387      0.1562
     47  C        119.8090   48.7720  168.7040 C.2   387  ALA387      0.2260
     48  O        118.8120   49.0980  169.3390 O.2   387  ALA387     -0.2867
     49  CB       120.8550   50.2480  166.9580 C.3   387  ALA387      0.0290
     50  N        115.7860   49.3250  169.5790 N.3   392  GLU392     -0.1245
     51  CA       115.5540   49.9110  168.2640 C.3   392  GLU392      0.1567
     52  C        115.3090   48.8350  167.1990 C.2   392  GLU392      0.2260
     53  O        116.1340   47.9370  167.0530 O.2   392  GLU392     -0.2867
     54  CB       116.6940   50.8750  167.8710 C.3   392  GLU392      0.0388
     55  CG       116.5770   51.5110  166.4900 C.3   392  GLU392      0.1160
     56  CD       115.6360   52.6890  166.3020 C.2   392  GLU392      0.3649
     57  OE1      114.9010   53.0520  167.2510 O.co2 392  GLU392     -0.2457
     58  OE2      115.6460   53.2600  165.1870 O.co2 392  GLU392     -0.2457
     59  N        115.7500   47.1510  163.8830 N.3   394  MET394     -0.1245
     60  CA       116.7500   47.3020  162.8230 C.3   394  MET394      0.1570
     61  C        116.4500   46.3780  161.6620 C.2   394  MET394      0.2261
     62  O        116.3510   45.1740  161.8620 O.2   394  MET394     -0.2867
     63  CB       118.1720   47.0950  163.3610 C.3   394  MET394      0.0387
     64  CG       118.5920   48.1600  164.3830 C.3   394  MET394      0.0595
     65  SD       118.7680   49.8210  163.6820 S.3   394  MET394     -0.1393
     66  CE       120.4380   49.7270  163.0580 C.3   394  MET394      0.0692
     67  N        120.4880   46.7880  156.9940 N.3   398  TRP398     -0.1241
     68  CA       121.6120   47.4550  157.6800 C.3   398  TRP398      0.1605
     69  C        122.8910   46.6150  157.5950 C.2   398  TRP398      0.2264
     70  O        123.9820   47.1850  157.6340 O.2   398  TRP398     -0.2867
     71  CB       121.2870   47.7270  159.1530 C.3   398  TRP398      0.0550
     72  CG       120.6450   49.0560  159.3940 C.ar  398  TRP398      0.0003
     73  CD1      119.3460   49.2890  159.7270 C.ar  398  TRP398      0.0946
     74  CD2      121.2690   50.3400  159.2770 C.ar  398  TRP398      0.0152
     75  NE1      119.1350   50.6380  159.8890 N.ar  398  TRP398     -0.2442
     76  CE2      120.2950   51.3100  159.6040 C.ar  398  TRP398      0.0810
     77  CE3      122.5550   50.7720  158.8970 C.ar  398  TRP398      0.0012
     78  CZ2      120.5670   52.6870  159.5810 C.ar  398  TRP398      0.0191
     79  CZ3      122.8310   52.1330  158.9070 C.ar  398  TRP398      0.0001
     80  CH2      121.8430   53.0730  159.2460 C.ar  398  TRP398      0.0015
     81  N        126.0060   47.4560  155.0060 N.3   401  LEU401     -0.1245
     82  CA       127.1440   48.2910  155.4390 C.3   401  LEU401      0.1561
     83  C        128.3380   47.4230  155.8980 C.2   401  LEU401      0.2260
     84  O        129.3580   47.4720  155.2160 O.2   401  LEU401     -0.2867
     85  CB       126.7420   49.3450  156.4830 C.3   401  LEU401      0.0270
     86  CG       127.8620   50.2160  157.0830 C.3   401  LEU401      0.0019
     87  CD1      128.5280   51.1070  156.0190 C.3   401  LEU401      0.0001
     88  CD2      127.3110   51.0830  158.2050 C.3   401  LEU401      0.0001
     89  N        132.0230   46.7880  153.7930 N.3   405  LEU405     -0.1245
     90  CA       133.2910   47.0670  154.4560 C.3   405  LEU405      0.1561
     91  C        134.1600   45.8230  154.5300 C.2   405  LEU405      0.2260
     92  O        135.3250   45.8760  154.1230 O.2   405  LEU405     -0.2867
     93  CB       133.0620   47.6740  155.8560 C.3   405  LEU405      0.0270
     94  CG       132.4410   49.0850  155.8820 C.3   405  LEU405      0.0019
     95  CD1      131.8050   49.3700  157.2170 C.3   405  LEU405      0.0001
     96  CD2      133.4810   50.1800  155.5100 C.3   405  LEU405      0.0001
@<TRIPOS>BOND
     1    89    90    1
     2    10    11   ar
     3    10     8   ar
     4    11     9   ar
     5    92    91    2
     6     8     6   ar
     7     9     7   ar
     8    90    91    1
     9    90    93    1
    10     6     7   ar
    11     6     5    1
    12    81    82    1
    13    84    83    2
    14     5     2    1
    15    82    83    1
    16    82    85    1
    17    96    94    1
    18    93    94    1
    19    94    95    1
    20    87    86    1
    21    85    86    1
    22     2     1    1
    23     2     3    1
    24    67    68    1
    25    86    88    1
    26     3     4    2
    27    69    70    2
    28    69    68    1
    29    68    71    1
    30    77    79   ar
    31    77    74   ar
    32    79    80   ar
    33    17    16    1
    34    71    72    1
    35    80    78   ar
    36    74    72   ar
    37    74    76   ar
    38    16    18    1
    39    16    13    1
    40    72    73   ar
    41    78    76   ar
    42    76    75   ar
    43    73    75   ar
    44    14    13    1
    45    14    15    2
    46    13    12    1
    47    31    28    1
    48    44    42    1
    49    61    62    2
    50    61    60    1
    51    28    29    1
    52    28    27    1
    53    42    41    1
    54    29    30    2
    55    27    21   am
    56    60    63    1
    57    60    59    1
    58    66    65    1
    59    43    41    1
    60    63    64    1
    61    41    38    1
    62    19    20    1
    63    65    64    1
    64    21    20    1
    65    21    22    2
    66    23    20    1
    67    23    25    1
    68    23    24    1
    69    38    37    1
    70    38    39    1
    71    24    26    1
    72    37    34   am
    73    58    56   ar
    74    36    33    1
    75    39    40    2
    76    34    33    1
    77    34    35    2
    78    32    33    1
    79    56    55    1
    80    56    57   ar
    81    55    54    1
    82    49    46    1
    83    53    52    2
    84    52    51    1
    85    54    51    1
    86    51    50    1
    87    46    47    1
    88    46    45    1
    89    47    48    2
