@<TRIPOS>MOLECULE
tmp/6ei3A06.pdb
 96 94 0 0 0
SMALL
GASTEIGER

@<TRIPOS>ATOM
      1  N        142.3970   22.5000  157.3850 N.3    60  PHE60      -0.1227
      2  CA       143.5390   21.7510  157.9320 C.3    60  PHE60       0.1736
      3  C        143.8280   20.5010  157.0650 C.2    60  PHE60       0.2595
      4  O        144.9920   20.2380  156.7580 O.2    60  PHE60      -0.2718
      5  CB       143.2950   21.3270  159.3950 C.3    60  PHE60       0.0547
      6  CG       144.3460   20.3600  159.9000 C.ar   60  PHE60      -0.0202
      7  CD1      145.6210   20.8090  160.2470 C.ar   60  PHE60      -0.0042
      8  CD2      144.0950   18.9910  159.9340 C.ar   60  PHE60      -0.0042
      9  CE1      146.6070   19.9090  160.6730 C.ar   60  PHE60      -0.0003
     10  CE2      145.0910   18.0900  160.3480 C.ar   60  PHE60      -0.0003
     11  CZ       146.3370   18.5580  160.7200 C.ar   60  PHE60      -0.0000
     12  N        142.7640   19.7190  156.7000 N.am   61  PHE61      -0.1976
     13  CA       142.8880   18.4700  155.9380 C.3    61  PHE61       0.1639
     14  C        143.5310   18.6330  154.5330 C.2    61  PHE61       0.2290
     15  O        144.1130   17.6390  154.1090 O.2    61  PHE61      -0.2864
     16  CB       141.5820   17.6700  155.8840 C.3    61  PHE61       0.0560
     17  CG       141.2600   17.0500  157.2250 C.ar   61  PHE61      -0.0200
     18  CD1      142.1330   16.1420  157.8180 C.ar   61  PHE61      -0.0042
     19  CD2      140.0830   17.3710  157.8920 C.ar   61  PHE61      -0.0042
     20  CE1      141.8420   15.5780  159.0670 C.ar   61  PHE61      -0.0003
     21  CE2      139.7860   16.8040  159.1440 C.ar   61  PHE61      -0.0003
     22  CZ       140.6680   15.9040  159.7180 C.ar   61  PHE61      -0.0000
     23  N        146.4160   19.4180  154.1660 N.3    63  LEU63      -0.1231
     24  CA       147.7460   18.8830  154.5010 C.3    63  LEU63       0.1693
     25  C        147.8110   17.3800  154.1760 C.2    63  LEU63       0.2591
     26  O        148.7590   16.9330  153.5240 O.2    63  LEU63      -0.2718
     27  CB       148.1170   19.0930  155.9930 C.3    63  LEU63       0.0284
     28  CG       148.5250   20.5030  156.4560 C.3    63  LEU63       0.0019
     29  CD1      148.9010   20.4880  157.9510 C.3    63  LEU63       0.0001
     30  CD2      149.7550   21.0310  155.6760 C.3    63  LEU63       0.0001
     31  N        146.7810   16.6180  154.6080 N.am   64  LEU64      -0.1980
     32  CA       146.6680   15.1860  154.3680 C.3    64  LEU64       0.1596
     33  C        146.4110   14.8750  152.8940 C.2    64  LEU64       0.2287
     34  O        147.1040   14.0240  152.3460 O.2    64  LEU64      -0.2864
     35  CB       145.6030   14.5430  155.2650 C.3    64  LEU64       0.0297
     36  CG       145.4960   13.0070  155.2030 C.3    64  LEU64       0.0022
     37  CD1      146.7470   12.3130  155.7790 C.3    64  LEU64       0.0001
     38  CD2      144.2670   12.5370  155.9320 C.3    64  LEU64       0.0001
     39  N        122.5440   13.8730  167.0330 N.3   100  ARG100     -0.1231
     40  CA       123.7340   14.6730  167.3110 C.3   100  ARG100      0.1694
     41  C        125.0040   13.9360  166.8730 C.2   100  ARG100      0.2592
     42  O        125.8380   14.5120  166.1750 O.2   100  ARG100     -0.2718
     43  CB       123.7620   15.0070  168.8120 C.3   100  ARG100      0.0321
     44  CG       124.7460   16.0730  169.2100 C.3   100  ARG100      0.0489
     45  CD       124.7900   16.2260  170.7150 C.3   100  ARG100      0.2205
     46  NE       125.8750   17.1230  171.1020 N.pl3 100  ARG100     -0.0865
     47  CZ       127.0860   16.7270  171.4750 C.cat 100  ARG100      0.5346
     48  NH1      127.3810   15.4330  171.5340 N.pl3 100  ARG100      0.1354
     49  NH2      128.0080   17.6200  171.8050 N.pl3 100  ARG100      0.1354
     50  N        125.1250   12.6540  167.2430 N.am  101  SER101     -0.1952
     51  CA       126.2760   11.8180  166.8980 C.3   101  SER101      0.1924
     52  C        126.4570   11.6390  165.3820 C.2   101  SER101      0.2314
     53  O        127.5430   11.8960  164.8580 O.2   101  SER101     -0.2863
     54  CB       126.1660   10.4590  167.5840 C.3   101  SER101      0.2116
     55  OG       127.4110    9.7850  167.5110 O.3   101  SER101     -0.2180
     56  N        127.1220   15.0220  163.4530 N.3   104  PHE104     -0.1227
     57  CA       128.4890   15.5210  163.6540 C.3   104  PHE104      0.1736
     58  C        129.5210   14.6580  162.9250 C.2   104  PHE104      0.2595
     59  O        130.5070   15.2000  162.4270 O.2   104  PHE104     -0.2718
     60  CB       128.8470   15.7460  165.1340 C.3   104  PHE104      0.0547
     61  CG       128.0560   16.8290  165.8460 C.ar  104  PHE104     -0.0202
     62  CD1      127.2200   17.6900  165.1400 C.ar  104  PHE104     -0.0042
     63  CD2      128.1570   16.9950  167.2240 C.ar  104  PHE104     -0.0042
     64  CE1      126.4690   18.6680  165.8030 C.ar  104  PHE104     -0.0003
     65  CE2      127.4340   17.9990  167.8820 C.ar  104  PHE104     -0.0003
     66  CZ       126.5820   18.8170  167.1680 C.ar  104  PHE104     -0.0000
     67  N        129.2650   13.3340  162.8070 N.am  105  VAL105     -0.1980
     68  CA       130.1200   12.4240  162.0310 C.3   105  VAL105      0.1595
     69  C        130.0560   12.9030  160.5610 C.2   105  VAL105      0.2287
     70  O        131.0960   13.0500  159.9280 O.2   105  VAL105     -0.2864
     71  CB       129.7190   10.9310  162.2020 C.3   105  VAL105      0.0276
     72  CG1      130.3300   10.0610  161.0970 C.3   105  VAL105      0.0022
     73  CG2      130.1260   10.4050  163.5840 C.3   105  VAL105      0.0022
     74  N        132.0950   15.9640  160.1140 N.3   108  GLY108     -0.1210
     75  CA       133.4850   15.5130  160.1680 C.3   108  GLY108      0.1956
     76  C        133.9520   14.9350  158.8340 C.2   108  GLY108      0.2611
     77  O        135.0320   15.2650  158.3470 O.2   108  GLY108     -0.2717
     78  N        133.1150   14.0970  158.2180 N.am  109  LEU109     -0.1979
     79  CA       133.3850   13.4690  156.9230 C.3   109  LEU109      0.1596
     80  C        133.3950   14.4940  155.7840 C.2   109  LEU109      0.2287
     81  O        134.2290   14.3900  154.8790 O.2   109  LEU109     -0.2864
     82  CB       132.3650   12.3400  156.6610 C.3   109  LEU109      0.0297
     83  CG       132.4310   11.1140  157.6000 C.3   109  LEU109      0.0022
     84  CD1      131.2900   10.1440  157.3080 C.3   109  LEU109      0.0001
     85  CD2      133.8050   10.3950  157.5500 C.3   109  LEU109      0.0001
     86  N        136.6700   16.5640  156.1790 N.3   112  PHE112     -0.1241
     87  CA       137.7520   15.7030  155.7140 C.3   112  PHE112      0.1605
     88  C        137.7860   15.6090  154.1980 C.2   112  PHE112      0.2264
     89  O        138.8610   15.7570  153.6030 O.2   112  PHE112     -0.2867
     90  CB       137.5870   14.3010  156.3290 C.3   112  PHE112      0.0534
     91  CG       138.7230   13.3270  156.1080 C.ar  112  PHE112     -0.0203
     92  CD1      139.9020   13.4350  156.8330 C.ar  112  PHE112     -0.0042
     93  CD2      138.5730   12.2430  155.2520 C.ar  112  PHE112     -0.0042
     94  CE1      140.9260   12.4980  156.6770 C.ar  112  PHE112     -0.0003
     95  CE2      139.5890   11.2890  155.1190 C.ar  112  PHE112     -0.0003
     96  CZ       140.7640   11.4330  155.8200 C.ar  112  PHE112     -0.0000
@<TRIPOS>BOND
     1    34    33    2
     2    33    32    1
     3    26    25    2
     4    89    88    2
     5    15    14    2
     6    23    24    1
     7    25    24    1
     8    25    31   am
     9    88    87    1
    10    32    31    1
    11    32    35    1
    12    24    27    1
    13    14    13    1
    14    81    80    2
    15    95    93   ar
    16    95    96   ar
    17    36    35    1
    18    36    37    1
    19    36    38    1
    20    93    91   ar
    21    30    28    1
    22    87    86    1
    23    87    90    1
    24    80    79    1
    25    96    94   ar
    26    16    13    1
    27    16    17    1
    28    13    12    1
    29    27    28    1
    30    91    90    1
    31    91    92   ar
    32    28    29    1
    33    82    79    1
    34    82    83    1
    35    94    92   ar
    36    12     3   am
    37     4     3    2
    38    79    78    1
    39     3     2    1
    40    17    18   ar
    41    17    19   ar
    42    84    83    1
    43     1     2    1
    44    85    83    1
    45    18    20   ar
    46    19    21   ar
    47     2     5    1
    48    78    76   am
    49    77    76    2
    50    76    75    1
    51    20    22   ar
    52    21    22   ar
    53     5     6    1
    54     6     8   ar
    55     6     7   ar
    56    70    69    2
    57     8    10   ar
    58    74    75    1
    59     7     9   ar
    60    10    11   ar
    61    69    68    1
    62     9    11   ar
    63    72    71    1
    64    68    71    1
    65    68    67    1
    66    71    73    1
    67    59    58    2
    68    67    58   am
    69    58    57    1
    70    56    57    1
    71    57    60    1
    72    53    52    2
    73    60    61    1
    74    62    64   ar
    75    62    61   ar
    76    52    51    1
    77    64    66   ar
    78    61    63   ar
    79    42    41    2
    80    41    50   am
    81    41    40    1
    82    51    50    1
    83    51    54    1
    84    39    40    1
    85    66    65   ar
    86    63    65   ar
    87    40    43    1
    88    55    54    1
    89    43    44    1
    90    44    45    1
    91    45    46    1
    92    46    47    2
    93    47    48    1
    94    47    49    1
