@<TRIPOS>MOLECULE
tmp/6ei3A16.pdb
 128 123 0 0 0
SMALL
GASTEIGER

@<TRIPOS>ATOM
      1  N        126.9440   32.7150  145.4570 N.3   153  LEU153     -0.1245
      2  CA       125.8260   33.6620  145.4420 C.3   153  LEU153      0.1561
      3  C        124.4820   32.9300  145.3530 C.2   153  LEU153      0.2260
      4  O        123.5830   33.2020  146.1540 O.2   153  LEU153     -0.2867
      5  CB       125.9790   34.6670  144.2770 C.3   153  LEU153      0.0270
      6  CG       125.2670   36.0360  144.4210 C.3   153  LEU153      0.0019
      7  CD1      125.8790   37.0570  143.4780 C.3   153  LEU153      0.0001
      8  CD2      123.8180   35.9410  144.0590 C.3   153  LEU153      0.0001
      9  N        121.4310   32.3360  148.1660 N.3   157  LEU157     -0.1245
     10  CA       120.0890   32.8300  147.9620 C.3   157  LEU157      0.1561
     11  C        119.0500   31.6940  147.9620 C.2   157  LEU157      0.2260
     12  O        117.9330   31.9090  148.4160 O.2   157  LEU157     -0.2867
     13  CB       120.0010   33.6150  146.6440 C.3   157  LEU157      0.0270
     14  CG       120.6130   35.0250  146.5970 C.3   157  LEU157      0.0019
     15  CD1      120.5930   35.5560  145.1850 C.3   157  LEU157      0.0001
     16  CD2      119.8640   35.9950  147.4890 C.3   157  LEU157      0.0001
     17  N        114.6450   43.0330  161.4050 N.3   321  ARG321     -0.1245
     18  CA       113.3850   43.0680  160.6370 C.3   321  ARG321      0.1563
     19  C        113.6300   42.6690  159.1860 C.2   321  ARG321      0.2260
     20  O        114.6360   43.0450  158.5910 O.2   321  ARG321     -0.2867
     21  CB       112.7370   44.4620  160.6510 C.3   321  ARG321      0.0307
     22  CG       112.3650   45.0240  162.0140 C.3   321  ARG321      0.0489
     23  CD       111.4220   46.2170  161.8620 C.3   321  ARG321      0.2205
     24  NE       112.0380   47.3700  161.1880 N.pl3 321  ARG321     -0.0865
     25  CZ       111.7760   47.7500  159.9380 C.cat 321  ARG321      0.5346
     26  NH1      110.9110   47.0670  159.1940 N.pl3 321  ARG321      0.1354
     27  NH2      112.3810   48.8110  159.4200 N.pl3 321  ARG321      0.1354
     28  N        111.1490   40.9390  155.4100 N.3   323  PRO323     -0.2116
     29  CA       109.8360   40.4310  154.9580 C.3   323  PRO323      0.1372
     30  C        109.7320   38.9250  155.1810 C.2   323  PRO323      0.2244
     31  O        110.7650   38.2340  155.2490 O.2   323  PRO323     -0.2868
     32  CB       109.7940   40.7890  153.4750 C.3   323  PRO323      0.0268
     33  CG       111.1970   40.9890  153.0680 C.3   323  PRO323      0.0207
     34  CD       112.0230   41.2940  154.2710 C.3   323  PRO323      0.0892
     35  N        109.1140   36.4190  153.3930 N.3   325  TRP325     -0.1227
     36  CA       109.7850   35.6050  152.3920 C.3   325  TRP325      0.1737
     37  C        111.3100   35.5170  152.5650 C.2   325  TRP325      0.2595
     38  O        111.9120   34.5850  152.0410 O.2   325  TRP325     -0.2718
     39  CB       109.4280   36.0770  150.9760 C.3   325  TRP325      0.0564
     40  CG       109.8410   37.4820  150.6400 C.ar  325  TRP325      0.0003
     41  CD1      109.0630   38.5970  150.7050 C.ar  325  TRP325      0.0946
     42  CD2      111.0960   37.8990  150.0810 C.ar  325  TRP325      0.0152
     43  NE1      109.7620   39.6880  150.2430 N.ar  325  TRP325     -0.2442
     44  CE2      111.0240   39.2920  149.8840 C.ar  325  TRP325      0.0810
     45  CE3      112.2900   37.2340  149.7630 C.ar  325  TRP325      0.0012
     46  CZ2      112.0980   40.0340  149.3800 C.ar  325  TRP325      0.0191
     47  CZ3      113.3470   37.9660  149.2430 C.ar  325  TRP325      0.0001
     48  CH2      113.2540   39.3520  149.0800 C.ar  325  TRP325      0.0015
     49  N        111.9310   36.4860  153.2520 N.am  326  PHE326     -0.1976
     50  CA       113.3960   36.5470  153.4250 C.3   326  PHE326      0.1639
     51  C        113.8760   35.7690  154.6430 C.2   326  PHE326      0.2290
     52  O        113.1240   35.5730  155.5970 O.2   326  PHE326     -0.2864
     53  CB       113.8520   38.0190  153.5150 C.3   326  PHE326      0.0560
     54  CG       115.3070   38.2740  153.1950 C.ar  326  PHE326     -0.0200
     55  CD1      115.7390   38.3680  151.8760 C.ar  326  PHE326     -0.0042
     56  CD2      116.2380   38.4600  154.2120 C.ar  326  PHE326     -0.0042
     57  CE1      117.0850   38.6060  151.5800 C.ar  326  PHE326     -0.0003
     58  CE2      117.5830   38.6860  153.9160 C.ar  326  PHE326     -0.0003
     59  CZ       117.9930   38.7810  152.6020 C.ar  326  PHE326     -0.0000
     60  N        120.3990   34.3510  153.7990 N.3   330  GLN330     -0.1231
     61  CA       120.4910   34.8770  152.4280 C.3   330  GLN330      0.1698
     62  C        121.4310   36.0850  152.2810 C.2   330  GLN330      0.2592
     63  O        121.9240   36.3350  151.1800 O.2   330  GLN330     -0.2718
     64  CB       119.1110   35.2180  151.8770 C.3   330  GLN330      0.0381
     65  CG       118.2270   33.9920  151.6640 C.3   330  GLN330      0.0905
     66  CD       116.9080   34.4420  151.1310 C.2   330  GLN330      0.2608
     67  OE1      116.1070   35.0120  151.8480 O.2   330  GLN330     -0.2717
     68  NE2      116.7050   34.2840  149.8420 N.am  330  GLN330     -0.0878
     69  N        121.6950   36.8180  153.3890 N.am  331  MET331     -0.1979
     70  CA       122.5870   37.9850  153.3700 C.3   331  MET331      0.1605
     71  C        123.9950   37.5910  152.9420 C.2   331  MET331      0.2287
     72  O        124.7220   38.4390  152.4320 O.2   331  MET331     -0.2864
     73  CB       122.6440   38.6750  154.7460 C.3   331  MET331      0.0413
     74  CG       121.3370   39.3680  155.1260 C.3   331  MET331      0.0598
     75  SD       120.7550   40.6140  153.9410 S.3   331  MET331     -0.1393
     76  CE       121.7820   42.0090  154.3830 C.3   331  MET331      0.0692
     77  N        124.8390   36.0640  150.4250 N.3   333  ALA333     -0.1231
     78  CA       124.9670   36.2590  148.9710 C.3   333  ALA333      0.1694
     79  C        125.6520   37.5870  148.6540 C.2   333  ALA333      0.2591
     80  O        126.1610   37.7620  147.5460 O.2   333  ALA333     -0.2718
     81  CB       123.6030   36.2150  148.3160 C.3   333  ALA333      0.0304
     82  N        125.6570   38.5280  149.6200 N.am  334  LEU334     -0.1980
     83  CA       126.2830   39.8310  149.3950 C.3   334  LEU334      0.1596
     84  C        127.7790   39.7370  149.2400 C.2   334  LEU334      0.2287
     85  O        128.3510   40.5440  148.5250 O.2   334  LEU334     -0.2864
     86  CB       125.9560   40.8360  150.5050 C.3   334  LEU334      0.0297
     87  CG       124.5350   41.3750  150.5740 C.3   334  LEU334      0.0022
     88  CD1      124.3760   42.2120  151.8250 C.3   334  LEU334      0.0001
     89  CD2      124.1900   42.2290  149.3480 C.3   334  LEU334      0.0001
     90  N        128.7000   38.7330  145.5420 N.3   337  LEU337     -0.1245
     91  CA       128.2530   39.8450  144.6910 C.3   337  LEU337      0.1561
     92  C        129.2610   40.9980  144.8030 C.2   337  LEU337      0.2260
     93  O        129.6680   41.5630  143.7920 O.2   337  LEU337     -0.2867
     94  CB       126.8430   40.3490  145.0800 C.3   337  LEU337      0.0270
     95  CG       126.3920   41.6510  144.3800 C.3   337  LEU337      0.0019
     96  CD1      126.1520   41.4390  142.8980 C.3   337  LEU337      0.0001
     97  CD2      125.1630   42.2690  145.0460 C.3   337  LEU337      0.0001
     98  N        116.2760   46.9410  160.4540 N.3   395  HIS395     -0.1226
     99  CA       115.9950   46.1410  159.2640 C.3   395  HIS395      0.1752
    100  C        117.2860   45.4270  158.8930 C.2   395  HIS395      0.2596
    101  O        118.3720   45.9970  159.0420 O.2   395  HIS395     -0.2718
    102  CB       115.5120   47.0350  158.1070 C.3   395  HIS395      0.0759
    103  CG       114.9050   46.2780  156.9620 C.ar  395  HIS395      0.0818
    104  ND1      115.6950   45.6510  156.0100 N.ar  395  HIS395     -0.2268
    105  CD2      113.6010   46.0800  156.6480 C.ar  395  HIS395      0.1154
    106  CE1      114.8520   45.0730  155.1650 C.ar  395  HIS395      0.1986
    107  NE2      113.5820   45.3140  155.5000 N.ar  395  HIS395     -0.2212
    108  N        117.1790   44.1790  158.4270 N.am  396  ILE396     -0.1966
    109  CA       118.3540   43.3750  158.0460 C.3   396  ILE396      0.1727
    110  C        119.2160   44.0510  156.9390 C.2   396  ILE396      0.2616
    111  O        120.4050   43.7750  156.8690 O.2   396  ILE396     -0.2715
    112  CB       117.9550   41.9230  157.6910 C.3   396  ILE396      0.0290
    113  CG1      119.2070   40.9940  157.7070 C.3   396  ILE396      0.0022
    114  CG2      117.1470   41.8510  156.3610 C.3   396  ILE396      0.0023
    115  CD1      118.9050   39.5320  157.8600 C.3   396  ILE396      0.0001
    116  N        118.6300   44.9580  156.1180 N.am  397  ALA397     -0.1977
    117  CA       119.3660   45.6970  155.0770 C.3   397  ALA397      0.1597
    118  C        120.5270   46.4940  155.6780 C.2   397  ALA397      0.2287
    119  O        121.4760   46.8050  154.9670 O.2   397  ALA397     -0.2864
    120  CB       118.4230   46.6260  154.3080 C.3   397  ALA397      0.0319
    121  N        124.1500   45.3220  154.9840 N.3   400  ILE400     -0.1245
    122  CA       124.8200   45.6800  153.7080 C.3   400  ILE400      0.1561
    123  C        126.0990   46.4950  154.0440 C.2   400  ILE400      0.2260
    124  O        127.1340   46.2620  153.4240 O.2   400  ILE400     -0.2867
    125  CB       123.8840   46.5090  152.7510 C.3   400  ILE400      0.0252
    126  CG1      122.7130   45.6540  152.1940 C.3   400  ILE400      0.0019
    127  CG2      124.6880   47.1530  151.5800 C.3   400  ILE400      0.0019
    128  CD1      121.5420   46.4810  151.5060 C.3   400  ILE400      0.0001
@<TRIPOS>BOND
     1    96    95    1
     2     7     6    1
     3    93    92    2
     4     8     6    1
     5     5     6    1
     6     5     2    1
     7    95    97    1
     8    95    94    1
     9    91    92    1
    10    91    94    1
    11    91    90    1
    12    15    14    1
    13     3     2    1
    14     3     4    2
    15     2     1    1
    16    14    13    1
    17    14    16    1
    18    13    10    1
    19    80    79    2
    20    11    10    1
    21    11    12    2
    22    10     9    1
    23    81    78    1
    24    85    84    2
    25    79    78    1
    26    79    82   am
    27    78    77    1
    28    48    47   ar
    29    48    46   ar
    30    84    83    1
    31    47    45   ar
    32    89    87    1
    33    46    44   ar
    34    83    82    1
    35    83    86    1
    36    45    42   ar
    37    68    66   am
    38    44    42   ar
    39    44    43   ar
    40    42    40   ar
    41    43    41   ar
    42    86    87    1
    43    87    88    1
    44    40    41   ar
    45    40    39    1
    46    39    36    1
    47    66    65    1
    48    66    67    2
    49    63    62    2
    50   128   126    1
    51   127   125    1
    52    57    55   ar
    53    57    59   ar
    54    65    64    1
    55    55    54   ar
    56    64    61    1
    57    38    37    2
    58   126   125    1
    59    62    61    1
    60    62    69   am
    61    36    37    1
    62    36    35    1
    63    61    60    1
    64    72    71    2
    65    37    49   am
    66    59    58   ar
    67   125   122    1
    68    71    70    1
    69    33    32    1
    70    33    34    1
    71    54    53    1
    72    54    56   ar
    73    49    50    1
    74    70    69    1
    75    70    73    1
    76   124   123    2
    77    50    53    1
    78    50    51    1
    79    32    29    1
    80   122   123    1
    81   122   121    1
    82    58    56   ar
    83    75    76    1
    84    75    74    1
    85    34    28    1
    86   120   117    1
    87    51    52    2
    88    73    74    1
    89    29    30    1
    90    29    28    1
    91   119   118    2
    92   117   118    1
    93   117   116    1
    94   106   107   ar
    95   106   104   ar
    96    30    31    2
    97   107   105   ar
    98   104   103   ar
    99   116   110   am
   100   114   112    1
   101   105   103   ar
   102   111   110    2
   103   110   109    1
   104   103   102    1
   105   112   113    1
   106   112   109    1
   107   113   115    1
   108   109   108    1
   109   102    99    1
   110   108   100   am
   111    20    19    2
   112   100   101    2
   113   100    99    1
   114    19    18    1
   115    26    25    1
   116    99    98    1
   117    27    25    1
   118    25    24    2
   119    18    21    1
   120    18    17    1
   121    21    22    1
   122    24    23    1
   123    23    22    1
