@<TRIPOS>MOLECULE
tmp/6ei3A07.pdb
 113 112 0 0 0
SMALL
GASTEIGER

@<TRIPOS>ATOM
      1  N        144.2840   12.0720  140.8280 N.3    76  TYR76      -0.1227
      2  CA       143.0050   11.4580  140.4400 C.3    76  TYR76       0.1736
      3  C        142.4130   10.5570  141.5330 C.2    76  TYR76       0.2596
      4  O        141.2460   10.7300  141.8970 O.2    76  TYR76      -0.2718
      5  CB       143.0930   10.6600  139.1130 C.3    76  TYR76       0.0548
      6  CG       141.7890    9.9480  138.8290 C.ar   76  TYR76      -0.0200
      7  CD1      140.6740   10.6510  138.3740 C.ar   76  TYR76      -0.0009
      8  CD2      141.6330    8.5960  139.1190 C.ar   76  TYR76      -0.0009
      9  CE1      139.4440   10.0170  138.1860 C.ar   76  TYR76       0.0417
     10  CE2      140.4140    7.9480  138.9230 C.ar   76  TYR76       0.0417
     11  CZ       139.3240    8.6630  138.4470 C.ar   76  TYR76       0.1957
     12  OH       138.1190    8.0420  138.2710 O.3    76  TYR76      -0.2866
     13  N        143.1940    9.5580  141.9910 N.am   77  THR77      -0.1953
     14  CA       142.7480    8.5830  143.0040 C.3    77  THR77       0.1897
     15  C        142.3850    9.2600  144.3290 C.2    77  THR77       0.2313
     16  O        141.3800    8.9130  144.9350 O.2    77  THR77      -0.2863
     17  CB       143.8210    7.4950  143.1760 C.3    77  THR77       0.1794
     18  OG1      143.9490    6.8180  141.9290 O.3    77  THR77      -0.2208
     19  CG2      143.4890    6.4810  144.2810 C.3    77  THR77       0.0378
     20  N        139.0790   11.1910  144.0030 N.3    80  ILE80      -0.1231
     21  CA       137.9750   10.2290  143.9820 C.3    80  ILE80       0.1692
     22  C        137.6100    9.7360  145.3890 C.2    80  ILE80       0.2592
     23  O        136.4360    9.7670  145.7530 O.2    80  ILE80      -0.2718
     24  CB       138.2700    9.0530  142.9890 C.3    80  ILE80       0.0266
     25  CG1      137.9680    9.4590  141.5340 C.3    80  ILE80       0.0019
     26  CG2      137.5090    7.7580  143.3600 C.3    80  ILE80       0.0020
     27  CD1      136.4400    9.6380  141.1220 C.3    80  ILE80       0.0001
     28  N        138.6180    9.3040  146.1760 N.am   81  TRP81      -0.1976
     29  CA       138.3740    8.7520  147.5040 C.3    81  TRP81       0.1640
     30  C        137.9400    9.7980  148.5120 C.2    81  TRP81       0.2290
     31  O        137.0360    9.5220  149.2880 O.2    81  TRP81      -0.2864
     32  CB       139.5650    7.9190  147.9930 C.3    81  TRP81       0.0576
     33  CG       139.5700    6.5620  147.3510 C.ar   81  TRP81       0.0006
     34  CD1      140.4070    6.1260  146.3660 C.ar   81  TRP81       0.0946
     35  CD2      138.5860    5.5260  147.5280 C.ar   81  TRP81       0.0152
     36  NE1      140.0600    4.8510  145.9790 N.ar   81  TRP81      -0.2442
     37  CE2      138.9450    4.4580  146.6770 C.ar   81  TRP81       0.0810
     38  CE3      137.4480    5.3860  148.3490 C.ar   81  TRP81       0.0012
     39  CZ2      138.2190    3.2580  146.6320 C.ar   81  TRP81       0.0191
     40  CZ3      136.7250    4.2010  148.2990 C.ar   81  TRP81       0.0001
     41  CH2      137.1140    3.1500  147.4530 C.ar   81  TRP81       0.0015
     42  N        134.2620   10.6760  147.6590 N.3    84  LEU84      -0.1245
     43  CA       133.3060    9.6510  148.0940 C.3    84  LEU84       0.1561
     44  C        133.0530    9.7670  149.6110 C.2    84  LEU84       0.2260
     45  O        131.9250    9.5810  150.0590 O.2    84  LEU84      -0.2867
     46  CB       133.8070    8.2400  147.7400 C.3    84  LEU84       0.0270
     47  CG       133.7630    7.8280  146.2700 C.3    84  LEU84       0.0019
     48  CD1      134.6270    6.5870  146.0410 C.3    84  LEU84       0.0001
     49  CD2      132.3390    7.5730  145.7970 C.3    84  LEU84       0.0001
     50  N        127.1050   14.3840  144.9090 N.3   180  PHE180     -0.1227
     51  CA       127.0650   13.0870  144.2430 C.3   180  PHE180      0.1736
     52  C        127.3140   13.3150  142.7420 C.2   180  PHE180      0.2595
     53  O        128.1140   12.6050  142.1370 O.2   180  PHE180     -0.2718
     54  CB       125.7220   12.3540  144.4720 C.3   180  PHE180      0.0547
     55  CG       125.5570   11.1900  143.5190 C.ar  180  PHE180     -0.0202
     56  CD1      126.1470    9.9600  143.7880 C.ar  180  PHE180     -0.0042
     57  CD2      124.8750   11.3450  142.3150 C.ar  180  PHE180     -0.0042
     58  CE1      126.0210    8.8930  142.8860 C.ar  180  PHE180     -0.0003
     59  CE2      124.7870   10.2890  141.4000 C.ar  180  PHE180     -0.0003
     60  CZ       125.3540    9.0720  141.6970 C.ar  180  PHE180     -0.0000
     61  N        126.6470   14.3330  142.1630 N.am  181  ILE181     -0.1980
     62  CA       126.7940   14.6850  140.7440 C.3   181  ILE181      0.1595
     63  C        128.2110   15.1610  140.4600 C.2   181  ILE181      0.2287
     64  O        128.7430   14.8080  139.4120 O.2   181  ILE181     -0.2864
     65  CB       125.7360   15.7310  140.2870 C.3   181  ILE181      0.0276
     66  CG1      124.3030   15.1110  140.2810 C.3   181  ILE181      0.0022
     67  CG2      126.1130   16.3190  138.8990 C.3   181  ILE181      0.0022
     68  CD1      123.1500   16.1500  140.1710 C.3   181  ILE181      0.0001
     69  N        130.9900   14.2720  142.0020 N.3   183  THR183     -0.1203
     70  CA       131.8390   13.0660  142.0570 C.3   183  THR183      0.1994
     71  C        131.6340   12.2210  140.8000 C.2   183  THR183      0.2617
     72  O        132.6200   11.7680  140.2080 O.2   183  THR183     -0.2717
     73  CB       131.5700   12.2730  143.3610 C.3   183  THR183      0.1784
     74  OG1      131.7090   13.1490  144.4780 O.3   183  THR183     -0.2211
     75  CG2      132.5120   11.0770  143.5330 C.3   183  THR183      0.0376
     76  N        130.3520   12.0330  140.3800 N.am  184  ALA184     -0.1979
     77  CA       130.0180   11.2650  139.1820 C.3   184  ALA184      0.1597
     78  C        130.6280   11.9020  137.9330 C.2   184  ALA184      0.2287
     79  O        131.1640   11.1810  137.0930 O.2   184  ALA184     -0.2864
     80  CB       128.4950   11.1390  139.0220 C.3   184  ALA184      0.0319
     81  N        134.4320   11.3850  137.8080 N.3   187  TRP187     -0.1227
     82  CA       134.6320    9.9790  137.4260 C.3   187  TRP187      0.1737
     83  C        134.3590    9.7200  135.9240 C.2   187  TRP187      0.2595
     84  O        135.0680    8.9330  135.2970 O.2   187  TRP187     -0.2718
     85  CB       133.7640    9.0830  138.3370 C.3   187  TRP187      0.0564
     86  CG       133.7830    7.6230  137.9990 C.ar  187  TRP187      0.0003
     87  CD1      134.6780    6.6860  138.4330 C.ar  187  TRP187      0.0946
     88  CD2      132.8300    6.9270  137.1850 C.ar  187  TRP187      0.0152
     89  NE1      134.3620    5.4530  137.9030 N.ar  187  TRP187     -0.2442
     90  CE2      133.2390    5.5750  137.1220 C.ar  187  TRP187      0.0810
     91  CE3      131.6910    7.3260  136.4610 C.ar  187  TRP187      0.0012
     92  CZ2      132.5310    4.6100  136.3890 C.ar  187  TRP187      0.0191
     93  CZ3      130.9850    6.3680  135.7420 C.ar  187  TRP187      0.0001
     94  CH2      131.4110    5.0300  135.7020 C.ar  187  TRP187      0.0015
     95  N        133.3770   10.4160  135.3350 N.am  188  LEU188     -0.1980
     96  CA       133.0550   10.2640  133.9080 C.3   188  LEU188      0.1596
     97  C        134.1950   10.6980  132.9600 C.2   188  LEU188      0.2287
     98  O        134.2630   10.2150  131.8460 O.2   188  LEU188     -0.2864
     99  CB       131.7280   10.9780  133.5600 C.3   188  LEU188      0.0297
    100  CG       130.4460   10.1970  133.9210 C.3   188  LEU188      0.0022
    101  CD1      129.2580   11.1180  134.0500 C.3   188  LEU188      0.0001
    102  CD2      130.1340    9.1240  132.8820 C.3   188  LEU188      0.0001
    103  N        147.6070   11.7470  134.0060 N.3   195  ARG195     -0.1245
    104  CA       147.9320   11.3860  135.3990 C.3   195  ARG195      0.1563
    105  C        149.4490   11.4260  135.5020 C.2   195  ARG195      0.2260
    106  O        150.1370   10.4850  135.0900 O.2   195  ARG195     -0.2867
    107  CB       147.3390   10.0210  135.8010 C.3   195  ARG195      0.0307
    108  CG       145.8230    9.9950  135.7530 C.3   195  ARG195      0.0489
    109  CD       145.2340    8.6710  136.1800 C.3   195  ARG195      0.2205
    110  NE       143.8940    8.4980  135.6120 N.pl3 195  ARG195     -0.0865
    111  CZ       143.0260    7.5670  135.9940 C.cat 195  ARG195      0.5346
    112  NH1      143.3320    6.7270  136.9690 N.pl3 195  ARG195      0.1354
    113  NH2      141.8360    7.4840  135.4120 N.pl3 195  ARG195      0.1354
@<TRIPOS>BOND
     1    98    97    2
     2   102   100    1
     3    97    96    1
     4    99    96    1
     5    99   100    1
     6    96    95    1
     7   100   101    1
     8   103   104    1
     9   106   105    2
    10    84    83    2
    11    95    83   am
    12   104   105    1
    13   104   107    1
    14   113   111    1
    15   110   111    2
    16   110   109    1
    17    94    93   ar
    18    94    92   ar
    19    93    91   ar
    20   108   107    1
    21   108   109    1
    22    83    82    1
    23   111   112    1
    24    92    90   ar
    25    91    88   ar
    26    79    78    2
    27    90    88   ar
    28    90    89   ar
    29    88    86   ar
    30    82    81    1
    31    82    85    1
    32    89    87   ar
    33    78    77    1
    34    86    85    1
    35    86    87   ar
    36     9     7   ar
    37     9    11   ar
    38    12    11    1
    39     7     6   ar
    40    11    10   ar
    41     6     5    1
    42     6     8   ar
    43    67    65    1
    44    10     8   ar
    45    80    77    1
    46     5     2    1
    47    77    76    1
    48    64    63    2
    49    68    66    1
    50    72    71    2
    51    66    65    1
    52    65    62    1
    53    76    71   am
    54     2     1    1
    55     2     3    1
    56    63    62    1
    57    62    61    1
    58    71    70    1
    59    27    25    1
    60    59    60   ar
    61    59    57   ar
    62     3     4    2
    63     3    13   am
    64    25    24    1
    65    60    58   ar
    66    18    17    1
    67    13    14    1
    68    69    70    1
    69    70    73    1
    70    53    52    2
    71    61    52   am
    72    57    55   ar
    73    52    51    1
    74    58    56   ar
    75    24    26    1
    76    24    21    1
    77    14    17    1
    78    14    15    1
    79    17    19    1
    80    73    75    1
    81    73    74    1
    82    55    56   ar
    83    55    54    1
    84    21    20    1
    85    21    22    1
    86    51    54    1
    87    51    50    1
    88    15    16    2
    89    22    23    2
    90    22    28   am
    91    49    47    1
    92    36    34   ar
    93    36    37   ar
    94    48    47    1
    95    28    29    1
    96    47    46    1
    97    34    33   ar
    98    39    37   ar
    99    39    41   ar
   100    37    35   ar
   101    33    35   ar
   102    33    32    1
   103    41    40   ar
   104    29    32    1
   105    29    30    1
   106    35    38   ar
   107    42    43    1
   108    46    43    1
   109    43    44    1
   110    40    38   ar
   111    30    31    2
   112    44    45    2
