@<TRIPOS>MOLECULE
tmp/6ei3A15.pdb
 119 114 0 0 0
SMALL
GASTEIGER

@<TRIPOS>ATOM
      1  N        150.0270   57.8240  145.7440 N.3   359  TRP359     -0.1241
      2  CA       150.0450   56.8160  146.8130 C.3   359  TRP359      0.1605
      3  C        149.9910   55.4470  146.1540 C.2   359  TRP359      0.2264
      4  O        148.9170   54.9950  145.7330 O.2   359  TRP359     -0.2867
      5  CB       148.8940   57.0310  147.8110 C.3   359  TRP359      0.0550
      6  CG       149.0280   56.2890  149.1120 C.ar  359  TRP359      0.0003
      7  CD1      149.6890   56.7090  150.2320 C.ar  359  TRP359      0.0946
      8  CD2      148.3800   55.0540  149.4680 C.ar  359  TRP359      0.0152
      9  NE1      149.5210   55.7930  151.2520 N.ar  359  TRP359     -0.2442
     10  CE2      148.7150   54.7760  150.8140 C.ar  359  TRP359      0.0810
     11  CE3      147.5430   54.1550  148.7810 C.ar  359  TRP359      0.0012
     12  CZ2      148.2660   53.6220  151.4740 C.ar  359  TRP359      0.0191
     13  CZ3      147.0800   53.0270  149.4420 C.ar  359  TRP359      0.0001
     14  CH2      147.4650   52.7550  150.7630 C.ar  359  TRP359      0.0015
     15  N        150.6910   49.3370  147.0010 N.3   362  THR362     -0.1218
     16  CA       151.5720   48.1560  147.0660 C.3   362  THR362      0.1862
     17  C        150.8380   46.9990  147.7140 C.2   362  THR362      0.2287
     18  O        149.8570   47.2130  148.4260 O.2   362  THR362     -0.2866
     19  CB       152.8780   48.4410  147.8490 C.3   362  THR362      0.1770
     20  OG1      152.5580   48.6540  149.2240 O.3   362  THR362     -0.2211
     21  CG2      153.7130   49.6100  147.2660 C.3   362  THR362      0.0375
     22  N        151.6470   45.1380  150.2590 N.3   364  LEU364     -0.1231
     23  CA       151.6640   45.2250  151.7240 C.3   364  LEU364      0.1693
     24  C        150.7670   46.3480  152.2660 C.2   364  LEU364      0.2591
     25  O        150.1830   46.1810  153.3400 O.2   364  LEU364     -0.2718
     26  CB       153.1000   45.3130  152.2650 C.3   364  LEU364      0.0284
     27  CG       153.9170   44.0070  152.1830 C.3   364  LEU364      0.0019
     28  CD1      155.3470   44.2400  152.6010 C.3   364  LEU364      0.0001
     29  CD2      153.2630   42.8440  152.9950 C.3   364  LEU364      0.0001
     30  N        150.5890   47.4390  151.4910 N.am  365  ARG365     -0.1980
     31  CA       149.6780   48.5380  151.8400 C.3   365  ARG365      0.1597
     32  C        148.2440   48.0650  151.7080 C.2   365  ARG365      0.2287
     33  O        147.4140   48.3990  152.5490 O.2   365  ARG365     -0.2864
     34  CB       149.8950   49.7790  150.9520 C.3   365  ARG365      0.0334
     35  CG       150.8950   50.7680  151.5380 C.3   365  ARG365      0.0492
     36  CD       151.2730   51.8180  150.5150 C.3   365  ARG365      0.2205
     37  NE       152.0360   52.9120  151.1170 N.pl3 365  ARG365     -0.0865
     38  CZ       152.4730   53.9730  150.4510 C.cat 365  ARG365      0.5346
     39  NH1      152.2090   54.1080  149.1570 N.pl3 365  ARG365      0.1354
     40  NH2      153.1630   54.9140  151.0750 N.pl3 365  ARG365      0.1354
     41  N        147.5770   45.6610  154.7910 N.3   368  THR368     -0.1203
     42  CA       147.4010   46.4190  156.0450 C.3   368  THR368      0.1994
     43  C        146.0090   47.0670  156.0550 C.2   368  THR368      0.2618
     44  O        145.2670   46.9160  157.0340 O.2   368  THR368     -0.2717
     45  CB       148.5080   47.5090  156.1640 C.3   368  THR368      0.1784
     46  OG1      149.7910   46.9150  155.9460 O.3   368  THR368     -0.2211
     47  CG2      148.4830   48.2230  157.5100 C.3   368  THR368      0.0376
     48  N        145.6560   47.7650  154.9380 N.am  369  SER369     -0.1951
     49  CA       144.3740   48.4500  154.7480 C.3   369  SER369      0.1924
     50  C        143.2150   47.4700  154.8210 C.2   369  SER369      0.2314
     51  O        142.1710   47.8150  155.3620 O.2   369  SER369     -0.2863
     52  CB       144.3460   49.1840  153.4100 C.3   369  SER369      0.2116
     53  OG       145.3800   50.1520  153.3150 O.3   369  SER369     -0.2180
     54  N        142.4930   46.4290  158.4770 N.3   372  ALA372     -0.1231
     55  CA       141.8880   47.6070  159.0860 C.3   372  ALA372      0.1694
     56  C        140.3930   47.7500  158.6950 C.2   372  ALA372      0.2592
     57  O        139.5570   47.9390  159.5820 O.2   372  ALA372     -0.2718
     58  CB       142.6730   48.8490  158.6990 C.3   372  ALA372      0.0304
     59  N        140.0560   47.5880  157.3910 N.am  373  PHE373     -0.1976
     60  CA       138.6720   47.6610  156.9150 C.3   373  PHE373      0.1639
     61  C        137.7820   46.5590  157.4780 C.2   373  PHE373      0.2290
     62  O        136.6050   46.8220  157.7340 O.2   373  PHE373     -0.2864
     63  CB       138.5800   47.7200  155.3890 C.3   373  PHE373      0.0560
     64  CG       138.6160   49.1410  154.8740 C.ar  373  PHE373     -0.0200
     65  CD1      137.4750   49.9390  154.9030 C.ar  373  PHE373     -0.0042
     66  CD2      139.7900   49.6860  154.3710 C.ar  373  PHE373     -0.0042
     67  CE1      137.5120   51.2600  154.4390 C.ar  373  PHE373     -0.0003
     68  CE2      139.8200   50.9980  153.8890 C.ar  373  PHE373     -0.0003
     69  CZ       138.6840   51.7800  153.9360 C.ar  373  PHE373     -0.0000
     70  N        136.7830   47.9200  160.7190 N.3   376  VAL376     -0.1245
     71  CA       135.7410   48.9430  160.5050 C.3   376  VAL376      0.1561
     72  C        134.3690   48.2670  160.3040 C.2   376  VAL376      0.2260
     73  O        133.3780   48.7400  160.8530 O.2   376  VAL376     -0.2867
     74  CB       136.1190   49.9330  159.3560 C.3   376  VAL376      0.0252
     75  CG1      135.0390   51.0050  159.1430 C.3   376  VAL376      0.0019
     76  CG2      137.4640   50.6010  159.6350 C.3   376  VAL376      0.0019
     77  N        142.0850   45.7900  164.4490 N.3   484  PHE484     -0.1241
     78  CA       142.8480   47.0530  164.4600 C.3   484  PHE484      0.1605
     79  C        144.2610   46.8360  164.9880 C.2   484  PHE484      0.2264
     80  O        145.2140   47.3820  164.4170 O.2   484  PHE484     -0.2867
     81  CB       142.1090   48.1430  165.2540 C.3   484  PHE484      0.0534
     82  CG       140.8370   48.6290  164.5890 C.ar  484  PHE484     -0.0203
     83  CD1      140.7980   48.8770  163.2180 C.ar  484  PHE484     -0.0042
     84  CD2      139.7110   48.9380  165.3490 C.ar  484  PHE484     -0.0042
     85  CE1      139.6300   49.3530  162.6040 C.ar  484  PHE484     -0.0003
     86  CE2      138.5440   49.4210  164.7380 C.ar  484  PHE484     -0.0003
     87  CZ       138.5070   49.6140  163.3670 C.ar  484  PHE484     -0.0000
     88  N        151.3290   46.2520  159.8170 N.3   491  GLY491     -0.1225
     89  CA       151.9100   47.4670  159.2500 C.3   491  GLY491      0.1811
     90  C        153.3220   47.7510  159.7040 C.2   491  GLY491      0.2280
     91  O        154.1470   48.2200  158.9050 O.2   491  GLY491     -0.2866
     92  N        155.4530   45.0390  157.9980 N.3   494  ALA494     -0.1231
     93  CA       155.4640   45.4080  156.5780 C.3   494  ALA494      0.1694
     94  C        156.4390   46.5480  156.3090 C.2   494  ALA494      0.2591
     95  O        157.1630   46.5040  155.3150 O.2   494  ALA494     -0.2718
     96  CB       154.0600   45.7900  156.1170 C.3   494  ALA494      0.0304
     97  N        156.5130   47.5310  157.2340 N.am  495  ARG495     -0.1980
     98  CA       157.4210   48.6700  157.1380 C.3   495  ARG495      0.1597
     99  C        158.8920   48.2400  156.9460 C.2   495  ARG495      0.2287
    100  O        159.6020   48.8510  156.1570 O.2   495  ARG495     -0.2864
    101  CB       157.2550   49.5960  158.3670 C.3   495  ARG495      0.0334
    102  CG       158.2750   50.7350  158.5060 C.3   495  ARG495      0.0492
    103  CD       158.1030   51.8300  157.4580 C.3   495  ARG495      0.2205
    104  NE       159.0670   52.9220  157.6260 N.pl3 495  ARG495     -0.0865
    105  CZ       159.0740   54.0330  156.8950 C.cat 495  ARG495      0.5346
    106  NH1      158.1710   54.2150  155.9390 N.pl3 495  ARG495      0.1354
    107  NH2      159.9820   54.9740  157.1180 N.pl3 495  ARG495      0.1354
    108  N        159.8150   45.1510  155.9000 N.3   497  TYR497     -0.1241
    109  CA       159.9140   44.0910  154.9090 C.3   497  TYR497      0.1605
    110  C        160.5870   44.5810  153.6220 C.2   497  TYR497      0.2264
    111  O        160.1980   45.6000  153.0800 O.2   497  TYR497     -0.2867
    112  CB       158.5500   43.4520  154.6140 C.3   497  TYR497      0.0534
    113  CG       158.6730   42.2480  153.7060 C.ar  497  TYR497     -0.0201
    114  CD1      159.0160   41.0000  154.2150 C.ar  497  TYR497     -0.0009
    115  CD2      158.4890   42.3660  152.3270 C.ar  497  TYR497     -0.0009
    116  CE1      159.1420   39.8920  153.3820 C.ar  497  TYR497      0.0417
    117  CE2      158.6320   41.2680  151.4840 C.ar  497  TYR497      0.0417
    118  CZ       158.9730   40.0370  152.0150 C.ar  497  TYR497      0.1957
    119  OH       159.1320   38.9570  151.1960 O.3   497  TYR497     -0.2866
@<TRIPOS>BOND
     1     4     3    2
     2     1     2    1
     3     3     2    1
     4     2     5    1
     5    15    16    1
     6    16    17    1
     7    16    19    1
     8    21    19    1
     9    17    18    2
    10     5     6    1
    11    19    20    1
    12    11    13   ar
    13    11     8   ar
    14     6     8   ar
    15     6     7   ar
    16    39    38    1
    17    13    14   ar
    18     8    10   ar
    19     7     9   ar
    20    22    23    1
    21    38    40    1
    22    38    37    2
    23    36    37    1
    24    36    35    1
    25    14    12   ar
    26    10     9   ar
    27    10    12   ar
    28    34    35    1
    29    34    31    1
    30   119   118    1
    31   117   118   ar
    32   117   115   ar
    33    30    31    1
    34    30    24   am
    35    32    31    1
    36    32    33    2
    37    23    26    1
    38    23    24    1
    39   118   116   ar
    40    27    26    1
    41    27    28    1
    42    27    29    1
    43    24    25    2
    44   115   113   ar
    45   111   110    2
    46    53    52    1
    47   116   114   ar
    48    52    49    1
    49   110   109    1
    50   113   114   ar
    51   113   112    1
    52    68    69   ar
    53    68    66   ar
    54    69    67   ar
    55    66    64   ar
    56    67    65   ar
    57   112   109    1
    58    49    50    1
    59    49    48    1
    60    41    42    1
    61    50    51    2
    62    64    65   ar
    63    64    63    1
    64   109   108    1
    65    48    43   am
    66    95    94    2
    67    63    60    1
    68   106   105    1
    69    46    45    1
    70    42    43    1
    71    42    45    1
    72    43    44    2
    73    96    93    1
    74   100    99    2
    75    45    47    1
    76    94    93    1
    77    94    97   am
    78    93    92    1
    79   105   107    1
    80   105   104    2
    81    60    59    1
    82    60    61    1
    83    99    98    1
    84    98    97    1
    85    98   101    1
    86    59    56   am
    87   103   104    1
    88   103   102    1
    89    61    62    2
    90   101   102    1
    91    54    55    1
    92    56    55    1
    93    56    57    2
    94    58    55    1
    95    91    90    2
    96    75    74    1
    97    89    90    1
    98    89    88    1
    99    74    76    1
   100    74    71    1
   101    72    71    1
   102    72    73    2
   103    71    70    1
   104    85    83   ar
   105    85    87   ar
   106    83    82   ar
   107    87    86   ar
   108    80    79    2
   109    77    78    1
   110    78    79    1
   111    78    81    1
   112    82    81    1
   113    82    84   ar
   114    86    84   ar
