@<TRIPOS>MOLECULE
tmp/6ei4A00.pdb
 163 160 0 0 0
SMALL
GASTEIGER

@<TRIPOS>ATOM
      1  N          9.9970  -15.1830   19.2770 N.3    39  HIS39      -0.1241
      2  CA         8.5820  -15.2540   18.9560 C.3    39  HIS39       0.1621
      3  C          7.8280  -16.0930   19.9790 C.2    39  HIS39       0.2264
      4  O          6.7540  -15.7100   20.4420 O.2    39  HIS39      -0.2867
      5  CB         8.3930  -15.8250   17.5500 C.3    39  HIS39       0.0745
      6  CG         6.9860  -15.7460   17.0480 C.ar   39  HIS39       0.0817
      7  ND1        6.1620  -16.8470   16.9680 N.ar   39  HIS39      -0.2268
      8  CD2        6.2590  -14.6960   16.6010 C.ar   39  HIS39       0.1154
      9  CE1        4.9850  -16.4790   16.4920 C.ar   39  HIS39       0.1986
     10  NE2        5.0190  -15.1790   16.2610 N.ar   39  HIS39      -0.2212
     11  N          0.9630  -10.8980   20.1510 N.3    57  HIS57      -0.1226
     12  CA        -0.3060  -11.2710   19.5240 C.3    57  HIS57       0.1752
     13  C         -1.5220  -10.9370   20.3710 C.2    57  HIS57       0.2595
     14  O         -1.4090  -10.6700   21.5680 O.2    57  HIS57      -0.2718
     15  CB        -0.3420  -12.7700   19.2070 C.3    57  HIS57       0.0759
     16  CG         0.8750  -13.2740   18.4900 C.ar   57  HIS57       0.0818
     17  ND1        1.9810  -13.7470   19.1530 N.ar   57  HIS57      -0.2268
     18  CD2        1.1490  -13.3710   17.1700 C.ar   57  HIS57       0.1154
     19  CE1        2.8940  -14.1210   18.2710 C.ar   57  HIS57       0.1986
     20  NE2        2.4110  -13.9050   17.0600 N.ar   57  HIS57      -0.2212
     21  N         -2.6850  -10.9840   19.7260 N.am   58  MET58      -0.1979
     22  CA        -3.9770  -10.7980   20.3820 C.3    58  MET58       0.1605
     23  C         -4.0470   -9.4670   21.1240 C.2    58  MET58       0.2287
     24  O         -4.7240   -9.3470   22.1440 O.2    58  MET58      -0.2864
     25  CB        -4.2630  -11.9600   21.3360 C.3    58  MET58       0.0413
     26  CG        -4.2150  -13.3230   20.6600 C.3    58  MET58       0.0598
     27  SD        -4.3220  -14.7120   21.8040 S.3    58  MET58      -0.1393
     28  CE        -4.6980  -16.0490   20.6750 C.3    58  MET58       0.0692
     29  N          5.8580   -7.3360   15.1520 N.3    66  HIS66      -0.1241
     30  CA         6.3390   -8.1250   14.0310 C.3    66  HIS66       0.1621
     31  C          7.1060   -7.2630   13.0440 C.2    66  HIS66       0.2264
     32  O          7.9800   -7.7590   12.3460 O.2    66  HIS66      -0.2867
     33  CB         5.1850   -8.8430   13.3320 C.3    66  HIS66       0.0745
     34  CG         4.6150   -9.9760   14.1300 C.ar   66  HIS66       0.0817
     35  ND1        3.6850   -9.7870   15.1290 N.ar   66  HIS66      -0.2268
     36  CD2        4.8680  -11.3030   14.1000 C.ar   66  HIS66       0.1154
     37  CE1        3.3710  -10.9540   15.6640 C.ar   66  HIS66       0.1986
     38  NE2        4.0790  -11.8940   15.0540 N.ar   66  HIS66      -0.2212
     39  N         -8.3500   -9.6500   21.3900 N.3   181  MET181     -0.1245
     40  CA        -9.0340  -10.4440   20.3720 C.3   181  MET181      0.1570
     41  C        -10.4850  -10.0220   20.1230 C.2   181  MET181      0.2261
     42  O        -11.0520  -10.3350   19.0760 O.2   181  MET181     -0.2867
     43  CB        -8.9820  -11.9320   20.7290 C.3   181  MET181      0.0387
     44  CG        -9.9070  -12.3600   21.8450 C.3   181  MET181      0.0595
     45  SD       -10.0310  -14.1560   21.8960 S.3   181  MET181     -0.1393
     46  CE       -10.7870  -14.4720   20.3030 C.3   181  MET181      0.0692
     47  N         -6.7940  -11.1000   12.4760 N.3   193  GLY193     -0.1210
     48  CA        -7.7090  -12.1100   11.9830 C.3   193  GLY193      0.1956
     49  C         -8.6650  -12.6980   12.9970 C.2   193  GLY193      0.2611
     50  O         -9.0370  -13.8670   12.8940 O.2   193  GLY193     -0.2717
     51  N         -9.0900  -11.8890   13.9610 N.am  194  PHE194     -0.1976
     52  CA        -9.9470  -12.3880   15.0280 C.3   194  PHE194      0.1639
     53  C        -11.4060  -11.9770   14.8580 C.2   194  PHE194      0.2290
     54  O        -12.2640  -12.3940   15.6330 O.2   194  PHE194     -0.2864
     55  CB        -9.4270  -11.9260   16.3910 C.3   194  PHE194      0.0560
     56  CG        -8.2710  -12.7390   16.9000 C.ar  194  PHE194     -0.0200
     57  CD1       -8.4450  -14.0700   17.2390 C.ar  194  PHE194     -0.0042
     58  CD2       -7.0140  -12.1770   17.0390 C.ar  194  PHE194     -0.0042
     59  CE1       -7.3870  -14.8270   17.7070 C.ar  194  PHE194     -0.0003
     60  CE2       -5.9520  -12.9290   17.5090 C.ar  194  PHE194     -0.0003
     61  CZ        -6.1390  -14.2550   17.8410 C.ar  194  PHE194     -0.0000
     62  N        -13.0410  -14.9750   13.1200 N.3   197  GLY197     -0.1210
     63  CA       -11.8330  -15.6960   12.7530 C.3   197  GLY197      0.1940
     64  C        -12.0110  -17.1860   12.5210 C.2   197  GLY197      0.2453
     65  O        -13.0210  -17.7650   12.9240 O.2   197  GLY197     -0.2732
     66  N        -11.0210  -17.8230   11.8730 N.am  198  PRO198     -0.2728
     67  CA        -9.7760  -17.2020   11.4010 C.3   198  PRO198      0.1401
     68  C         -9.8960  -16.4890   10.0530 C.2   198  PRO198      0.2269
     69  O        -10.4530  -17.0380    9.1020 O.2   198  PRO198     -0.2865
     70  CB        -8.8220  -18.3940   11.2850 C.3   198  PRO198      0.0296
     71  CG        -9.7110  -19.5380   10.9770 C.3   198  PRO198      0.0237
     72  CD       -10.9730  -19.2920   11.7600 C.3   198  PRO198      0.0939
     73  N         -4.3650  -12.7170    8.4090 N.3   201  HIS201     -0.1226
     74  CA        -3.1290  -13.2330    9.0130 C.3   201  HIS201      0.1752
     75  C         -3.2980  -14.5900    9.6990 C.2   201  HIS201      0.2596
     76  O         -2.5740  -15.5370    9.3950 O.2   201  HIS201     -0.2718
     77  CB        -2.5640  -12.2280   10.0220 C.3   201  HIS201      0.0759
     78  CG        -1.5700  -12.8220   10.9730 C.ar  201  HIS201      0.0818
     79  ND1       -1.9230  -13.2940   12.2190 N.ar  201  HIS201     -0.2268
     80  CD2       -0.2360  -13.0290   10.8580 C.ar  201  HIS201      0.1154
     81  CE1       -0.8490  -13.7610   12.8330 C.ar  201  HIS201      0.1986
     82  NE2        0.1860  -13.6120   12.0280 N.ar  201  HIS201     -0.2212
     83  N         -4.2400  -14.6710   10.6350 N.am  202  ASN202     -0.1974
     84  CA        -4.4940  -15.9150   11.3510 C.3   202  ASN202      0.1688
     85  C         -4.8900  -17.0440   10.4090 C.2   202  ASN202      0.2292
     86  O         -4.5130  -18.1990   10.6150 O.2   202  ASN202     -0.2864
     87  CB        -5.5840  -15.7200   12.4050 C.3   202  ASN202      0.1181
     88  CG        -5.0970  -14.9500   13.6180 C.2   202  ASN202      0.2629
     89  OD1       -3.8950  -14.7700   13.8140 O.2   202  ASN202     -0.2716
     90  ND2       -6.0320  -14.5080   14.4510 N.am  202  ASN202     -0.0877
     91  N         -1.7310  -18.6480    8.5380 N.3   205  HIS205     -0.1226
     92  CA        -1.0770  -19.6130    9.4210 C.3   205  HIS205      0.1752
     93  C         -1.8100  -20.9550    9.4260 C.2   205  HIS205      0.2595
     94  O         -1.2040  -22.0070    9.2220 O.2   205  HIS205     -0.2718
     95  CB        -0.9820  -19.0570   10.8420 C.3   205  HIS205      0.0759
     96  CG         0.1350  -18.0770   11.0290 C.ar  205  HIS205      0.0818
     97  ND1        1.4610  -18.4360   10.9360 N.ar  205  HIS205     -0.2268
     98  CD2        0.1210  -16.7510   11.2930 C.ar  205  HIS205      0.1154
     99  CE1        2.2190  -17.3710   11.1310 C.ar  205  HIS205      0.1986
    100  NE2        1.4270  -16.3340   11.3560 N.ar  205  HIS205     -0.2212
    101  N         -3.1180  -20.9060    9.6560 N.am  206  ARG206     -0.1980
    102  CA        -3.9370  -22.1120    9.6860 C.3   206  ARG206      0.1597
    103  C         -3.9160  -22.8310    8.3400 C.2   206  ARG206      0.2287
    104  O         -3.8340  -24.0580    8.2840 O.2   206  ARG206     -0.2864
    105  CB        -5.3770  -21.7720   10.0770 C.3   206  ARG206      0.0334
    106  CG        -5.5030  -21.0400   11.4030 C.3   206  ARG206      0.0492
    107  CD        -5.4170  -22.0030   12.5760 C.3   206  ARG206      0.2205
    108  NE        -6.2880  -23.1610   12.3970 N.pl3 206  ARG206     -0.0865
    109  CZ        -7.5550  -23.2110   12.7960 C.cat 206  ARG206      0.5346
    110  NH1       -8.1040  -22.1660   13.3990 N.pl3 206  ARG206      0.1354
    111  NH2       -8.2730  -24.3070   12.5920 N.pl3 206  ARG206      0.1354
    112  N          3.6980  -23.7410   11.0150 N.3   212  MET212     -0.1230
    113  CA         3.0560  -22.4470   10.8010 C.3   212  MET212      0.1702
    114  C          1.6810  -22.3880   11.4590 C.2   212  MET212      0.2593
    115  O          1.1490  -21.3080   11.7110 O.2   212  MET212     -0.2718
    116  CB         2.9300  -22.1490    9.3050 C.3   212  MET212      0.0401
    117  CG         4.1530  -21.4780    8.6980 C.3   212  MET212      0.0596
    118  SD         4.2680  -19.7270    9.1320 S.3   212  MET212     -0.1393
    119  CE         3.1110  -19.0110    7.9690 C.3   212  MET212      0.0692
    120  N          1.1160  -23.5570   11.7410 N.am  213  GLY213     -0.1942
    121  CA        -0.2110  -23.6560   12.3190 C.3   213  GLY213      0.2014
    122  C         -0.2940  -23.4230   13.8170 C.2   213  GLY213      0.2639
    123  O         -1.3930  -23.3240   14.3600 O.2   213  GLY213     -0.2714
    124  N          0.8490  -23.3720   14.5000 N.am  214  VAL214     -0.1963
    125  CA         0.8510  -23.0380   15.9260 C.3   214  VAL214      0.1727
    126  C          1.8510  -21.9120   16.1980 C.2   214  VAL214      0.2616
    127  O          2.9240  -21.8500   15.5890 O.2   214  VAL214     -0.2715
    128  CB         1.1620  -24.2710   16.8270 C.3   214  VAL214      0.0290
    129  CG1        0.4100  -25.5000   16.3360 C.3   214  VAL214      0.0023
    130  CG2        2.6470  -24.5550   16.8960 C.3   214  VAL214      0.0023
    131  N          1.4430  -21.0180   17.0930 N.am  215  VAL215     -0.1977
    132  CA         2.1900  -19.8220   17.4680 C.3   215  VAL215      0.1596
    133  C          3.6530  -19.9570   17.8820 C.2   215  VAL215      0.2287
    134  O          4.4940  -19.1930   17.4070 O.2   215  VAL215     -0.2864
    135  CB         1.4530  -19.0440   18.5800 C.3   215  VAL215      0.0276
    136  CG1        1.9310  -17.6010   18.6220 C.3   215  VAL215      0.0022
    137  CG2       -0.0510  -19.1090   18.3640 C.3   215  VAL215      0.0022
    138  N          5.8240  -21.4810   14.5950 N.3   218  ALA218     -0.1245
    139  CA         5.6130  -20.9490   13.2440 C.3   218  ALA218      0.1562
    140  C          6.8810  -20.4340   12.5350 C.2   218  ALA218      0.2260
    141  O          7.0570  -20.6960   11.3440 O.2   218  ALA218     -0.2867
    142  CB         4.5570  -19.8530   13.2780 C.3   218  ALA218      0.0290
    143  N          7.2670  -17.8590    7.0370 N.3   224  PHE224     -0.1241
    144  CA         6.6870  -17.0570    8.1120 C.3   224  PHE224      0.1605
    145  C          7.0560  -15.5960    7.9140 C.2   224  PHE224      0.2264
    146  O          6.2400  -14.7000    8.1280 O.2   224  PHE224     -0.2867
    147  CB         7.1780  -17.5640    9.4820 C.3   224  PHE224      0.0534
    148  CG         6.8370  -16.6640   10.6500 C.ar  224  PHE224     -0.0203
    149  CD1        7.6140  -15.5530   10.9540 C.ar  224  PHE224     -0.0042
    150  CD2        5.7470  -16.9450   11.4560 C.ar  224  PHE224     -0.0042
    151  CE1        7.2980  -14.7390   12.0280 C.ar  224  PHE224     -0.0003
    152  CE2        5.4280  -16.1330   12.5320 C.ar  224  PHE224     -0.0003
    153  CZ         6.2060  -15.0300   12.8170 C.ar  224  PHE224     -0.0000
    154  N          4.6150  -12.4280    7.0360 N.3   228  HIS228     -0.1241
    155  CA         4.4760  -11.2370    7.8640 C.3   228  HIS228      0.1621
    156  C          4.9510   -9.9820    7.1450 C.2   228  HIS228      0.2264
    157  O          4.5130   -8.8810    7.4700 O.2   228  HIS228     -0.2867
    158  CB         5.2160  -11.4150    9.1900 C.3   228  HIS228      0.0745
    159  CG         4.3780  -12.0530   10.2480 C.ar  228  HIS228      0.0817
    160  ND1        3.4710  -11.3430   11.0090 N.ar  228  HIS228     -0.2268
    161  CD2        4.2750  -13.3440   10.6500 C.ar  228  HIS228      0.1154
    162  CE1        2.8580  -12.1680   11.8390 C.ar  228  HIS228      0.1986
    163  NE2        3.3300  -13.3830   11.6460 N.ar  228  HIS228     -0.2212
@<TRIPOS>BOND
     1   154   155    1
     2   143   144    1
     3   156   157    2
     4   156   155    1
     5   155   158    1
     6   145   144    1
     7   145   146    2
     8   119   118    1
     9   144   147    1
    10   104   103    2
    11   103   102    1
    12    73    74    1
    13    91    92    1
    14   117   118    1
    15   117   116    1
    16    74    75    1
    17    74    77    1
    18    69    68    2
    19   158   159    1
    20    94    93    2
    21   116   113    1
    22    76    75    2
    23    92    93    1
    24    92    95    1
    25    93   101   am
    26   147   148    1
    27   101   102    1
    28   102   105    1
    29    75    83   am
    30    77    78    1
    31    68    67    1
    32   105   106    1
    33   159   161   ar
    34   159   160   ar
    35    85    86    2
    36    85    84    1
    37    83    84    1
    38   148   149   ar
    39   148   150   ar
    40   161   163   ar
    41   113   112    1
    42   113   114    1
    43    95    96    1
    44    80    78   ar
    45    80    82   ar
    46    97    96   ar
    47    97    99   ar
    48   149   151   ar
    49    78    79   ar
    50    71    70    1
    51    71    72    1
    52   160   162   ar
    53    96    98   ar
    54    99   100   ar
    55    70    67    1
    56    98   100   ar
    57   141   140    2
    58    84    87    1
    59    67    66    1
    60   106   107    1
    61   150   152   ar
    62   114   115    2
    63   114   120   am
    64   163   162   ar
    65   120   121    1
    66    72    66    1
    67    66    64   am
    68    48    47    1
    69    48    49    1
    70    82    81   ar
    71   151   153   ar
    72    79    81   ar
    73   121   122    1
    74    32    31    2
    75   108   107    1
    76   108   109    2
    77    87    88    1
    78    64    63    1
    79    64    65    2
    80   152   153   ar
    81   140   139    1
    82   111   109    1
    83    63    62    1
    84   109   110    1
    85    50    49    2
    86    49    51   am
    87    31    30    1
    88   139   142    1
    89   139   138    1
    90    33    30    1
    91    33    34    1
    92    88    89    2
    93    88    90   am
    94   122   123    2
    95   122   124   am
    96    51    52    1
    97    30    29    1
    98    36    34   ar
    99    36    38   ar
   100    34    35   ar
   101   124   125    1
   102    53    52    1
   103    53    54    2
   104    52    55    1
   105    38    37   ar
   106    35    37   ar
   107   127   126    2
   108   125   126    1
   109   125   128    1
   110   126   131   am
   111    10     9   ar
   112    10     8   ar
   113   129   128    1
   114    55    56    1
   115     9     7   ar
   116     8     6   ar
   117   128   130    1
   118    56    58   ar
   119    56    57   ar
   120     7     6   ar
   121    58    60   ar
   122     6     5    1
   123    20    18   ar
   124    20    19   ar
   125   131   132    1
   126    18    16   ar
   127    57    59   ar
   128   134   133    2
   129   132   133    1
   130   132   135    1
   131    60    61   ar
   132     5     2    1
   133    59    61   ar
   134    19    17   ar
   135   137   135    1
   136    16    17   ar
   137    16    15    1
   138   135   136    1
   139     2     1    1
   140     2     3    1
   141    42    41    2
   142    15    12    1
   143    12    11    1
   144    12    13    1
   145    21    13   am
   146    21    22    1
   147     3     4    2
   148    41    40    1
   149    46    45    1
   150    13    14    2
   151    40    43    1
   152    40    39    1
   153    22    23    1
   154    22    25    1
   155    26    25    1
   156    26    27    1
   157    28    27    1
   158    43    44    1
   159    23    24    2
   160    44    45    1
