@<TRIPOS>MOLECULE
tmp/6ei5A00.pdb
 170 160 0 0 0
SMALL
GASTEIGER

@<TRIPOS>ATOM
      1  N        -34.6410  -12.0570  -16.4190 N.3    34  LEU34      -0.1245
      2  CA       -35.3120  -12.6610  -17.5550 C.3    34  LEU34       0.1561
      3  C        -36.6120  -11.9200  -17.9080 C.2    34  LEU34       0.2260
      4  O        -36.8000  -11.6110  -19.0820 O.2    34  LEU34      -0.2867
      5  CB       -35.5290  -14.1820  -17.3450 C.3    34  LEU34       0.0270
      6  CG       -34.2450  -15.0590  -17.2180 C.3    34  LEU34       0.0019
      7  CD1      -34.6100  -16.5360  -17.1340 C.3    34  LEU34       0.0001
      8  CD2      -33.2320  -14.8340  -18.4070 C.3    34  LEU34       0.0001
      9  N        -35.7410   -8.5660  -19.3900 N.3    37  ASN37      -0.1225
     10  CA       -35.3040   -8.7210  -20.7860 C.3    37  ASN37       0.1785
     11  C        -36.5270   -8.9010  -21.6700 C.2    37  ASN37       0.2597
     12  O        -36.5810   -8.3280  -22.7630 O.2    37  ASN37      -0.2718
     13  CB       -34.3530   -9.9100  -20.9690 C.3    37  ASN37       0.1169
     14  CG       -32.9240   -9.7040  -20.4930 C.2    37  ASN37       0.2627
     15  OD1      -32.4800   -8.5970  -20.1680 O.2    37  ASN37      -0.2716
     16  ND2      -32.1710  -10.7840  -20.4280 N.am   37  ASN37      -0.0877
     17  N        -37.5210   -9.6750  -21.1830 N.am   38  SER38      -0.1952
     18  CA       -38.7590   -9.9200  -21.9080 C.3    38  SER38       0.1924
     19  C        -39.5420   -8.5980  -22.0970 C.2    38  SER38       0.2314
     20  O        -39.9980   -8.3240  -23.2100 O.2    38  SER38      -0.2863
     21  CB       -39.6020  -10.9690  -21.1900 C.3    38  SER38       0.2116
     22  OG       -39.1520  -12.2930  -21.4460 O.3    38  SER38      -0.2180
     23  N        -38.3110   -5.5330  -22.1570 N.3    40  ASP40      -0.1225
     24  CA       -37.5520   -4.7470  -23.1350 C.3    40  ASP40       0.1805
     25  C        -37.8260   -5.2090  -24.5730 C.2    40  ASP40       0.2597
     26  O        -37.9880   -4.3580  -25.4430 O.2    40  ASP40      -0.2718
     27  CB       -36.0370   -4.7800  -22.8350 C.3    40  ASP40       0.1424
     28  CG       -35.5800   -4.1520  -21.5200 C.2    40  ASP40       0.3668
     29  OD1      -36.4250   -3.5440  -20.8180 O.co2  40  ASP40      -0.2456
     30  OD2      -34.3780   -4.2810  -21.1880 O.co2  40  ASP40      -0.2456
     31  N        -37.8930   -6.5510  -24.8170 N.am   41  ALA41      -0.1979
     32  CA       -38.1860   -7.1410  -26.1330 C.3    41  ALA41       0.1597
     33  C        -39.5920   -6.7400  -26.5870 C.2    41  ALA41       0.2287
     34  O        -39.8130   -6.4800  -27.7760 O.2    41  ALA41      -0.2864
     35  CB       -38.0560   -8.6590  -26.0780 C.3    41  ALA41       0.0319
     36  N        -39.5460   -2.9460  -27.5390 N.3    44  LYS44      -0.1245
     37  CA       -38.9340   -2.8210  -28.8580 C.3    44  LYS44       0.1561
     38  C        -39.9080   -3.1240  -29.9990 C.2    44  LYS44       0.2260
     39  O        -39.9350   -2.3730  -30.9780 O.2    44  LYS44      -0.2867
     40  CB       -37.6460   -3.6530  -28.9800 C.3    44  LYS44       0.0271
     41  CG       -36.6530   -3.0360  -29.9640 C.3    44  LYS44       0.0035
     42  CD       -35.5830   -4.0090  -30.4420 C.3    44  LYS44       0.0206
     43  CE       -34.7900   -3.4450  -31.6010 C.3    44  LYS44       0.1093
     44  NZ       -33.8690   -4.4560  -32.1880 N.3    44  LYS44      -0.1314
     45  N        -41.9080  -14.7250  -24.1050 N.3    79  ASP79      -0.1239
     46  CA       -42.3950  -13.3850  -24.4310 C.3    79  ASP79       0.1674
     47  C        -42.7440  -13.3120  -25.9100 C.2    79  ASP79       0.2266
     48  O        -42.2320  -14.0990  -26.6990 O.2    79  ASP79      -0.2867
     49  CB       -41.4220  -12.2720  -24.0180 C.3    79  ASP79       0.1410
     50  CG       -40.0910  -12.2930  -24.7490 C.2    79  ASP79       0.3668
     51  OD1      -40.0560  -11.8950  -25.9300 O.co2  79  ASP79      -0.2456
     52  OD2      -39.0820  -12.6490  -24.1220 O.co2  79  ASP79      -0.2456
     53  N        -39.7160   -8.7260  -29.6070 N.3    82  ILE82      -0.1231
     54  CA       -39.0550   -8.5500  -30.9110 C.3    82  ILE82       0.1692
     55  C        -38.4180   -9.8570  -31.4240 C.2    82  ILE82       0.2593
     56  O        -38.5030  -10.1500  -32.6130 O.2    82  ILE82      -0.2718
     57  CB       -38.0590   -7.3410  -30.9110 C.3    82  ILE82       0.0266
     58  CG1      -37.4020   -7.0930  -32.2960 C.3    82  ILE82       0.0019
     59  CG2      -37.0060   -7.4430  -29.8180 C.3    82  ILE82       0.0020
     60  CD1      -38.1870   -6.2880  -33.2730 C.3    82  ILE82       0.0001
     61  N        -37.8340  -10.6410  -30.5300 N.am   83  GLY83      -0.1942
     62  CA       -37.1780  -11.8800  -30.9240 C.3    83  GLY83       0.2014
     63  C        -35.7790  -11.5970  -31.4220 C.2    83  GLY83       0.2638
     64  O        -35.3580  -10.4360  -31.4900 O.2    83  GLY83      -0.2714
     65  N        -35.0490  -12.6470  -31.7820 N.am   84  MET84      -0.1976
     66  CA       -33.6600  -12.5030  -32.2320 C.3    84  MET84       0.1605
     67  C        -33.3940  -13.1550  -33.5810 C.2    84  MET84       0.2287
     68  O        -33.9110  -14.2400  -33.8390 O.2    84  MET84      -0.2864
     69  CB       -32.7100  -13.1240  -31.1830 C.3    84  MET84       0.0413
     70  CG       -32.6170  -12.3500  -29.8850 C.3    84  MET84       0.0598
     71  SD       -31.6410  -13.1910  -28.6160 S.3    84  MET84      -0.1393
     72  CE       -32.8280  -14.3740  -28.0440 C.3    84  MET84       0.0692
     73  N        -28.1120  -11.8230  -34.2410 N.3    88  ASP88      -0.1225
     74  CA       -28.3520  -11.3980  -32.8600 C.3    88  ASP88       0.1805
     75  C        -27.7820  -12.4090  -31.8690 C.2    88  ASP88       0.2597
     76  O        -27.0710  -12.0250  -30.9400 O.2    88  ASP88      -0.2718
     77  CB       -29.8500  -11.2090  -32.6020 C.3    88  ASP88       0.1424
     78  CG       -30.4540   -9.9500  -33.1740 C.2    88  ASP88       0.3668
     79  OD1      -29.7310   -8.9330  -33.2700 O.co2  88  ASP88      -0.2456
     80  OD2      -31.6630   -9.9620  -33.4770 O.co2  88  ASP88      -0.2456
     81  N        -28.0650  -13.7000  -32.0880 N.am   89  LEU89      -0.1979
     82  CA       -27.5940  -14.7800  -31.2230 C.3    89  LEU89       0.1596
     83  C        -26.0960  -14.9820  -31.2650 C.2    89  LEU89       0.2287
     84  O        -25.4980  -15.2500  -30.2240 O.2    89  LEU89      -0.2864
     85  CB       -28.2690  -16.1060  -31.5990 C.3    89  LEU89       0.0297
     86  CG       -29.7300  -16.2810  -31.2810 C.3    89  LEU89       0.0022
     87  CD1      -30.2750  -17.4730  -32.0360 C.3    89  LEU89       0.0001
     88  CD2      -29.9710  -16.4040  -29.7640 C.3    89  LEU89       0.0001
     89  N        -24.1570  -10.0720  -32.3250 N.3    92  ASN92      -0.1225
     90  CA       -24.7280   -8.9740  -31.5380 C.3    92  ASN92       0.1785
     91  C        -24.7800   -9.2220  -30.0190 C.2    92  ASN92       0.2597
     92  O        -24.4120   -8.3060  -29.2800 O.2    92  ASN92      -0.2718
     93  CB       -26.1040   -8.5660  -32.0720 C.3    92  ASN92       0.1169
     94  CG       -26.1050   -8.1620  -33.5280 C.2    92  ASN92       0.2627
     95  OD1      -25.0590   -8.1170  -34.1920 O.2    92  ASN92      -0.2716
     96  ND2      -27.2840   -7.8750  -34.0620 N.am   92  ASN92      -0.0877
     97  N        -25.2160  -10.4280  -29.5480 N.am   93  LEU93      -0.1980
     98  CA       -25.2430  -10.7170  -28.1050 C.3    93  LEU93       0.1596
     99  C        -23.8300  -10.8480  -27.5510 C.2    93  LEU93       0.2287
    100  O        -23.5860  -10.4480  -26.4150 O.2    93  LEU93      -0.2864
    101  CB       -26.0810  -11.9620  -27.7300 C.3    93  LEU93       0.0297
    102  CG       -27.6150  -11.8650  -27.8560 C.3    93  LEU93       0.0022
    103  CD1      -28.2360  -13.2260  -27.8030 C.3    93  LEU93       0.0001
    104  CD2      -28.2250  -10.9390  -26.8310 C.3    93  LEU93       0.0001
    105  N        -22.2560   -7.0150  -27.2200 N.3    96  ILE96      -0.1245
    106  CA       -22.9110   -6.2040  -26.1790 C.3    96  ILE96       0.1561
    107  C        -22.4940   -6.6960  -24.7830 C.2    96  ILE96       0.2260
    108  O        -22.1710   -5.8770  -23.9130 O.2    96  ILE96      -0.2867
    109  CB       -24.4570   -6.0380  -26.3450 C.3    96  ILE96       0.0252
    110  CG1      -25.2390   -7.3730  -26.2370 C.3    96  ILE96       0.0019
    111  CG2      -24.7990   -5.2990  -27.6330 C.3    96  ILE96       0.0019
    112  CD1      -25.9960   -7.5540  -24.9080 C.3    96  ILE96       0.0001
    113  N        -29.0550  -11.7070  -18.1610 N.3   124  PHE124     -0.1227
    114  CA       -29.3970  -13.0260  -18.7060 C.3   124  PHE124      0.1736
    115  C        -28.5750  -14.1640  -18.0890 C.2   124  PHE124      0.2595
    116  O        -29.1330  -15.2070  -17.7510 O.2   124  PHE124     -0.2718
    117  CB       -29.2220  -13.0480  -20.2550 C.3   124  PHE124      0.0547
    118  CG       -29.3420  -14.4380  -20.8540 C.ar  124  PHE124     -0.0202
    119  CD1      -30.5810  -14.9550  -21.2050 C.ar  124  PHE124     -0.0042
    120  CD2      -28.2210  -15.2680  -20.9670 C.ar  124  PHE124     -0.0042
    121  CE1      -30.7010  -16.2600  -21.6830 C.ar  124  PHE124     -0.0003
    122  CE2      -28.3430  -16.5820  -21.4420 C.ar  124  PHE124     -0.0003
    123  CZ       -29.5700  -17.0530  -21.8380 C.ar  124  PHE124     -0.0000
    124  N        -27.2480  -13.9770  -17.9830 N.am  125  TYR125     -0.1976
    125  CA       -26.3230  -15.0060  -17.5040 C.3   125  TYR125      0.1639
    126  C        -26.5470  -15.3950  -16.0260 C.2   125  TYR125      0.2290
    127  O        -26.1330  -16.4920  -15.6290 O.2   125  TYR125     -0.2864
    128  CB       -24.8700  -14.6190  -17.8200 C.3   125  TYR125      0.0560
    129  CG       -24.6820  -14.4040  -19.3100 C.ar  125  TYR125     -0.0198
    130  CD1      -24.4420  -15.4800  -20.1680 C.ar  125  TYR125     -0.0009
    131  CD2      -24.8380  -13.1390  -19.8780 C.ar  125  TYR125     -0.0009
    132  CE1      -24.3050  -15.2900  -21.5490 C.ar  125  TYR125      0.0417
    133  CE2      -24.7190  -12.9410  -21.2560 C.ar  125  TYR125      0.0417
    134  CZ       -24.4400  -14.0170  -22.0850 C.ar  125  TYR125      0.1957
    135  OH       -24.3210  -13.8100  -23.4380 O.3   125  TYR125     -0.2866
    136  N        -32.6140  -21.5040  -25.6420 N.3   136  VAL136     -0.1245
    137  CA       -33.3380  -20.3110  -26.0750 C.3   136  VAL136      0.1561
    138  C        -33.9040  -20.5310  -27.4680 C.2   136  VAL136      0.2260
    139  O        -33.1320  -20.7370  -28.4010 O.2   136  VAL136     -0.2867
    140  CB       -32.4930  -19.0070  -25.9750 C.3   136  VAL136      0.0252
    141  CG1      -33.2890  -17.7960  -26.4360 C.3   136  VAL136      0.0019
    142  CG2      -31.9620  -18.7900  -24.5660 C.3   136  VAL136      0.0019
    143  N        -30.8180  -21.7200  -29.5590 N.3   148  TRP148     -0.1241
    144  CA       -29.5230  -21.4560  -28.9240 C.3   148  TRP148      0.1605
    145  C        -29.4880  -22.3360  -27.6830 C.2   148  TRP148      0.2264
    146  O        -30.5170  -22.5250  -27.0420 O.2   148  TRP148     -0.2867
    147  CB       -29.4220  -19.9830  -28.5180 C.3   148  TRP148      0.0550
    148  CG       -28.1560  -19.5520  -27.8200 C.ar  148  TRP148      0.0003
    149  CD1      -27.1040  -18.8880  -28.3840 C.ar  148  TRP148      0.0946
    150  CD2      -27.8920  -19.5830  -26.3930 C.ar  148  TRP148      0.0152
    151  NE1      -26.2020  -18.5120  -27.4120 N.ar  148  TRP148     -0.2442
    152  CE2      -26.6370  -18.9640  -26.1890 C.ar  148  TRP148      0.0810
    153  CE3      -28.5860  -20.1010  -25.2710 C.ar  148  TRP148      0.0012
    154  CZ2      -26.0690  -18.8270  -24.9150 C.ar  148  TRP148      0.0191
    155  CZ3      -28.0160  -19.9820  -24.0140 C.ar  148  TRP148      0.0001
    156  CH2      -26.7640  -19.3620  -23.8460 C.ar  148  TRP148      0.0015
    157  N        -39.4140  -14.7560  -27.8490 N.3   170  THR170     -0.1218
    158  CA       -38.3050  -15.5360  -27.2910 C.3   170  THR170      0.1862
    159  C        -38.8570  -16.4180  -26.1770 C.2   170  THR170      0.2287
    160  O        -39.6940  -15.9770  -25.3830 O.2   170  THR170     -0.2866
    161  CB       -37.1440  -14.5910  -26.9000 C.3   170  THR170      0.1770
    162  OG1      -36.6880  -13.9200  -28.0730 O.3   170  THR170     -0.2211
    163  CG2      -35.9770  -15.2900  -26.1910 C.3   170  THR170      0.0375
    164  N        -37.1750  -18.7760  -23.1920 N.3   172  VAL172     -0.1245
    165  CA       -35.9930  -19.1050  -22.3800 C.3   172  VAL172      0.1561
    166  C        -36.3590  -20.2910  -21.4790 C.2   172  VAL172      0.2260
    167  O        -37.1530  -20.1330  -20.5630 O.2   172  VAL172     -0.2867
    168  CB       -35.3790  -17.8970  -21.5890 C.3   172  VAL172      0.0252
    169  CG1      -34.1760  -18.3360  -20.7320 C.3   172  VAL172      0.0019
    170  CG2      -34.9580  -16.7720  -22.5380 C.3   172  VAL172      0.0019
@<TRIPOS>BOND
     1    73    74    1
     2    95    94    2
     3    96    94   am
     4    68    67    2
     5    67    66    1
     6    94    93    1
     7    80    78   ar
     8    60    58    1
     9    79    78   ar
    10    78    77    1
    11    74    77    1
    12    74    75    1
    13    56    55    2
    14    89    90    1
    15    58    57    1
    16    66    65    1
    17    66    69    1
    18    44    43    1
    19    81    75   am
    20    81    82    1
    21    93    90    1
    22    87    86    1
    23    75    76    2
    24    65    63   am
    25    43    42    1
    26    85    86    1
    27    85    82    1
    28    90    91    1
    29    64    63    2
    30    55    54    1
    31    55    61   am
    32    63    62    1
    33    86    88    1
    34    83    82    1
    35    83    84    2
    36    69    70    1
    37    39    38    2
    38    62    61    1
    39    54    57    1
    40    54    53    1
    41    57    59    1
    42    42    41    1
    43    91    97   am
    44    91    92    2
    45    38    37    1
    46    41    40    1
    47    70    71    1
    48   143   144    1
    49    97    98    1
    50    40    37    1
    51   144   147    1
    52   144   145    1
    53    37    36    1
    54    71    72    1
    55   147   148    1
    56   139   138    2
    57   149   148   ar
    58   149   151   ar
    59    98   101    1
    60    98    99    1
    61   162   161    1
    62   102   103    1
    63   102   101    1
    64   102   104    1
    65   157   158    1
    66   148   150   ar
    67    34    33    2
    68   145   146    2
    69   111   109    1
    70    99   100    2
    71   138   137    1
    72   151   152   ar
    73   158   161    1
    74   158   159    1
    75   105   106    1
    76   161   163    1
    77    48    47    2
    78    33    32    1
    79   141   140    1
    80   150   152   ar
    81   150   153   ar
    82   109   110    1
    83   109   106    1
    84   110   112    1
    85   152   154   ar
    86   106   107    1
    87   159   160    2
    88    32    35    1
    89    32    31    1
    90   137   140    1
    91   137   136    1
    92   140   142    1
    93    51    50   ar
    94    47    46    1
    95    26    25    2
    96   153   155   ar
    97   154   156   ar
    98    31    25   am
    99   107   108    2
   100    50    52   ar
   101    50    49    1
   102    25    24    1
   103    46    45    1
   104    46    49    1
   105   155   156   ar
   106   135   134    1
   107    20    19    2
   108   164   165    1
   109    24    27    1
   110    24    23    1
   111    27    28    1
   112    12    11    2
   113   170   168    1
   114   165   168    1
   115   165   166    1
   116    19    18    1
   117   134   132   ar
   118   134   133   ar
   119    18    21    1
   120    18    17    1
   121   123   121   ar
   122   123   122   ar
   123   121   119   ar
   124    11    17   am
   125    11    10    1
   126   168   169    1
   127   132   130   ar
   128    28    30   ar
   129    28    29   ar
   130   166   167    2
   131    22    21    1
   132   122   120   ar
   133   133   131   ar
   134   119   118   ar
   135    13    10    1
   136    13    14    1
   137   120   118   ar
   138   118   117    1
   139    10     9    1
   140    14    16   am
   141    14    15    2
   142   117   114    1
   143   130   129   ar
   144   131   129   ar
   145   129   128    1
   146     4     3    2
   147   114   113    1
   148   114   115    1
   149     8     6    1
   150   115   124   am
   151   115   116    2
   152   124   125    1
   153     3     2    1
   154   128   125    1
   155     2     5    1
   156     2     1    1
   157   125   126    1
   158     5     6    1
   159     6     7    1
   160   126   127    2
