@<TRIPOS>MOLECULE
tmp/6ei9B00.pdb
 213 203 0 0 0
SMALL
GASTEIGER

@<TRIPOS>ATOM
      1  N         -5.0430   42.3620    3.5300 N.3    21  ALA21      -0.1231
      2  CA        -6.0170   41.7910    2.6090 C.3    21  ALA21       0.1679
      3  C         -7.0620   40.9110    3.2710 C.2    21  ALA21       0.2434
      4  O         -6.6960   40.1460    4.1560 O.2    21  ALA21      -0.2733
      5  CB        -5.2970   40.9930    1.5200 C.3    21  ALA21       0.0304
      6  N         -8.3440   40.9170    2.8060 N.am   22  PRO22      -0.2718
      7  CA        -9.3220   39.9480    3.3620 C.3    22  PRO22       0.1535
      8  C         -8.9770   38.5420    2.8430 C.2    22  PRO22       0.2598
      9  O         -8.6490   38.3940    1.6750 O.2    22  PRO22      -0.2715
     10  CB       -10.6660   40.4300    2.7990 C.3    22  PRO22       0.0310
     11  CG       -10.3290   41.1910    1.5610 C.3    22  PRO22       0.0237
     12  CD        -8.9320   41.7210    1.7070 C.3    22  PRO22       0.0939
     13  N         -8.9480   37.5390    3.6980 N.am   23  MET23      -0.1964
     14  CA        -8.6090   36.1730    3.2950 C.3    23  MET23       0.1736
     15  C         -9.4630   35.1840    4.0560 C.2    23  MET23       0.2616
     16  O         -9.1190   34.8210    5.1800 O.2    23  MET23      -0.2715
     17  CB        -7.1110   35.8710    3.4810 C.3    23  MET23       0.0427
     18  CG        -6.2380   36.5260    2.4630 C.3    23  MET23       0.0599
     19  SD        -4.5210   36.5140    2.9600 S.3    23  MET23      -0.1393
     20  CE        -4.0390   34.9850    2.2600 C.3    23  MET23       0.0692
     21  N        -10.5920   34.7730    3.4490 N.am   24  ALA24      -0.1977
     22  CA       -11.5650   33.8150    3.9820 C.3    24  ALA24       0.1597
     23  C        -10.8680   32.5600    4.5460 C.2    24  ALA24       0.2287
     24  O        -10.0740   31.9240    3.8420 O.2    24  ALA24      -0.2864
     25  CB       -12.5650   33.4410    2.8960 C.3    24  ALA24       0.0319
     26  N         -8.4390   32.5110    6.7830 N.3    26  ILE26      -0.1245
     27  CA        -7.1940   33.0300    7.3630 C.3    26  ILE26       0.1561
     28  C         -7.4150   34.2350    8.3130 C.2    26  ILE26       0.2260
     29  O         -6.8500   34.2830    9.4020 O.2    26  ILE26      -0.2867
     30  CB        -6.2250   33.4760    6.2240 C.3    26  ILE26       0.0252
     31  CG1       -6.2590   32.5470    4.9520 C.3    26  ILE26       0.0019
     32  CG2       -4.7990   33.6950    6.7340 C.3    26  ILE26       0.0019
     33  CD1       -5.7690   31.1590    5.0470 C.3    26  ILE26       0.0001
     34  N        -14.7630   39.1330    6.9220 N.3    46  GLU46      -0.1245
     35  CA       -15.8590   38.4460    6.2230 C.3    46  GLU46       0.1567
     36  C        -17.2320   38.8000    6.8250 C.2    46  GLU46       0.2260
     37  O        -17.3250   39.0780    8.0200 O.2    46  GLU46      -0.2867
     38  CB       -15.6870   36.9310    6.4010 C.3    46  GLU46       0.0388
     39  CG       -14.8950   36.2050    5.3300 C.3    46  GLU46       0.1160
     40  CD       -14.8020   34.7130    5.6010 C.2    46  GLU46       0.3649
     41  OE1      -15.6490   33.9590    5.0690 O.co2  46  GLU46      -0.2457
     42  OE2      -13.9230   34.3050    6.3960 O.co2  46  GLU46      -0.2457
     43  N        -16.3100   42.7470    4.4090 N.3    57  GLN57      -0.1245
     44  CA       -16.4980   42.4190    3.0020 C.3    57  GLN57       0.1566
     45  C        -17.6880   41.4730    2.7060 C.2    57  GLN57       0.2260
     46  O        -17.8040   40.3900    3.2880 O.2    57  GLN57      -0.2867
     47  CB       -15.2120   41.8680    2.4040 C.3    57  GLN57       0.0367
     48  CG       -15.1770   41.9620    0.8840 C.3    57  GLN57       0.0905
     49  CD       -14.1600   41.0190    0.3290 C.2    57  GLN57       0.2608
     50  OE1      -14.1600   39.8450    0.6730 O.2    57  GLN57      -0.2717
     51  NE2      -13.2910   41.4950   -0.5580 N.am   57  GLN57      -0.0878
     52  N        -16.7130   42.0570   -2.6970 N.3    84  ASN84      -0.1240
     53  CA       -15.8250   41.1090   -3.3560 C.3    84  ASN84       0.1653
     54  C        -16.2010   40.9000   -4.8420 C.2    84  ASN84       0.2266
     55  O        -17.2410   40.3070   -5.1530 O.2    84  ASN84      -0.2867
     56  CB       -15.8090   39.7650   -2.6020 C.3    84  ASN84       0.1155
     57  CG       -14.8680   38.7050   -3.1540 C.2    84  ASN84       0.2627
     58  OD1      -14.1650   38.8940   -4.1430 O.2    84  ASN84      -0.2716
     59  ND2      -14.8360   37.5590   -2.5140 N.am   84  ASN84      -0.0877
     60  N        -13.3530   40.0490   -6.8370 N.3    86  GLY86      -0.1210
     61  CA       -12.0150   39.5980   -7.1450 C.3    86  GLY86       0.1956
     62  C        -11.7600   38.1160   -7.1630 C.2    86  GLY86       0.2612
     63  O        -11.0470   37.6550   -8.0590 O.2    86  GLY86      -0.2717
     64  N        -12.3080   37.3560   -6.1900 N.am   87  CYS87      -0.1970
     65  CA       -12.0940   35.9020   -6.0760 C.3    87  CYS87       0.1712
     66  C        -12.4110   35.1360   -7.3630 C.2    87  CYS87       0.2296
     67  O        -13.4870   35.3140   -7.9280 O.2    87  CYS87      -0.2864
     68  CB       -12.8250   35.3220   -4.8730 C.3    87  CYS87       0.0983
     69  SG       -12.0720   35.7580   -3.2850 S.3    87  CYS87      -0.0798
     70  N        -15.2430   31.7430   -6.7070 N.3    90  LYS90      -0.1245
     71  CA       -16.1670   31.9560   -5.6100 C.3    90  LYS90       0.1561
     72  C        -17.6160   31.7370   -5.9990 C.2    90  LYS90       0.2260
     73  O        -18.1020   32.3400   -6.9570 O.2    90  LYS90      -0.2867
     74  CB       -15.9660   33.3320   -4.9400 C.3    90  LYS90       0.0271
     75  CG       -16.4060   33.2680   -3.4940 C.3    90  LYS90       0.0035
     76  CD       -16.4780   34.5830   -2.7950 C.3    90  LYS90       0.0206
     77  CE       -16.8640   34.3610   -1.3420 C.3    90  LYS90       0.1093
     78  NZ       -15.8170   33.6460   -0.5500 N.3    90  LYS90      -0.1314
     79  N        -13.3620   45.5630   -4.3890 N.3   126  LYS126     -0.1245
     80  CA       -12.1370   44.8010   -4.6240 C.3   126  LYS126      0.1561
     81  C        -12.3140   44.0280   -5.9200 C.2   126  LYS126      0.2260
     82  O        -13.2670   43.2510   -6.0460 O.2   126  LYS126     -0.2867
     83  CB       -11.8600   43.8310   -3.4640 C.3   126  LYS126      0.0271
     84  CG       -10.3830   43.4320   -3.3610 C.3   126  LYS126      0.0035
     85  CD       -10.1990   42.4540   -2.2580 C.3   126  LYS126      0.0206
     86  CE        -8.8010   41.9400   -2.0990 C.3   126  LYS126      0.1093
     87  NZ        -8.3170   41.3460   -3.3480 N.3   126  LYS126     -0.1314
     88  N        -10.3030   42.5090   -9.9680 N.3   128  ARG128     -0.1245
     89  CA        -9.2420   41.8970  -10.7360 C.3   128  ARG128      0.1563
     90  C         -9.1780   42.6120  -12.0950 C.2   128  ARG128      0.2260
     91  O        -10.1070   43.2750  -12.4840 O.2   128  ARG128     -0.2867
     92  CB        -9.4470   40.4040  -10.8780 C.3   128  ARG128      0.0307
     93  CG        -8.8030   39.6240   -9.7680 C.3   128  ARG128      0.0489
     94  CD        -8.5770   38.1880  -10.1490 C.3   128  ARG128      0.2205
     95  NE        -8.1570   37.4080   -9.0080 N.pl3 128  ARG128     -0.0865
     96  CZ        -7.3180   36.3950   -9.0700 C.cat 128  ARG128      0.5346
     97  NH1       -6.8010   36.0420  -10.2100 N.pl3 128  ARG128      0.1354
     98  NH2       -6.9790   35.7460   -7.9880 N.pl3 128  ARG128      0.1354
     99  N         -6.3220   43.7220   -7.7140 N.3   156  HIS156     -0.1241
    100  CA        -5.3480   42.6390   -7.6890 C.3   156  HIS156      0.1621
    101  C         -4.8760   42.5740   -9.1550 C.2   156  HIS156      0.2264
    102  O         -5.6880   42.3530  -10.0540 O.2   156  HIS156     -0.2867
    103  CB        -6.0040   41.3130   -7.2750 C.3   156  HIS156      0.0745
    104  CG        -5.0690   40.1350   -7.2810 C.ar  156  HIS156      0.0817
    105  ND1       -5.4970   38.8880   -6.8900 N.ar  156  HIS156     -0.2268
    106  CD2       -3.7680   40.0500   -7.6610 C.ar  156  HIS156      0.1154
    107  CE1       -4.4440   38.0920   -7.0070 C.ar  156  HIS156      0.1986
    108  NE2       -3.3770   38.7570   -7.4560 N.ar  156  HIS156     -0.2212
    109  N         -3.6600   32.1840   -8.9870 N.3   164  PHE164     -0.1241
    110  CA        -2.5290   32.6460   -8.2320 C.3   164  PHE164      0.1605
    111  C         -1.2460   32.3140   -8.9320 C.2   164  PHE164      0.2264
    112  O         -0.2160   32.1950   -8.3120 O.2   164  PHE164     -0.2867
    113  CB        -2.5690   32.1550   -6.8130 C.3   164  PHE164      0.0534
    114  CG        -3.6450   32.7860   -6.0170 C.ar  164  PHE164     -0.0203
    115  CD1       -3.3800   33.8490   -5.2170 C.ar  164  PHE164     -0.0042
    116  CD2       -4.9260   32.3330   -6.1110 C.ar  164  PHE164     -0.0042
    117  CE1       -4.3700   34.4340   -4.4990 C.ar  164  PHE164     -0.0003
    118  CE2       -5.9260   32.9160   -5.3980 C.ar  164  PHE164     -0.0003
    119  CZ        -5.6450   33.9710   -4.5890 C.ar  164  PHE164     -0.0000
    120  N         -2.6350   45.8560   -5.2290 N.3   187  ASN187     -0.1225
    121  CA        -2.5820   44.5380   -4.5820 C.3   187  ASN187      0.1785
    122  C         -2.0700   43.4720   -5.5320 C.2   187  ASN187      0.2598
    123  O         -2.2090   43.6080   -6.7460 O.2   187  ASN187     -0.2718
    124  CB        -3.9670   44.1900   -4.0040 C.3   187  ASN187      0.1169
    125  CG        -4.1420   42.7600   -3.5720 C.2   187  ASN187      0.2627
    126  OD1       -4.9030   42.0120   -4.1800 O.2   187  ASN187     -0.2716
    127  ND2       -3.4550   42.3350   -2.5090 N.am  187  ASN187     -0.0877
    128  N         -1.4520   42.4390   -4.9710 N.am  188  GLY188     -0.1942
    129  CA        -0.9060   41.3250   -5.7310 C.3   188  GLY188      0.2014
    130  C          0.5990   41.2790   -5.7090 C.2   188  GLY188      0.2639
    131  O          1.2500   42.1390   -6.2800 O.2   188  GLY188     -0.2714
    132  N          1.1570   40.2470   -5.0710 N.am  189  ASP189     -0.1957
    133  CA         2.5830   39.9410   -4.9910 C.3   189  ASP189      0.1840
    134  C          3.4150   41.0010   -4.3220 C.2   189  ASP189      0.2622
    135  O          4.5870   41.1450   -4.6680 O.2   189  ASP189     -0.2715
    136  CB         3.1600   39.5950   -6.3790 C.3   189  ASP189      0.1450
    137  CG         2.5780   38.3280   -6.9470 C.2   189  ASP189      0.3671
    138  OD1        1.8510   37.6360   -6.2110 O.co2 189  ASP189     -0.2456
    139  OD2        2.8670   38.0180   -8.1140 O.co2 189  ASP189     -0.2456
    140  N          2.8320   41.7460   -3.3620 N.am  190  ILE190     -0.1963
    141  CA         3.5980   42.7360   -2.6020 C.3   190  ILE190      0.1727
    142  C          4.1250   41.9150   -1.3990 C.2   190  ILE190      0.2616
    143  O          3.4310   41.7270   -0.3970 O.2   190  ILE190     -0.2715
    144  CB         2.7880   44.0230   -2.2500 C.3   190  ILE190      0.0290
    145  CG1        2.2730   44.7180   -3.5350 C.3   190  ILE190      0.0022
    146  CG2        3.6640   44.9820   -1.4170 C.3   190  ILE190      0.0023
    147  CD1        1.0990   45.7120   -3.3930 C.3   190  ILE190      0.0001
    148  N          5.3240   41.3450   -1.5770 N.am  191  THR191     -0.1951
    149  CA         5.9520   40.3800   -0.6720 C.3   191  THR191      0.1897
    150  C          7.0690   40.8940    0.2320 C.2   191  THR191      0.2313
    151  O          7.5690   40.1220    1.0720 O.2   191  THR191     -0.2863
    152  CB         6.4820   39.1970   -1.4980 C.3   191  THR191      0.1794
    153  OG1        7.1130   39.7120   -2.6770 O.3   191  THR191     -0.2208
    154  CG2        5.3800   38.2170   -1.8720 C.3   191  THR191      0.0378
    155  N         -2.1290   46.8030   -0.5560 N.3   209  MET209     -0.1230
    156  CA        -2.8260   45.7350    0.1640 C.3   209  MET209      0.1702
    157  C         -1.9640   44.4940    0.1690 C.2   209  MET209      0.2592
    158  O         -1.5070   44.0870   -0.8890 O.2   209  MET209     -0.2718
    159  CB        -4.2140   45.4740   -0.4090 C.3   209  MET209      0.0401
    160  CG        -4.9450   44.4280    0.3620 C.3   209  MET209      0.0596
    161  SD        -6.5580   43.9630   -0.2720 S.3   209  MET209     -0.1393
    162  CE        -7.5140   45.2160    0.4720 C.3   209  MET209      0.0692
    163  N         -1.6710   43.9270    1.3370 N.am  210  ILE210     -0.1966
    164  CA        -0.8040   42.7530    1.3580 C.3   210  ILE210      0.1727
    165  C         -1.5490   41.5780    2.0140 C.2   210  ILE210      0.2617
    166  O         -2.2070   41.7230    3.0470 O.2   210  ILE210     -0.2715
    167  CB         0.6520   43.0100    1.8850 C.3   210  ILE210      0.0290
    168  CG1        0.9040   42.4070    3.2270 C.3   210  ILE210      0.0022
    169  CG2        1.1130   44.5150    1.8700 C.3   210  ILE210      0.0023
    170  CD1        1.7260   41.2330    3.1410 C.3   210  ILE210      0.0001
    171  N         -1.5310   40.4470    1.3220 N.am  211  GLY211     -0.1940
    172  CA        -2.2450   39.2640    1.7560 C.3   211  GLY211      0.2014
    173  C         -1.3730   38.1610    2.2720 C.2   211  GLY211      0.2639
    174  O         -1.1130   38.0990    3.4660 O.2   211  GLY211     -0.2714
    175  N         -0.9460   37.2750    1.3630 N.am  212  ARG212     -0.1963
    176  CA        -0.1830   36.0520    1.5760 C.3   212  ARG212      0.1729
    177  C          1.1320   36.2390    2.2970 C.2   212  ARG212      0.2616
    178  O          1.5010   35.3550    3.0680 O.2   212  ARG212     -0.2715
    179  CB         0.0270   35.3070    0.2590 C.3   212  ARG212      0.0348
    180  CG        -1.2130   34.5780   -0.2600 C.3   212  ARG212      0.0492
    181  CD        -1.0060   34.0570   -1.6570 C.3   212  ARG212      0.2205
    182  NE        -0.7730   35.1550   -2.5980 N.pl3 212  ARG212     -0.0865
    183  CZ        -0.3130   34.9970   -3.8340 C.cat 212  ARG212      0.5346
    184  NH1       -0.0180   33.7850   -4.2900 N.pl3 212  ARG212      0.1354
    185  NH2       -0.1370   36.0470   -4.6210 N.pl3 212  ARG212      0.1354
    186  N          1.8270   37.3600    2.0940 N.am  213  ALA213     -0.1977
    187  CA         3.1030   37.5880    2.7840 C.3   213  ALA213      0.1597
    188  C          2.9740   37.8580    4.3090 C.2   213  ALA213      0.2287
    189  O          3.9500   37.7030    5.0500 O.2   213  ALA213     -0.2864
    190  CB         3.8830   38.6940    2.0990 C.3   213  ALA213      0.0319
    191  N          0.8760   36.0610    6.2820 N.3   215  GLN215     -0.1245
    192  CA         0.5060   34.7940    6.9160 C.3   215  GLN215      0.1566
    193  C          1.5700   34.2200    7.8640 C.2   215  GLN215      0.2260
    194  O          1.2230   33.8060    8.9830 O.2   215  GLN215     -0.2867
    195  CB         0.0900   33.7590    5.8710 C.3   215  GLN215      0.0367
    196  CG        -1.2200   34.1080    5.2040 C.3   215  GLN215      0.0905
    197  CD        -1.6460   33.0950    4.1900 C.2   215  GLN215      0.2608
    198  OE1       -2.7490   32.5560    4.2610 O.2   215  GLN215     -0.2717
    199  NE2       -0.8110   32.8480    3.1940 N.am  215  GLN215     -0.0878
    200  N          2.1730   28.2290    8.7600 N.3   272  TRP272     -0.1241
    201  CA         2.3470   29.4580    7.9760 C.3   272  TRP272      0.1605
    202  C          3.7250   30.0290    8.2440 C.2   272  TRP272      0.2264
    203  O          4.4290   30.3900    7.3080 O.2   272  TRP272     -0.2867
    204  CB         1.3180   30.5310    8.3790 C.3   272  TRP272      0.0550
    205  CG        -0.1080   30.3720    7.9340 C.ar  272  TRP272      0.0003
    206  CD1       -1.2090   30.8890    8.5540 C.ar  272  TRP272      0.0946
    207  CD2       -0.5710   29.8210    6.6950 C.ar  272  TRP272      0.0152
    208  NE1       -2.3400   30.6070    7.8300 N.ar  272  TRP272     -0.2442
    209  CE2       -1.9780   29.9710    6.6710 C.ar  272  TRP272      0.0810
    210  CE3        0.0690   29.2480    5.5790 C.ar  272  TRP272      0.0012
    211  CZ2       -2.7590   29.5340    5.5940 C.ar  272  TRP272      0.0191
    212  CZ3       -0.7070   28.8120    4.5120 C.ar  272  TRP272      0.0001
    213  CH2       -2.1030   28.9660    4.5200 C.ar  272  TRP272      0.0015
@<TRIPOS>BOND
     1    91    90    2
     2    90    89    1
     3    92    89    1
     4    92    93    1
     5    89    88    1
     6    97    96    1
     7    94    93    1
     8    94    95    1
     9   102   101    2
    10   101   100    1
    11    96    95    2
    12    96    98    1
    13   109   110    1
    14   111   112    2
    15   111   110    1
    16   110   113    1
    17   139   137   ar
    18    63    62    2
    19    67    66    2
    20    99   100    1
    21   100   103    1
    22   106   108   ar
    23   106   104   ar
    24   108   107   ar
    25    66    65    1
    26   104   103    1
    27   104   105   ar
    28    62    61    1
    29    62    64   am
    30    61    60    1
    31   107   105   ar
    32    73    72    2
    33   137   136    1
    34   137   138   ar
    35   113   114    1
    36   123   122    2
    37    70    71    1
    38   136   133    1
    39   131   130    2
    40    64    65    1
    41   116   114   ar
    42   116   118   ar
    43    65    68    1
    44    82    81    2
    45   114   115   ar
    46    72    71    1
    47    81    80    1
    48   129   130    1
    49   129   128    1
    50   130   132   am
    51    71    74    1
    52   122   128   am
    53   122   121    1
    54   118   119   ar
    55   120   121    1
    56   115   117   ar
    57    55    54    2
    58   132   133    1
    59   133   134    1
    60    74    75    1
    61    68    69    1
    62    54    53    1
    63   135   134    2
    64    80    79    1
    65    80    83    1
    66   185   183    1
    67   119   117   ar
    68   121   124    1
    69   134   140   am
    70   184   183    1
    71   126   125    2
    72    58    57    2
    73   124   125    1
    74   183   182    2
    75   125   127   am
    76   145   147    1
    77   145   144    1
    78    75    76    1
    79    83    84    1
    80   140   141    1
    81    84    85    1
    82    53    52    1
    83    53    56    1
    84    87    86    1
    85    57    56    1
    86    57    59   am
    87    76    77    1
    88   153   152    1
    89   141   144    1
    90   141   142    1
    91   182   181    1
    92    85    86    1
    93   144   146    1
    94   154   152    1
    95   181   180    1
    96   148   142   am
    97   148   149    1
    98   152   149    1
    99   142   143    2
   100    77    78    1
   101   158   157    2
   102   149   150    1
   103    51    49   am
   104   155   156    1
   105   159   156    1
   106   159   160    1
   107   161   160    1
   108   161   162    1
   109   180   179    1
   110   156   157    1
   111   157   163   am
   112   150   151    2
   113   179   176    1
   114    49    50    2
   115    49    48    1
   116    48    47    1
   117   171   172    1
   118   171   165   am
   119   163   164    1
   120   164   167    1
   121   164   165    1
   122   175   176    1
   123   175   173   am
   124     5     2    1
   125    11    12    1
   126    11    10    1
   127   176   177    1
   128     9     8    2
   129    12     6    1
   130   172   173    1
   131   169   167    1
   132   167   168    1
   133   165   166    2
   134   186   177   am
   135   186   187    1
   136   190   187    1
   137    20    19    1
   138   173   174    2
   139   177   178    2
   140    47    44    1
   141    18    19    1
   142    18    17    1
   143     2     3    1
   144     2     1    1
   145    45    44    1
   146    45    46    2
   147   187   188    1
   148    10     7    1
   149     6     3   am
   150     6     7    1
   151     8     7    1
   152     8    13   am
   153    25    22    1
   154    44    43    1
   155   170   168    1
   156   199   197   am
   157     3     4    2
   158    14    17    1
   159    14    13    1
   160    14    15    1
   161    21    22    1
   162    21    15   am
   163    24    23    2
   164    22    23    1
   165    15    16    2
   166   197   198    2
   167   197   196    1
   168   188   189    2
   169   212   213   ar
   170   212   210   ar
   171   213   211   ar
   172    31    33    1
   173    31    30    1
   174    41    40   ar
   175   196   195    1
   176    39    40    1
   177    39    38    1
   178   210   207   ar
   179   211   209   ar
   180    40    42   ar
   181   195   192    1
   182    35    38    1
   183    35    36    1
   184    35    34    1
   185    30    32    1
   186    30    27    1
   187   191   192    1
   188   209   207   ar
   189   209   208   ar
   190   207   205   ar
   191    26    27    1
   192    36    37    2
   193   192   193    1
   194   203   202    2
   195    27    28    1
   196   208   206   ar
   197   193   194    2
   198   205   204    1
   199   205   206   ar
   200   201   202    1
   201   201   204    1
   202   201   200    1
   203    28    29    2
