@<TRIPOS>MOLECULE
tmp/6eiaA09.pdb
 110 109 0 0 0
SMALL
GASTEIGER

@<TRIPOS>ATOM
      1  N        -30.1630  -16.9440   13.6000 N.3    34  TYR34      -0.1241
      2  CA       -30.2990  -16.2500   14.8780 C.3    34  TYR34       0.1605
      3  C        -31.7710  -16.0550   15.2370 C.2    34  TYR34       0.2264
      4  O        -32.1450  -16.1110   16.4110 O.2    34  TYR34      -0.2867
      5  CB       -29.5770  -14.9030   14.8360 C.3    34  TYR34       0.0534
      6  CG       -28.1030  -15.0190   14.5150 C.ar   34  TYR34      -0.0201
      7  CD1      -27.3660  -16.1270   14.9230 C.ar   34  TYR34      -0.0009
      8  CD2      -27.4510  -14.0280   13.7910 C.ar   34  TYR34      -0.0009
      9  CE1      -26.0180  -16.2370   14.6280 C.ar   34  TYR34       0.0417
     10  CE2      -26.1090  -14.1300   13.4910 C.ar   34  TYR34       0.0417
     11  CZ       -25.3950  -15.2320   13.9110 C.ar   34  TYR34       0.1957
     12  OH       -24.0580  -15.3240   13.6070 O.3    34  TYR34      -0.2866
     13  N        -32.9440  -19.2530   16.6780 N.3    37  TRP37      -0.1227
     14  CA       -32.4440  -19.3100   18.0540 C.3    37  TRP37       0.1737
     15  C        -33.3370  -18.5100   18.9940 C.2    37  TRP37       0.2595
     16  O        -33.6110  -18.9270   20.1240 O.2    37  TRP37      -0.2718
     17  CB       -31.0220  -18.7670   18.1510 C.3    37  TRP37       0.0564
     18  CG       -29.9650  -19.6150   17.5320 C.ar   37  TRP37       0.0003
     19  CD1      -30.1330  -20.7710   16.8230 C.ar   37  TRP37       0.0946
     20  CD2      -28.5590  -19.3660   17.5690 C.ar   37  TRP37       0.0152
     21  NE1      -28.9110  -21.2570   16.4190 N.ar   37  TRP37      -0.2442
     22  CE2      -27.9300  -20.4100   16.8640 C.ar   37  TRP37       0.0810
     23  CE3      -27.7690  -18.3560   18.1320 C.ar   37  TRP37       0.0012
     24  CZ2      -26.5470  -20.4750   16.7070 C.ar   37  TRP37       0.0191
     25  CZ3      -26.3980  -18.4240   17.9760 C.ar   37  TRP37       0.0001
     26  CH2      -25.8020  -19.4740   17.2680 C.ar   37  TRP37       0.0015
     27  N        -33.7630  -17.3420   18.5260 N.am   38  PHE38      -0.1976
     28  CA       -34.6230  -16.4710   19.3180 C.3    38  PHE38       0.1639
     29  C        -35.9650  -17.1360   19.5890 C.2    38  PHE38       0.2290
     30  O        -36.4570  -17.1270   20.7170 O.2    38  PHE38      -0.2864
     31  CB       -34.8350  -15.1320   18.6110 C.3    38  PHE38       0.0560
     32  CG       -35.9090  -14.2880   19.2360 C.ar   38  PHE38      -0.0200
     33  CD1      -35.6900  -13.6520   20.4470 C.ar   38  PHE38      -0.0042
     34  CD2      -37.1410  -14.1380   18.6190 C.ar   38  PHE38      -0.0042
     35  CE1      -36.6790  -12.8760   21.0300 C.ar   38  PHE38      -0.0003
     36  CE2      -38.1350  -13.3650   19.1980 C.ar   38  PHE38      -0.0003
     37  CZ       -37.9010  -12.7340   20.4050 C.ar   38  PHE38      -0.0000
     38  N        -30.9850  -26.3590   18.6630 N.3    49  ARG49      -0.1245
     39  CA       -30.1850  -25.4850   17.8170 C.3    49  ARG49       0.1563
     40  C        -29.5450  -26.2810   16.6840 C.2    49  ARG49       0.2260
     41  O        -29.3510  -25.7600   15.5850 O.2    49  ARG49      -0.2867
     42  CB       -29.1150  -24.7640   18.6350 C.3    49  ARG49       0.0307
     43  CG       -29.6570  -23.6050   19.4420 C.3    49  ARG49       0.0489
     44  CD       -28.5460  -22.6680   19.8710 C.3    49  ARG49       0.2205
     45  NE       -29.0760  -21.4780   20.5230 N.pl3  49  ARG49      -0.0865
     46  CZ       -28.3320  -20.4620   20.9390 C.cat  49  ARG49       0.5346
     47  NH1      -27.0180  -20.4890   20.7690 N.pl3  49  ARG49       0.1354
     48  NH2      -28.9030  -19.4180   21.5200 N.pl3  49  ARG49       0.1354
     49  N        -31.8530   -5.2420   12.2730 N.3   166  GLN166     -0.1231
     50  CA       -32.2910   -6.2330   13.2480 C.3   166  GLN166      0.1698
     51  C        -31.9190   -5.7760   14.6530 C.2   166  GLN166      0.2592
     52  O        -32.7260   -5.8630   15.5770 O.2   166  GLN166     -0.2718
     53  CB       -31.6760   -7.6040   12.9480 C.3   166  GLN166      0.0381
     54  CG       -32.1970   -8.7380   13.8310 C.3   166  GLN166      0.0905
     55  CD       -31.5250   -8.7910   15.1940 C.2   166  GLN166      0.2608
     56  OE1      -30.3310   -8.5170   15.3220 O.2   166  GLN166     -0.2717
     57  NE2      -32.2950   -9.1320   16.2220 N.am  166  GLN166     -0.0878
     58  N        -30.6920   -5.2890   14.8020 N.am  167  GLU167     -0.1979
     59  CA       -30.2070   -4.8070   16.0890 C.3   167  GLU167      0.1602
     60  C        -31.0030   -3.5950   16.5620 C.2   167  GLU167      0.2287
     61  O        -31.3490   -3.4850   17.7360 O.2   167  GLU167     -0.2864
     62  CB       -28.7210   -4.4570   16.0010 C.3   167  GLU167      0.0415
     63  CG       -28.1400   -3.9060   17.2900 C.3   167  GLU167      0.1163
     64  CD       -26.6730   -3.5510   17.1640 C.2   167  GLU167      0.3649
     65  OE1      -26.3340   -2.7120   16.3030 O.co2 167  GLU167     -0.2457
     66  OE2      -25.8570   -4.1150   17.9220 O.co2 167  GLU167     -0.2457
     67  N        -35.4150   -4.8720   15.4980 N.3   170  GLY170     -0.1210
     68  CA       -35.9140   -6.2270   15.6620 C.3   170  GLY170      0.1956
     69  C        -36.0070   -7.0270   14.3750 C.2   170  GLY170      0.2611
     70  O        -35.7960   -6.4990   13.2830 O.2   170  GLY170     -0.2717
     71  N        -36.3360   -8.3080   14.5140 N.am  171  TYR171     -0.1976
     72  CA       -36.3480   -9.2470   13.3950 C.3   171  TYR171      0.1639
     73  C        -37.4040   -8.9450   12.3310 C.2   171  TYR171      0.2290
     74  O        -37.1160   -9.0150   11.1340 O.2   171  TYR171     -0.2864
     75  CB       -36.5460  -10.6750   13.9210 C.3   171  TYR171      0.0560
     76  CG       -35.3090  -11.2520   14.5710 C.ar  171  TYR171     -0.0198
     77  CD1      -34.2480  -11.7070   13.7980 C.ar  171  TYR171     -0.0009
     78  CD2      -35.1990  -11.3420   15.9550 C.ar  171  TYR171     -0.0009
     79  CE1      -33.1120  -12.2310   14.3810 C.ar  171  TYR171      0.0417
     80  CE2      -34.0640  -11.8680   16.5490 C.ar  171  TYR171      0.0417
     81  CZ       -33.0240  -12.3120   15.7540 C.ar  171  TYR171      0.1957
     82  OH       -31.8900  -12.8340   16.3280 O.3   171  TYR171     -0.2866
     83  N        -21.2810  -16.0530   16.6910 N.3   302  ALA302     -0.1231
     84  CA       -22.1940  -15.6330   17.7570 C.3   302  ALA302      0.1694
     85  C        -21.7780  -16.1030   19.1490 C.2   302  ALA302      0.2591
     86  O        -22.0830  -15.4460   20.1420 O.2   302  ALA302     -0.2718
     87  CB       -23.6080  -16.1240   17.4580 C.3   302  ALA302      0.0304
     88  N        -21.1000  -17.2430   19.2260 N.am  303  GLU303     -0.1979
     89  CA       -20.8270  -17.8710   20.5150 C.3   303  GLU303      0.1602
     90  C        -19.3790  -17.7530   20.9840 C.2   303  GLU303      0.2287
     91  O        -19.1040  -17.8050   22.1810 O.2   303  GLU303     -0.2864
     92  CB       -21.2060  -19.3550   20.4600 C.3   303  GLU303      0.0415
     93  CG       -22.6850  -19.6210   20.2500 C.3   303  GLU303      0.1163
     94  CD       -23.0080  -21.1040   20.1760 C.2   303  GLU303      0.3649
     95  OE1      -22.0820  -21.9110   19.9390 O.co2 303  GLU303     -0.2457
     96  OE2      -24.1910  -21.4650   20.3590 O.co2 303  GLU303     -0.2457
     97  N        -22.9300   -5.9620   15.0450 N.3   311  PRO311     -0.2102
     98  CA       -23.8280   -7.0920   14.7730 C.3   311  PRO311      0.1504
     99  C        -23.0800   -8.2980   14.2210 C.2   311  PRO311      0.2575
    100  O        -22.3700   -8.1820   13.2240 O.2   311  PRO311     -0.2718
    101  CB       -24.8030   -6.5280   13.7330 C.3   311  PRO311      0.0282
    102  CG       -24.7700   -5.0540   13.9480 C.3   311  PRO311      0.0208
    103  CD       -23.3530   -4.7420   14.3350 C.3   311  PRO311      0.0893
    104  N        -23.2470   -9.4460   14.8680 N.am  312  VAL312     -0.1980
    105  CA       -22.5060  -10.6490   14.5100 C.3   312  VAL312      0.1595
    106  C        -22.8900  -11.1720   13.1160 C.2   312  VAL312      0.2287
    107  O        -22.1110  -11.8680   12.4580 O.2   312  VAL312     -0.2864
    108  CB       -22.7190  -11.7430   15.5820 C.3   312  VAL312      0.0276
    109  CG1      -24.1620  -12.2110   15.6120 C.3   312  VAL312      0.0022
    110  CG2      -21.8030  -12.8810   15.3530 C.3   312  VAL312      0.0022
@<TRIPOS>BOND
     1    74    73    2
     2    49    50    1
     3    73    72    1
     4   107   106    2
     5    53    50    1
     6    53    54    1
     7   106   105    1
     8   100    99    2
     9    50    51    1
    10    70    69    2
    11    72    75    1
    12    72    71    1
    13    10     8   ar
    14    10    11   ar
    15     1     2    1
    16    12    11    1
    17   101   102    1
    18   101    98    1
    19     8     6   ar
    20    77    79   ar
    21    77    76   ar
    22    54    55    1
    23    11     9   ar
    24    75    76    1
    25   102   103    1
    26    99    98    1
    27    99   104   am
    28   103    97    1
    29    69    71   am
    30    69    68    1
    31    79    81   ar
    32   105   104    1
    33   105   108    1
    34     6     5    1
    35     6     7   ar
    36    76    78   ar
    37     9     7   ar
    38    51    58   am
    39    51    52    2
    40    98    97    1
    41    58    59    1
    42     5     2    1
    43     2     3    1
    44    55    56    2
    45    55    57   am
    46     3     4    2
    47   110   108    1
    48    67    68    1
    49   108   109    1
    50    41    40    2
    51    81    82    1
    52    81    80   ar
    53    78    80   ar
    54    62    59    1
    55    62    63    1
    56    59    60    1
    57    65    64   ar
    58    21    19   ar
    59    21    22   ar
    60    60    61    2
    61    13    14    1
    62    40    39    1
    63    83    84    1
    64    24    22   ar
    65    24    26   ar
    66    19    18   ar
    67    22    20   ar
    68    64    63    1
    69    64    66   ar
    70    26    25   ar
    71    87    84    1
    72    18    20   ar
    73    18    17    1
    74    20    23   ar
    75    84    85    1
    76    39    42    1
    77    39    38    1
    78    25    23   ar
    79    14    17    1
    80    14    15    1
    81    27    15   am
    82    27    28    1
    83    31    32    1
    84    31    28    1
    85    34    36   ar
    86    34    32   ar
    87    42    43    1
    88    15    16    2
    89    85    88   am
    90    85    86    2
    91    36    37   ar
    92    88    89    1
    93    32    33   ar
    94    28    29    1
    95    43    44    1
    96    29    30    2
    97    44    45    1
    98    95    94   ar
    99    94    93    1
   100    94    96   ar
   101    93    92    1
   102    37    35   ar
   103    33    35   ar
   104    92    89    1
   105    89    90    1
   106    45    46    2
   107    47    46    1
   108    46    48    1
   109    90    91    2
