@<TRIPOS>MOLECULE
tmp/6eicC00.pdb
 114 108 0 0 0
SMALL
GASTEIGER

@<TRIPOS>ATOM
      1  N         56.7330   48.0820   19.5680 N.3    38  GLY38      -0.1210
      2  CA        56.7760   46.7230   19.0690 C.3    38  GLY38       0.1956
      3  C         55.8290   45.7830   19.7960 C.2    38  GLY38       0.2611
      4  O         55.0250   46.1790   20.6410 O.2    38  GLY38      -0.2717
      5  N         55.9350   44.5050   19.4460 N.am   39  LEU39      -0.1979
      6  CA        55.0410   43.4970   20.0040 C.3    39  LEU39       0.1596
      7  C         55.3220   43.2900   21.4870 C.2    39  LEU39       0.2287
      8  O         56.4740   43.1180   21.8950 O.2    39  LEU39      -0.2864
      9  CB        55.1930   42.1790   19.2450 C.3    39  LEU39       0.0297
     10  CG        54.6520   40.8900   19.8700 C.3    39  LEU39       0.0022
     11  CD1       53.1990   41.0230   20.2590 C.3    39  LEU39       0.0001
     12  CD2       54.8290   39.7330   18.9040 C.3    39  LEU39       0.0001
     13  N         55.2180   45.2510   24.0760 N.3    41  GLU41      -0.1245
     14  CA        55.6000   46.3880   24.8950 C.3    41  GLU41       0.1567
     15  C         54.5190   47.4740   24.8230 C.2    41  GLU41       0.2260
     16  O         53.3500   47.1930   24.5340 O.2    41  GLU41      -0.2867
     17  CB        56.9800   46.8910   24.4530 C.3    41  GLU41       0.0388
     18  CG        57.0670   47.2730   22.9800 C.3    41  GLU41       0.1160
     19  CD        58.2950   48.1100   22.6630 C.2    41  GLU41       0.3649
     20  OE1       59.0200   48.4970   23.6060 O.co2  41  GLU41      -0.2457
     21  OE2       58.5290   48.3860   21.4680 O.co2  41  GLU41      -0.2457
     22  N         57.8400   52.5710   27.2740 N.3    45  ARG45      -0.1245
     23  CA        59.2260   52.1300   27.1570 C.3    45  ARG45       0.1563
     24  C         60.0580   53.0560   26.2800 C.2    45  ARG45       0.2260
     25  O         61.2360   52.7690   26.0430 O.2    45  ARG45      -0.2867
     26  CB        59.2930   50.6940   26.6160 C.3    45  ARG45       0.0307
     27  CG        58.7770   49.6460   27.5950 C.3    45  ARG45       0.0489
     28  CD        59.1100   48.2210   27.1650 C.3    45  ARG45       0.2205
     29  NE        60.4990   47.8630   27.4410 N.pl3  45  ARG45      -0.0865
     30  CZ        61.3530   47.4210   26.5260 C.cat  45  ARG45       0.5346
     31  NH1       62.5990   47.1180   26.8670 N.pl3  45  ARG45       0.1354
     32  NH2       60.9590   47.2680   25.2700 N.pl3  45  ARG45       0.1354
     33  N         59.3430   50.6610   15.7040 N.3   109  HIS109     -0.1226
     34  CA        60.3290   49.6640   16.0930 C.3   109  HIS109      0.1752
     35  C         59.7310   48.2660   16.0160 C.2   109  HIS109      0.2596
     36  O         58.6070   48.0350   16.4770 O.2   109  HIS109     -0.2718
     37  CB        60.8570   49.9080   17.5130 C.3   109  HIS109      0.0759
     38  CG        61.5320   48.7100   18.1020 C.ar  109  HIS109      0.0818
     39  ND1       62.7630   48.2640   17.6690 N.ar  109  HIS109     -0.2268
     40  CD2       61.1300   47.8380   19.0570 C.ar  109  HIS109      0.1154
     41  CE1       63.0990   47.1820   18.3470 C.ar  109  HIS109      0.1986
     42  NE2       62.1260   46.9040   19.1950 N.ar  109  HIS109     -0.2212
     43  N         60.5020   47.3370   15.4440 N.am  110  SER110     -0.1952
     44  CA        60.1740   45.9070   15.4090 C.3   110  SER110      0.1924
     45  C         58.8110   45.7450   14.7470 C.2   110  SER110      0.2314
     46  O         58.6710   46.1240   13.5720 O.2   110  SER110     -0.2863
     47  CB        60.2980   45.3440   16.8270 C.3   110  SER110      0.2116
     48  OG        60.3440   43.9270   16.8150 O.3   110  SER110     -0.2180
     49  N         59.5470   33.1000   22.4710 N.3   166  LEU166     -0.1245
     50  CA        60.5390   34.1160   22.1580 C.3   166  LEU166      0.1561
     51  C         61.6910   34.0800   23.1520 C.2   166  LEU166      0.2260
     52  O         61.5240   33.6960   24.3130 O.2   166  LEU166     -0.2867
     53  CB        59.9170   35.5170   22.1400 C.3   166  LEU166      0.0270
     54  CG        59.0660   35.8470   20.9120 C.3   166  LEU166      0.0019
     55  CD1       58.8470   37.3510   20.8080 C.3   166  LEU166      0.0001
     56  CD2       59.6960   35.2990   19.6360 C.3   166  LEU166      0.0001
     57  N         63.6510   36.2690   25.2150 N.3   168  PHE168     -0.1241
     58  CA        63.6330   37.6150   25.7700 C.3   168  PHE168      0.1605
     59  C         65.0230   38.1320   26.1170 C.2   168  PHE168      0.2264
     60  O         65.1780   39.3360   26.3390 O.2   168  PHE168     -0.2867
     61  CB        62.7230   37.6480   27.0000 C.3   168  PHE168      0.0534
     62  CG        61.3020   37.2390   26.7130 C.ar  168  PHE168     -0.0203
     63  CD1       60.4590   38.0700   25.9860 C.ar  168  PHE168     -0.0042
     64  CD2       60.8100   36.0230   27.1630 C.ar  168  PHE168     -0.0042
     65  CE1       59.1520   37.6990   25.7160 C.ar  168  PHE168     -0.0003
     66  CE2       59.5040   35.6450   26.8970 C.ar  168  PHE168     -0.0003
     67  CZ        58.6730   36.4840   26.1730 C.ar  168  PHE168     -0.0000
     68  N         66.6700   40.8030   23.4300 N.3   171  ILE171     -0.1245
     69  CA        66.1780   42.1550   23.1840 C.3   171  ILE171      0.1561
     70  C         67.2740   43.1860   23.4240 C.2   171  ILE171      0.2260
     71  O         67.2530   44.2680   22.8260 O.2   171  ILE171     -0.2867
     72  CB        64.9240   42.4420   24.0330 C.3   171  ILE171      0.0252
     73  CG1       65.2850   42.6590   25.5040 C.3   171  ILE171      0.0019
     74  CG2       63.9210   41.3020   23.8970 C.3   171  ILE171      0.0019
     75  CD1       64.1120   43.1110   26.3500 C.3   171  ILE171      0.0001
     76  N         62.0660   44.7070   31.3710 N.3   181  TYR181     -0.1241
     77  CA        61.0660   44.1870   30.4520 C.3   181  TYR181      0.1605
     78  C         60.2970   43.0270   31.0750 C.2   181  TYR181      0.2264
     79  O         59.0690   42.9550   30.9500 O.2   181  TYR181     -0.2867
     80  CB        61.7310   43.7650   29.1440 C.3   181  TYR181      0.0534
     81  CG        60.7740   43.1130   28.1910 C.ar  181  TYR181     -0.0201
     82  CD1       60.0800   43.8660   27.2550 C.ar  181  TYR181     -0.0009
     83  CD2       60.5490   41.7380   28.2290 C.ar  181  TYR181     -0.0009
     84  CE1       59.1980   43.2720   26.3820 C.ar  181  TYR181      0.0417
     85  CE2       59.6560   41.1390   27.3620 C.ar  181  TYR181      0.0417
     86  CZ        58.9920   41.9060   26.4340 C.ar  181  TYR181      0.1957
     87  OH        58.0960   41.3270   25.5730 O.3   181  TYR181     -0.2866
     88  N         66.4180   38.3460   17.0210 N.3   228  LEU228     -0.1245
     89  CA        64.9650   38.3380   16.9190 C.3   228  LEU228      0.1561
     90  C         64.4740   38.6600   15.5150 C.2   228  LEU228      0.2260
     91  O         63.5100   38.0480   15.0440 O.2   228  LEU228     -0.2867
     92  CB        64.3680   39.3300   17.9200 C.3   228  LEU228      0.0270
     93  CG        64.5980   38.9630   19.3890 C.3   228  LEU228      0.0019
     94  CD1       64.2170   40.1080   20.3120 C.3   228  LEU228      0.0001
     95  CD2       63.8180   37.7100   19.7480 C.3   228  LEU228      0.0001
     96  N         68.5120   43.6130   19.4970 N.3   256  HIS256     -0.1226
     97  CA        67.3190   44.0700   18.7910 C.3   256  HIS256      0.1752
     98  C         66.9730   45.5180   19.1380 C.2   256  HIS256      0.2595
     99  O         66.7950   46.3520   18.2440 O.2   256  HIS256     -0.2718
    100  CB        66.1530   43.1330   19.1140 C.3   256  HIS256      0.0759
    101  CG        64.9540   43.3270   18.2400 C.ar  256  HIS256      0.0818
    102  ND1       65.0310   43.4060   16.8660 N.ar  256  HIS256     -0.2268
    103  CD2       63.6430   43.4420   18.5480 C.ar  256  HIS256      0.1154
    104  CE1       63.8200   43.5760   16.3680 C.ar  256  HIS256      0.1986
    105  NE2       62.9590   43.6030   17.3680 N.ar  256  HIS256     -0.2212
    106  N         66.8650   45.8350   20.4300 N.am  257  GLU257     -0.1979
    107  CA        66.4270   47.1610   20.8760 C.3   257  GLU257      0.1602
    108  C         67.6230   48.1070   20.8880 C.2   257  GLU257      0.2287
    109  O         68.2640   48.3230   21.9170 O.2   257  GLU257     -0.2864
    110  CB        65.7760   47.0820   22.2530 C.3   257  GLU257      0.0415
    111  CG        64.4370   46.3530   22.2690 C.3   257  GLU257      0.1163
    112  CD        63.8320   46.2280   23.6630 C.2   257  GLU257      0.3649
    113  OE1       64.4470   46.7080   24.6420 O.co2 257  GLU257     -0.2457
    114  OE2       62.7300   45.6440   23.7710 O.co2 257  GLU257     -0.2457
@<TRIPOS>BOND
     1    46    45    2
     2    45    44    1
     3    91    90    2
     4    44    43    1
     5    44    47    1
     6    43    35   am
     7    90    89    1
     8    33    34    1
     9    35    34    1
    10    35    36    2
    11    34    37    1
    12   104   102   ar
    13   104   105   ar
    14    48    47    1
    15   102   101   ar
    16    89    88    1
    17    89    92    1
    18   105   103   ar
    19    37    38    1
    20    39    38   ar
    21    39    41   ar
    22    92    93    1
    23    38    40   ar
    24   101   103   ar
    25   101   100    1
    26    99    98    2
    27    41    42   ar
    28    97   100    1
    29    97    98    1
    30    97    96    1
    31    12    10    1
    32    40    42   ar
    33     2     1    1
    34     2     3    1
    35    98   106   am
    36     9    10    1
    37     9     6    1
    38    93    95    1
    39    93    94    1
    40     5     3   am
    41     5     6    1
    42    56    54    1
    43     3     4    2
    44    10    11    1
    45     6     7    1
    46   106   107    1
    47    55    54    1
    48   107   108    1
    49   107   110    1
    50   108   109    2
    51    54    53    1
    52    21    19   ar
    53     7     8    2
    54    53    50    1
    55    50    49    1
    56    50    51    1
    57   110   111    1
    58   111   112    1
    59    19    18    1
    60    19    20   ar
    61    71    70    2
    62    18    17    1
    63    51    52    2
    64    69    70    1
    65    69    68    1
    66    69    72    1
    67   112   114   ar
    68   112   113   ar
    69    74    72    1
    70    72    73    1
    71    13    14    1
    72    17    14    1
    73    16    15    2
    74    15    14    1
    75    57    58    1
    76    32    30    1
    77    73    75    1
    78    87    86    1
    79    65    63   ar
    80    65    67   ar
    81    58    59    1
    82    58    61    1
    83    63    62   ar
    84    25    24    2
    85    59    60    2
    86    67    66   ar
    87    24    23    1
    88    84    86   ar
    89    84    82   ar
    90    86    85   ar
    91    30    31    1
    92    30    29    2
    93    26    23    1
    94    26    27    1
    95    62    61    1
    96    62    64   ar
    97    66    64   ar
    98    23    22    1
    99    28    29    1
   100    28    27    1
   101    82    81   ar
   102    85    83   ar
   103    81    83   ar
   104    81    80    1
   105    80    77    1
   106    77    78    1
   107    77    76    1
   108    79    78    2
