@<TRIPOS>MOLECULE
tmp/6eidB03.pdb
 95 85 0 0 0
SMALL
GASTEIGER

@<TRIPOS>ATOM
      1  N          3.8630   19.2480  109.1380 N.3    15  THR15      -0.1218
      2  CA         2.5480   19.8660  109.2500 C.3    15  THR15       0.1862
      3  C          1.8120   19.3470  110.4900 C.2    15  THR15       0.2287
      4  O          2.1540   18.2820  111.0300 O.2    15  THR15      -0.2866
      5  CB         1.6900   19.5980  107.9940 C.3    15  THR15       0.1770
      6  OG1        1.4430   18.1930  107.8400 O.3    15  THR15      -0.2211
      7  CG2        2.3660   20.1190  106.7340 C.3    15  THR15       0.0375
      8  N          0.3840   15.9130  109.9400 N.3    18  ALA18      -0.1245
      9  CA         1.4580   14.9230  110.0640 C.3    18  ALA18       0.1562
     10  C          1.8230   14.6970  111.5270 C.2    18  ALA18       0.2260
     11  O          1.9750   13.5500  111.9540 O.2    18  ALA18      -0.2867
     12  CB         2.6890   15.3510  109.2760 C.3    18  ALA18       0.0290
     13  N          9.4480   -7.0090  102.5640 N.3   191  VAL191     -0.1245
     14  CA         8.7450   -5.7570  102.2610 C.3   191  VAL191      0.1561
     15  C          9.0220   -4.7080  103.3280 C.2   191  VAL191      0.2260
     16  O          9.3170   -3.5560  102.9930 O.2   191  VAL191     -0.2867
     17  CB         7.2200   -5.9910  102.0920 C.3   191  VAL191      0.0252
     18  CG1        6.4300   -4.6900  102.1550 C.3   191  VAL191      0.0019
     19  CG2        6.9550   -6.6950  100.7680 C.3   191  VAL191      0.0019
     20  N         11.5990   -1.2910  103.0890 N.3   195  MET195     -0.1245
     21  CA        11.0730    0.0730  103.2200 C.3   195  MET195      0.1570
     22  C         11.9860    1.0460  103.9650 C.2   195  MET195      0.2261
     23  O         12.0020    2.2330  103.6540 O.2   195  MET195     -0.2867
     24  CB         9.6770    0.0680  103.8730 C.3   195  MET195      0.0387
     25  CG         8.5450   -0.2880  102.9060 C.3   195  MET195      0.0595
     26  SD         8.4910    0.7520  101.4090 S.3   195  MET195     -0.1393
     27  CE         8.1980    2.3750  102.1020 C.3   195  MET195      0.0692
     28  N         12.5490    4.9130  103.0680 N.3   199  LEU199     -0.1245
     29  CA        12.1560    6.0340  103.9340 C.3   199  LEU199      0.1561
     30  C         13.3080    6.9400  104.2920 C.2   199  LEU199      0.2260
     31  O         13.1340    8.1450  104.4040 O.2   199  LEU199     -0.2867
     32  CB        11.4750    5.5230  105.2090 C.3   199  LEU199      0.0270
     33  CG        10.0810    4.9180  105.0000 C.3   199  LEU199      0.0019
     34  CD1        9.3730    4.8010  106.3390 C.3   199  LEU199      0.0001
     35  CD2        9.2210    5.7430  104.0450 C.3   199  LEU199      0.0001
     36  N         11.9650   14.8200  101.1220 N.3   209  VAL209     -0.1231
     37  CA        10.6220   14.7860  100.5510 C.3   209  VAL209      0.1692
     38  C          9.6190   14.7460  101.7020 C.2   209  VAL209      0.2592
     39  O          8.6460   15.4920  101.6960 O.2   209  VAL209     -0.2718
     40  CB        10.4140   13.5690   99.6250 C.3   209  VAL209      0.0266
     41  CG1        8.9340   13.3580   99.3120 C.3   209  VAL209      0.0020
     42  CG2       11.2210   13.7390   98.3430 C.3   209  VAL209      0.0020
     43  N          9.8620   13.8660  102.6740 N.am  210  LEU210     -0.1966
     44  CA         9.0480   13.8090  103.8880 C.3   210  LEU210      0.1728
     45  C          9.6480   14.6770  104.9690 C.2   210  LEU210      0.2616
     46  O         10.8610   14.8680  105.0100 O.2   210  LEU210     -0.2715
     47  CB         8.9160   12.3740  104.3970 C.3   210  LEU210      0.0311
     48  CG         8.2560   11.3730  103.4570 C.3   210  LEU210      0.0022
     49  CD1        8.1700   10.0140  104.1260 C.3   210  LEU210      0.0001
     50  CD2        6.8830   11.8590  103.0380 C.3   210  LEU210      0.0001
     51  N          8.7740   15.2020  105.8280 N.am  211  SER211     -0.1950
     52  CA         9.1750   15.9230  107.0370 C.3   211  SER211      0.1924
     53  C          9.5630   14.9400  108.1440 C.2   211  SER211      0.2314
     54  O          9.3660   13.7330  108.0070 O.2   211  SER211     -0.2863
     55  CB         8.0150   16.7760  107.5440 C.3   211  SER211      0.2116
     56  OG         6.9950   15.9340  108.0700 O.3   211  SER211     -0.2180
     57  N          6.4390   13.3440  109.0690 N.3   214  GLY214     -0.1225
     58  CA         6.0670   12.4470  107.9730 C.3   214  GLY214      0.1811
     59  C          6.8550   11.1470  107.9260 C.2   214  GLY214      0.2280
     60  O          6.3000   10.0600  107.7480 O.2   214  GLY214     -0.2866
     61  N          5.6650    8.9860  110.8030 N.3   217  VAL217     -0.1231
     62  CA         4.4380    8.2710  110.4400 C.3   217  VAL217      0.1692
     63  C          4.7720    6.9810  109.7100 C.2   217  VAL217      0.2592
     64  O          4.3250    5.9080  110.1090 O.2   217  VAL217     -0.2718
     65  CB         3.5070    9.1420  109.5580 C.3   217  VAL217      0.0266
     66  CG1        2.4030    8.3110  108.9040 C.3   217  VAL217      0.0020
     67  CG2        2.8950   10.2640  110.3870 C.3   217  VAL217      0.0020
     68  N          5.5490    7.0990  108.6370 N.am  218  GLY218     -0.1957
     69  CA         5.9370    5.9410  107.8340 C.3   218  GLY218      0.1869
     70  C          6.7480    4.9140  108.6100 C.2   218  GLY218      0.2309
     71  O          6.4890    3.7200  108.5340 O.2   218  GLY218     -0.2863
     72  N          4.5140    2.6800  110.9920 N.3   221  ILE221     -0.1231
     73  CA         3.8040    1.6170  110.2630 C.3   221  ILE221      0.1692
     74  C          4.7130    0.4140  109.9770 C.2   221  ILE221      0.2591
     75  O          4.3200   -0.7220  110.2300 O.2   221  ILE221     -0.2718
     76  CB         3.1620    2.1500  108.9520 C.3   221  ILE221      0.0266
     77  CG1        2.0020    3.1040  109.2920 C.3   221  ILE221      0.0019
     78  CG2        2.6350    1.0110  108.0820 C.3   221  ILE221      0.0020
     79  CD1        1.8080    4.2230  108.2960 C.3   221  ILE221      0.0001
     80  N          5.9100    0.6590  109.4490 N.am  222  ILE222     -0.1980
     81  CA         6.8370   -0.4400  109.1140 C.3   222  ILE222      0.1595
     82  C          7.4830   -1.0550  110.3620 C.2   222  ILE222      0.2287
     83  O          7.8640   -2.2330  110.3580 O.2   222  ILE222     -0.2864
     84  CB         7.8920   -0.0500  108.0450 C.3   222  ILE222      0.0276
     85  CG1        8.7220    1.1810  108.4540 C.3   222  ILE222      0.0022
     86  CG2        7.2040    0.1880  106.7020 C.3   222  ILE222      0.0022
     87  CD1        9.9820    1.3750  107.6240 C.3   222  ILE222      0.0001
     88  N          4.9200   -3.5570  111.4060 N.3   225  MET225     -0.1245
     89  CA         5.0270   -4.6830  110.4980 C.3   225  MET225      0.1570
     90  C          6.2250   -5.5540  110.8650 C.2   225  MET225      0.2261
     91  O          6.0750   -6.7630  111.1060 O.2   225  MET225     -0.2867
     92  CB         5.1570   -4.2110  109.0460 C.3   225  MET225      0.0387
     93  CG         3.9030   -3.5770  108.4570 C.3   225  MET225      0.0595
     94  SD         4.2100   -2.8970  106.8060 S.3   225  MET225     -0.1393
     95  CE         4.5500   -4.4040  105.8860 C.3   225  MET225      0.0692
@<TRIPOS>BOND
     1    42    40    1
     2    41    40    1
     3    40    37    1
     4    37    36    1
     5    37    38    1
     6    19    17    1
     7    26    27    1
     8    26    25    1
     9    39    38    2
    10    38    43   am
    11    17    18    1
    12    17    14    1
    13    14    13    1
    14    14    15    1
    15    43    44    1
    16    25    24    1
    17    16    15    2
    18    50    48    1
    19    28    29    1
    20    20    21    1
    21    21    24    1
    22    21    22    1
    23    48    49    1
    24    48    47    1
    25    23    22    2
    26    44    47    1
    27    44    45    1
    28    29    30    1
    29    29    32    1
    30    35    33    1
    31    30    31    2
    32    45    46    2
    33    45    51   am
    34    33    32    1
    35    33    34    1
    36    51    52    1
    37    95    94    1
    38    86    84    1
    39     7     5    1
    40    94    93    1
    41    52    55    1
    42    52    53    1
    43    55    56    1
    44    87    85    1
    45    60    59    2
    46    69    70    1
    47    69    68    1
    48     6     5    1
    49    59    58    1
    50    58    57    1
    51     5     2    1
    52    54    53    2
    53    84    85    1
    54    84    81    1
    55    78    76    1
    56    79    77    1
    57    93    92    1
    58    71    70    2
    59    68    63   am
    60    66    65    1
    61    76    77    1
    62    76    73    1
    63    92    89    1
    64    81    80    1
    65    81    82    1
    66     1     2    1
    67     2     3    1
    68    12     9    1
    69    80    74   am
    70    65    67    1
    71    65    62    1
    72    63    64    2
    73    63    62    1
    74     8     9    1
    75    74    75    2
    76    74    73    1
    77     9    10    1
    78    73    72    1
    79    83    82    2
    80    62    61    1
    81     3     4    2
    82    89    90    1
    83    89    88    1
    84    90    91    2
    85    10    11    2
