@<TRIPOS>MOLECULE
tmp/6eidA00.pdb
 89 86 0 0 0
SMALL
GASTEIGER

@<TRIPOS>ATOM
      1  N         23.4000  -22.5170   84.0780 N.3    82  HIS82      -0.1241
      2  CA        22.4590  -21.4110   84.1100 C.3    82  HIS82       0.1621
      3  C         22.3000  -20.7450   82.7300 C.2    82  HIS82       0.2264
      4  O         23.1700  -20.8590   81.8330 O.2    82  HIS82      -0.2867
      5  CB        22.9240  -20.3950   85.1540 C.3    82  HIS82       0.0745
      6  CG        23.0200  -20.9610   86.5400 C.ar   82  HIS82       0.0817
      7  ND1       21.9580  -20.9670   87.4140 N.ar   82  HIS82      -0.2268
      8  CD2       24.0460  -21.5510   87.1990 C.ar   82  HIS82       0.1154
      9  CE1       22.3260  -21.5190   88.5560 C.ar   82  HIS82       0.1986
     10  NE2       23.5910  -21.8840   88.4510 N.ar   82  HIS82      -0.2212
     11  N         27.6490  -18.6480   92.7620 N.3   139  GLY139     -0.1225
     12  CA        28.1080  -18.5730   94.1560 C.3   139  GLY139      0.1811
     13  C         28.1090  -17.1850   94.7770 C.2   139  GLY139      0.2280
     14  O         27.2150  -16.3970   94.5120 O.2   139  GLY139     -0.2866
     15  N         28.6520  -13.8480   92.7110 N.3   142  LYS142     -0.1231
     16  CA        27.3930  -13.2340   92.2950 C.3   142  LYS142      0.1693
     17  C         26.9490  -12.0990   93.2280 C.2   142  LYS142      0.2591
     18  O         26.4700  -11.0550   92.7520 O.2   142  LYS142     -0.2718
     19  CB        26.3040  -14.3210   92.2200 C.3   142  LYS142      0.0285
     20  CG        24.9300  -13.8520   91.7360 C.3   142  LYS142      0.0035
     21  CD        23.8620  -14.9360   91.6890 C.3   142  LYS142      0.0206
     22  CE        23.8420  -15.7150   90.3930 C.3   142  LYS142      0.1093
     23  NZ        23.3530  -14.9720   89.2060 N.3   142  LYS142     -0.1314
     24  N         27.1050  -12.3100   94.5460 N.am  143  VAL143     -0.1980
     25  CA        26.6660  -11.2980   95.5230 C.3   143  VAL143      0.1595
     26  C         27.5860  -10.0910   95.4530 C.2   143  VAL143      0.2287
     27  O         27.1030   -8.9610   95.5810 O.2   143  VAL143     -0.2864
     28  CB        26.6580  -11.8630   96.9660 C.3   143  VAL143      0.0276
     29  CG1       26.3730  -10.7940   98.0300 C.3   143  VAL143      0.0022
     30  CG2       25.6640  -13.0110   97.0950 C.3   143  VAL143      0.0022
     31  N         26.7440   -7.9830   92.3310 N.3   146  PHE146     -0.1227
     32  CA        25.4800   -7.3240   92.5740 C.3   146  PHE146      0.1736
     33  C         25.6700   -6.1150   93.4820 C.2   146  PHE146      0.2595
     34  O         25.0620   -5.0820   93.2560 O.2   146  PHE146     -0.2718
     35  CB        24.4630   -8.2950   93.1870 C.3   146  PHE146      0.0547
     36  CG        23.0780   -7.7340   93.2600 C.ar  146  PHE146     -0.0202
     37  CD1       22.6630   -7.0110   94.3720 C.ar  146  PHE146     -0.0042
     38  CD2       22.1950   -7.8890   92.1930 C.ar  146  PHE146     -0.0042
     39  CE1       21.3810   -6.4770   94.4330 C.ar  146  PHE146     -0.0003
     40  CE2       20.9150   -7.3550   92.2530 C.ar  146  PHE146     -0.0003
     41  CZ        20.5080   -6.6450   93.3720 C.ar  146  PHE146     -0.0000
     42  N         26.5280   -6.2480   94.4890 N.am  147  CYS147     -0.1970
     43  CA        26.8650   -5.1270   95.3730 C.3   147  CYS147      0.1712
     44  C         27.5080   -3.9750   94.6340 C.2   147  CYS147      0.2296
     45  O         27.1680   -2.8340   94.8900 O.2   147  CYS147     -0.2864
     46  CB        27.7770   -5.5730   96.5260 C.3   147  CYS147      0.0983
     47  SG        26.8430   -6.3800   97.8370 S.3   147  CYS147     -0.0798
     48  N         24.7520   -2.2110   92.9950 N.3   150  LEU150     -0.1245
     49  CA        24.0520   -1.3480   93.9550 C.3   150  LEU150      0.1561
     50  C         24.7900   -0.0450   94.2380 C.2   150  LEU150      0.2260
     51  O         24.1550    1.0100   94.3660 O.2   150  LEU150     -0.2867
     52  CB        23.8010   -2.0800   95.2700 C.3   150  LEU150      0.0270
     53  CG        22.6580   -3.0970   95.3000 C.3   150  LEU150      0.0019
     54  CD1       22.6540   -3.7460   96.6770 C.3   150  LEU150      0.0001
     55  CD2       21.2910   -2.4870   94.9860 C.3   150  LEU150      0.0001
     56  N         15.3140   -8.7580   89.4350 N.3   198  PHE198     -0.1227
     57  CA        16.5470   -9.4990   89.2860 C.3   198  PHE198      0.1736
     58  C         16.6630  -10.5000   90.4300 C.2   198  PHE198      0.2595
     59  O         16.8640  -11.7000   90.1850 O.2   198  PHE198     -0.2718
     60  CB        17.7370   -8.5300   89.2690 C.3   198  PHE198      0.0547
     61  CG        19.0730   -9.2050   89.0920 C.ar  198  PHE198     -0.0202
     62  CD1       19.6560   -9.8850   90.1420 C.ar  198  PHE198     -0.0042
     63  CD2       19.7420   -9.1410   87.8880 C.ar  198  PHE198     -0.0042
     64  CE1       20.8770  -10.5050   90.0000 C.ar  198  PHE198     -0.0003
     65  CE2       20.9670   -9.7480   87.7360 C.ar  198  PHE198     -0.0003
     66  CZ        21.5410  -10.4390   88.8000 C.ar  198  PHE198     -0.0000
     67  N         16.5280  -10.0120   91.6660 N.am  199  ILE199     -0.1980
     68  CA        16.5940  -10.8920   92.8550 C.3   199  ILE199      0.1595
     69  C         15.5470  -12.0170   92.8040 C.2   199  ILE199      0.2287
     70  O         15.8450  -13.1570   93.1210 O.2   199  ILE199     -0.2864
     71  CB        16.4340  -10.0780   94.1700 C.3   199  ILE199      0.0276
     72  CG1       17.6570   -9.1910   94.3920 C.3   199  ILE199      0.0022
     73  CG2       16.2780  -10.9730   95.3880 C.3   199  ILE199      0.0022
     74  CD1       17.3310   -7.9150   95.1360 C.3   199  ILE199      0.0001
     75  N         18.5420  -14.5980   90.2410 N.3   204  GLY204     -0.1210
     76  CA        18.5500  -14.4400   91.6820 C.3   204  GLY204      0.1956
     77  C         18.1390  -15.7260   92.3740 C.2   204  GLY204      0.2611
     78  O         18.7430  -16.7680   92.1540 O.2   204  GLY204     -0.2717
     79  N         17.1120  -15.6400   93.2120 N.am  205  PHE205     -0.1976
     80  CA        16.6200  -16.7690   93.9980 C.3   205  PHE205      0.1639
     81  C         15.5780  -17.6540   93.3070 C.2   205  PHE205      0.2290
     82  O         15.0980  -18.6150   93.8940 O.2   205  PHE205     -0.2864
     83  CB        16.0600  -16.2740   95.3370 C.3   205  PHE205      0.0560
     84  CG        17.1190  -15.8630   96.3020 C.ar  205  PHE205     -0.0200
     85  CD1       17.5370  -14.5530   96.3650 C.ar  205  PHE205     -0.0042
     86  CD2       17.6950  -16.7960   97.1640 C.ar  205  PHE205     -0.0042
     87  CE1       18.5260  -14.1620   97.2620 C.ar  205  PHE205     -0.0003
     88  CE2       18.6840  -16.4140   98.0540 C.ar  205  PHE205     -0.0003
     89  CZ        19.1080  -15.0960   98.0960 C.ar  205  PHE205     -0.0000
@<TRIPOS>BOND
     1     4     3    2
     2     3     2    1
     3     1     2    1
     4     2     5    1
     5     5     6    1
     6     6     8   ar
     7     6     7   ar
     8     8    10   ar
     9     7     9   ar
    10    65    63   ar
    11    65    66   ar
    12    63    61   ar
    13    10     9   ar
    14    66    64   ar
    15    61    60    1
    16    61    62   ar
    17    23    22    1
    18    60    57    1
    19    57    56    1
    20    57    58    1
    21    64    62   ar
    22    59    58    2
    23    75    76    1
    24    22    21    1
    25    58    67   am
    26    67    68    1
    27    76    77    1
    28    21    20    1
    29    20    19    1
    30    78    77    2
    31    38    40   ar
    32    38    36   ar
    33    19    16    1
    34    40    41   ar
    35    16    15    1
    36    16    17    1
    37    31    32    1
    38    77    79   am
    39    32    35    1
    40    32    33    1
    41    18    17    2
    42    11    12    1
    43    69    68    1
    44    69    70    2
    45    68    71    1
    46    48    49    1
    47    35    36    1
    48    79    80    1
    49    17    24   am
    50    34    33    2
    51    36    37   ar
    52    81    82    2
    53    81    80    1
    54    41    39   ar
    55    33    42   am
    56    49    50    1
    57    49    52    1
    58    80    83    1
    59    12    13    1
    60    71    72    1
    61    71    73    1
    62    50    51    2
    63    37    39   ar
    64    72    74    1
    65    42    43    1
    66    14    13    2
    67    24    25    1
    68    44    45    2
    69    44    43    1
    70    55    53    1
    71    52    53    1
    72    53    54    1
    73    83    84    1
    74    43    46    1
    75    26    25    1
    76    26    27    2
    77    25    28    1
    78    84    85   ar
    79    84    86   ar
    80    85    87   ar
    81    46    47    1
    82    28    30    1
    83    28    29    1
    84    86    88   ar
    85    87    89   ar
    86    88    89   ar
