@<TRIPOS>MOLECULE
tmp/6eidA05.pdb
 105 104 0 0 0
SMALL
GASTEIGER

@<TRIPOS>ATOM
      1  N         10.7220  -23.2330   81.7090 N.3    11  ARG11      -0.1245
      2  CA        10.7680  -21.7970   81.4800 C.3    11  ARG11       0.1563
      3  C          9.6680  -21.0640   82.2580 C.2    11  ARG11       0.2260
      4  O          9.6730  -19.8110   82.3670 O.2    11  ARG11      -0.2867
      5  CB        10.6230  -21.5420   79.9800 C.3    11  ARG11       0.0307
      6  CG        11.7280  -22.2060   79.1580 C.3    11  ARG11       0.0489
      7  CD        11.3450  -22.2320   77.7070 C.3    11  ARG11       0.2205
      8  NE        12.4130  -22.7210   76.8490 N.pl3  11  ARG11      -0.0865
      9  CZ        12.3320  -22.7900   75.5170 C.cat  11  ARG11       0.5346
     10  NH1       11.2270  -22.4090   74.8760 N.pl3  11  ARG11       0.1354
     11  NH2       13.3570  -23.2370   74.8110 N.pl3  11  ARG11       0.1354
     12  N          3.6600  -18.1630   80.3530 N.3    17  GLN17      -0.1245
     13  CA         4.0090  -18.0740   78.9300 C.3    17  GLN17       0.1566
     14  C          3.0040  -17.2500   78.1170 C.2    17  GLN17       0.2260
     15  O          3.3900  -16.3490   77.3450 O.2    17  GLN17      -0.2867
     16  CB         4.1460  -19.4600   78.3190 C.3    17  GLN17       0.0367
     17  CG         4.2860  -19.4500   76.7990 C.3    17  GLN17       0.0905
     18  CD         4.6930  -20.7940   76.2350 C.2    17  GLN17       0.2608
     19  OE1        5.2620  -20.8610   75.1480 O.2    17  GLN17      -0.2717
     20  NE2        4.4220  -21.8710   76.9760 N.am   17  GLN17      -0.0878
     21  N          3.6250  -13.7560   76.3090 N.3    21  ASN21      -0.1240
     22  CA         3.3110  -13.5370   74.8950 C.3    21  ASN21       0.1653
     23  C          2.3130  -12.4050   74.6650 C.2    21  ASN21       0.2266
     24  O          2.5180  -11.5760   73.7820 O.2    21  ASN21      -0.2867
     25  CB         2.7950  -14.8200   74.2340 C.3    21  ASN21       0.1155
     26  CG         3.9060  -15.7830   73.8720 C.2    21  ASN21       0.2627
     27  OD1        5.0710  -15.4060   73.7640 O.2    21  ASN21      -0.2716
     28  ND2        3.5440  -17.0460   73.6750 N.am   21  ASN21      -0.0877
     29  N          2.8200   -8.5100   72.5230 N.3    25  TRP25      -0.1241
     30  CA         1.9430   -7.9240   71.5000 C.3    25  TRP25       0.1605
     31  C          1.5360   -6.5060   71.8790 C.2    25  TRP25       0.2264
     32  O          1.6430   -5.5890   71.0490 O.2    25  TRP25      -0.2867
     33  CB         0.6790   -8.7770   71.2900 C.3    25  TRP25       0.0550
     34  CG         0.8750  -10.0440   70.5180 C.ar   25  TRP25       0.0003
     35  CD1        1.0020  -11.3160   71.0210 C.ar   25  TRP25       0.0946
     36  CD2        0.8870  -10.1840   69.0930 C.ar   25  TRP25       0.0152
     37  NE1        1.1390  -12.2240   70.0000 N.ar   25  TRP25      -0.2442
     38  CE2        1.0620  -11.5600   68.8060 C.ar   25  TRP25       0.0810
     39  CE3        0.7760   -9.2800   68.0230 C.ar   25  TRP25       0.0012
     40  CZ2        1.1330  -12.0520   67.4920 C.ar   25  TRP25       0.0191
     41  CZ3        0.8480   -9.7710   66.7130 C.ar   25  TRP25       0.0001
     42  CH2        1.0260  -11.1480   66.4650 C.ar   25  TRP25       0.0015
     43  N         12.3020  -10.6600   71.1850 N.3    65  GLU65      -0.1231
     44  CA        12.0250  -11.5100   72.3260 C.3    65  GLU65       0.1699
     45  C         10.9110  -12.4910   72.0010 C.2    65  GLU65       0.2592
     46  O         11.0000  -13.6810   72.3160 O.2    65  GLU65      -0.2718
     47  CB        11.6480  -10.6780   73.5490 C.3    65  GLU65       0.0402
     48  CG        11.5980  -11.5160   74.8260 C.3    65  GLU65       0.1161
     49  CD        11.4070  -10.6970   76.0860 C.2    65  GLU65       0.3649
     50  OE1       10.9720   -9.5270   76.0160 O.co2  65  GLU65      -0.2457
     51  OE2       11.6840  -11.2460   77.1680 O.co2  65  GLU65      -0.2457
     52  N          9.8580  -11.9870   71.3700 N.am   66  PHE66      -0.1962
     53  CA         8.7540  -12.8450   70.9700 C.3    66  PHE66       0.1771
     54  C          9.2300  -14.0490   70.1620 C.2    66  PHE66       0.2619
     55  O          8.8670  -15.1740   70.4710 O.2    66  PHE66      -0.2715
     56  CB         7.7220  -12.0530   70.1740 C.3    66  PHE66       0.0574
     57  CG         6.5250  -12.8510   69.7940 C.ar   66  PHE66      -0.0200
     58  CD1        5.5990  -13.2280   70.7690 C.ar   66  PHE66      -0.0042
     59  CD2        6.3290  -13.2510   68.4810 C.ar   66  PHE66      -0.0042
     60  CE1        4.4810  -13.9810   70.4380 C.ar   66  PHE66      -0.0003
     61  CE2        5.1990  -13.9850   68.1350 C.ar   66  PHE66      -0.0003
     62  CZ         4.2740  -14.3460   69.1110 C.ar   66  PHE66      -0.0000
     63  N         10.0550  -13.8040   69.1460 N.am   67  PHE67      -0.1974
     64  CA        10.5530  -14.8900   68.2890 C.3    67  PHE67       0.1639
     65  C         11.7630  -15.6430   68.8580 C.2    67  PHE67       0.2290
     66  O         11.8550  -16.8580   68.6910 O.2    67  PHE67      -0.2864
     67  CB        10.8490  -14.3770   66.8790 C.3    67  PHE67       0.0560
     68  CG         9.6090  -14.0280   66.0980 C.ar   67  PHE67      -0.0200
     69  CD1        8.6870  -15.0230   65.7480 C.ar   67  PHE67      -0.0042
     70  CD2        9.3510  -12.7170   65.7030 C.ar   67  PHE67      -0.0042
     71  CE1        7.5430  -14.7170   65.0270 C.ar   67  PHE67      -0.0003
     72  CE2        8.2060  -12.4110   64.9740 C.ar   67  PHE67      -0.0003
     73  CZ         7.3000  -13.4110   64.6380 C.ar   67  PHE67      -0.0000
     74  N         13.4670  -15.3350   72.3030 N.3    69  GLU69      -0.1231
     75  CA        13.8610  -15.1760   73.7120 C.3    69  GLU69       0.1699
     76  C         14.7880  -16.2660   74.2410 C.2    69  GLU69       0.2592
     77  O         15.6700  -15.9830   75.0360 O.2    69  GLU69      -0.2718
     78  CB        12.6440  -15.0980   74.6320 C.3    69  GLU69       0.0402
     79  CG        12.9910  -14.9320   76.1150 C.3    69  GLU69       0.1161
     80  CD        11.7880  -14.6680   76.9950 C.2    69  GLU69       0.3649
     81  OE1       10.6390  -14.8820   76.5460 O.co2  69  GLU69      -0.2457
     82  OE2       12.0090  -14.2640   78.1560 O.co2  69  GLU69      -0.2457
     83  N         14.5790  -17.5030   73.7950 N.am   70  PHE70      -0.1976
     84  CA        15.3070  -18.6620   74.3020 C.3    70  PHE70       0.1639
     85  C         16.3560  -19.1910   73.3410 C.2    70  PHE70       0.2290
     86  O         16.9520  -20.2240   73.6140 O.2    70  PHE70      -0.2864
     87  CB        14.3150  -19.7570   74.6770 C.3    70  PHE70       0.0560
     88  CG        13.3120  -19.3100   75.6980 C.ar   70  PHE70      -0.0200
     89  CD1       12.1420  -18.6690   75.3090 C.ar   70  PHE70      -0.0042
     90  CD2       13.5570  -19.4860   77.0550 C.ar   70  PHE70      -0.0042
     91  CE1       11.2330  -18.2170   76.2460 C.ar   70  PHE70      -0.0003
     92  CE2       12.6450  -19.0480   78.0050 C.ar   70  PHE70      -0.0003
     93  CZ        11.4760  -18.4080   77.5980 C.ar   70  PHE70      -0.0000
     94  N          9.5710  -17.0130   82.2110 N.3   211  TYR211     -0.1241
     95  CA         8.3510  -16.3500   81.7420 C.3   211  TYR211      0.1605
     96  C          7.7880  -15.3620   82.7710 C.2   211  TYR211      0.2264
     97  O          7.3610  -14.2570   82.4080 O.2   211  TYR211     -0.2867
     98  CB         7.2770  -17.3700   81.3270 C.3   211  TYR211      0.0534
     99  CG         7.4750  -17.9160   79.9310 C.ar  211  TYR211     -0.0201
    100  CD1        7.5230  -17.0550   78.8430 C.ar  211  TYR211     -0.0009
    101  CD2        7.6060  -19.2740   79.6940 C.ar  211  TYR211     -0.0009
    102  CE1        7.7040  -17.5270   77.5570 C.ar  211  TYR211      0.0417
    103  CE2        7.7910  -19.7560   78.4110 C.ar  211  TYR211      0.0417
    104  CZ         7.8410  -18.8650   77.3410 C.ar  211  TYR211      0.1957
    105  OH         8.0370  -19.2900   76.0390 O.3   211  TYR211     -0.2866
@<TRIPOS>BOND
     1    73    72   ar
     2    73    71   ar
     3    72    70   ar
     4    71    69   ar
     5    70    68   ar
     6    69    68   ar
     7    68    67    1
     8    42    41   ar
     9    42    40   ar
    10    41    39   ar
    11    67    64    1
    12    40    38   ar
    13    39    36   ar
    14    61    59   ar
    15    61    62   ar
    16    64    65    1
    17    64    63    1
    18    59    57   ar
    19    66    65    2
    20    38    36   ar
    21    38    37   ar
    22    36    34   ar
    23    62    60   ar
    24    63    54   am
    25    57    56    1
    26    57    58   ar
    27    37    35   ar
    28    54    55    2
    29    54    53    1
    30    56    53    1
    31    60    58   ar
    32    34    35   ar
    33    34    33    1
    34    53    52    1
    35    32    31    2
    36    43    44    1
    37    33    30    1
    38    52    45   am
    39    30    31    1
    40    30    29    1
    41    45    46    2
    42    45    44    1
    43    74    75    1
    44    44    47    1
    45    85    86    2
    46    85    84    1
    47    47    48    1
    48    28    26   am
    49    75    76    1
    50    75    78    1
    51    27    26    2
    52    24    23    2
    53    83    76   am
    54    83    84    1
    55    26    25    1
    56    25    22    1
    57    76    77    2
    58    84    87    1
    59    78    79    1
    60    23    22    1
    61    87    88    1
    62    11     9    1
    63    48    49    1
    64    10     9    1
    65    22    21    1
    66    19    18    2
    67    89    88   ar
    68    89    91   ar
    69     9     8    2
    70    88    90   ar
    71    50    49   ar
    72   105   104    1
    73    49    51   ar
    74    79    80    1
    75    18    17    1
    76    18    20   am
    77    91    93   ar
    78    81    80   ar
    79    17    16    1
    80     8     7    1
    81    80    82   ar
    82    90    92   ar
    83   104   102   ar
    84   104   103   ar
    85    15    14    2
    86   102   100   ar
    87    93    92   ar
    88     7     6    1
    89    14    13    1
    90    16    13    1
    91   103   101   ar
    92   100    99   ar
    93    13    12    1
    94     6     5    1
    95   101    99   ar
    96    99    98    1
    97     5     2    1
    98    98    95    1
    99     2     1    1
   100     2     3    1
   101    95    94    1
   102    95    96    1
   103     3     4    2
   104    97    96    2
