@<TRIPOS>MOLECULE
tmp/6eidA01.pdb
 99 89 0 0 0
SMALL
GASTEIGER

@<TRIPOS>ATOM
      1  N          8.7320  -21.8510   82.7980 N.3    12  GLY12      -0.1210
      2  CA         7.5980  -21.3380   83.5430 C.3    12  GLY12       0.1956
      3  C          6.3350  -22.0530   83.1230 C.2    12  GLY12       0.2612
      4  O          6.3710  -22.9630   82.2910 O.2    12  GLY12      -0.2717
      5  N          5.2180  -21.6280   83.7060 N.am   13  THR13      -0.1952
      6  CA         3.9200  -22.2300   83.4410 C.3    13  THR13       0.1897
      7  C          3.3240  -21.7110   82.1350 C.2    13  THR13       0.2313
      8  O          3.7280  -20.6580   81.6290 O.2    13  THR13      -0.2863
      9  CB         2.9390  -21.9620   84.6010 C.3    13  THR13       0.1794
     10  OG1        2.6940  -20.5490   84.7400 O.3    13  THR13      -0.2208
     11  CG2        3.4570  -22.5450   85.9160 C.3    13  THR13       0.0378
     12  N          1.8810  -18.2560   82.5390 N.3    16  ALA16      -0.1245
     13  CA         2.9740  -17.2840   82.5130 C.3    16  ALA16       0.1562
     14  C          3.4810  -17.0690   81.0950 C.2    16  ALA16       0.2260
     15  O          3.6840  -15.9240   80.6800 O.2    16  ALA16      -0.2867
     16  CB         4.1070  -17.7210   83.4270 C.3    16  ALA16       0.0290
     17  N         10.0570    4.4690   90.7810 N.3   189  VAL189     -0.1245
     18  CA         9.3070    3.2340   90.9650 C.3   189  VAL189      0.1561
     19  C          9.6820    2.2040   89.9130 C.2   189  VAL189      0.2260
     20  O          9.9350    1.0580   90.2570 O.2   189  VAL189     -0.2867
     21  CB         7.7760    3.4790   90.9750 C.3   189  VAL189      0.0252
     22  CG1        6.9800    2.1890   90.7780 C.3   189  VAL189      0.0019
     23  CG2        7.3760    4.1500   92.2830 C.3   189  VAL189      0.0019
     24  N         12.2660   -1.1460   90.4440 N.3   193  MET193     -0.1245
     25  CA        11.7700   -2.5170   90.2640 C.3   193  MET193      0.1570
     26  C         12.7630   -3.4790   89.6280 C.2   193  MET193      0.2261
     27  O         12.7580   -4.6570   89.9540 O.2   193  MET193     -0.2867
     28  CB        10.4570   -2.5280   89.4660 C.3   193  MET193      0.0387
     29  CG         9.2250   -2.1780   90.3020 C.3   193  MET193      0.0595
     30  SD         8.9910   -3.1940   91.7620 S.3   193  MET193     -0.1393
     31  CE         8.8110   -4.8370   91.0530 C.3   193  MET193      0.0692
     32  N         13.2330   -7.3360   90.6050 N.3   197  LEU197     -0.1245
     33  CA        12.9390   -8.4530   89.7110 C.3   197  LEU197      0.1561
     34  C         14.1280   -9.3550   89.4740 C.2   197  LEU197      0.2260
     35  O         13.9710  -10.5680   89.3360 O.2   197  LEU197     -0.2867
     36  CB        12.3880   -7.9420   88.3800 C.3   197  LEU197      0.0270
     37  CG        10.9760   -7.3380   88.4340 C.3   197  LEU197      0.0019
     38  CD1       10.4250   -7.1650   87.0320 C.3   197  LEU197      0.0001
     39  CD2       10.0340   -8.2180   89.2370 C.3   197  LEU197      0.0001
     40  N         12.4330  -17.2300   92.5140 N.3   207  VAL207     -0.1231
     41  CA        11.0390  -17.1720   92.9290 C.3   207  VAL207      0.1692
     42  C         10.1730  -17.1410   91.6770 C.2   207  VAL207      0.2592
     43  O          9.1990  -17.8750   91.5840 O.2   207  VAL207     -0.2718
     44  CB        10.7520  -15.9340   93.8100 C.3   207  VAL207      0.0266
     45  CG1        9.2570  -15.6530   93.9210 C.3   207  VAL207      0.0020
     46  CG2       11.3720  -16.1190   95.1830 C.3   207  VAL207      0.0020
     47  N         10.5300  -16.2760   90.7310 N.am  208  LEU208     -0.1966
     48  CA         9.8490  -16.1910   89.4480 C.3   208  LEU208      0.1728
     49  C         10.5680  -17.0630   88.4440 C.2   208  LEU208      0.2616
     50  O         11.7760  -17.2780   88.5310 O.2   208  LEU208     -0.2715
     51  CB         9.8040  -14.7530   88.9340 C.3   208  LEU208      0.0311
     52  CG         9.0960  -13.7260   89.8130 C.3   208  LEU208      0.0022
     53  CD1        9.0560  -12.3850   89.1030 C.3   208  LEU208      0.0001
     54  CD2        7.6860  -14.1680   90.1750 C.3   208  LEU208      0.0001
     55  N          9.7980  -17.5840   87.4980 N.am  209  SER209     -0.1950
     56  CA        10.3220  -18.3170   86.3440 C.3   209  SER209      0.1924
     57  C         10.8160  -17.3360   85.2870 C.2   209  SER209      0.2314
     58  O         10.6100  -16.1210   85.3970 O.2   209  SER209     -0.2863
     59  CB         9.2120  -19.1730   85.7290 C.3   209  SER209      0.2116
     60  OG         8.2460  -18.3320   85.1000 O.3   209  SER209     -0.2180
     61  N          7.8000  -15.7440   84.0470 N.3   212  GLY212     -0.1225
     62  CA         7.3110  -14.8490   85.0990 C.3   212  GLY212      0.1811
     63  C          8.0890  -13.5440   85.2120 C.2   212  GLY212      0.2280
     64  O          7.5110  -12.4530   85.3290 O.2   212  GLY212     -0.2866
     65  N          7.1920  -11.3810   82.2270 N.3   215  VAL215     -0.1231
     66  CA         5.9310  -10.6710   82.4590 C.3   215  VAL215      0.1692
     67  C          6.1910   -9.3760   83.2160 C.2   215  VAL215      0.2592
     68  O          5.7890   -8.3050   82.7650 O.2   215  VAL215     -0.2718
     69  CB         4.9200  -11.5400   83.2400 C.3   215  VAL215      0.0266
     70  CG1        3.7590  -10.7060   83.7850 C.3   215  VAL215      0.0020
     71  CG2        4.4090  -12.6530   82.3510 C.3   215  VAL215      0.0020
     72  N          6.8550   -9.4910   84.3650 N.am  216  GLY216     -0.1957
     73  CA         7.1650   -8.3360   85.2050 C.3   216  GLY216      0.1869
     74  C          8.0370   -7.3050   84.5090 C.2   216  GLY216      0.2309
     75  O          7.7560   -6.1060   84.5510 O.2   216  GLY216     -0.2863
     76  N          6.0410   -5.0920   81.8760 N.3   219  ILE219     -0.1231
     77  CA         5.2630   -4.0200   82.5230 C.3   219  ILE219      0.1692
     78  C          6.1440   -2.8130   82.8950 C.2   219  ILE219      0.2591
     79  O          5.7830   -1.6730   82.5910 O.2   219  ILE219     -0.2718
     80  CB         4.5010   -4.5290   83.7720 C.3   219  ILE219      0.0266
     81  CG1        3.3970   -5.5100   83.3710 C.3   219  ILE219      0.0019
     82  CG2        3.8700   -3.3740   84.5450 C.3   219  ILE219      0.0020
     83  CD1        3.1580   -6.6090   84.3900 C.3   219  ILE219      0.0001
     84  N          7.2850   -3.0640   83.5450 N.am  220  ILE220     -0.1980
     85  CA         8.1680   -1.9640   83.9710 C.3   220  ILE220      0.1595
     86  C          8.9440   -1.3550   82.7930 C.2   220  ILE220      0.2287
     87  O          9.3230   -0.1780   82.8320 O.2   220  ILE220     -0.2864
     88  CB         9.1110   -2.3430   85.1450 C.3   220  ILE220      0.0276
     89  CG1        9.9750   -3.5700   84.8340 C.3   220  ILE220      0.0022
     90  CG2        8.2870   -2.5690   86.4050 C.3   220  ILE220      0.0022
     91  CD1       11.1380   -3.7760   85.7750 C.3   220  ILE220      0.0001
     92  N          6.4860    1.1060   81.4860 N.3   223  MET223     -0.1245
     93  CA         6.5090    2.2520   82.3940 C.3   223  MET223      0.1570
     94  C          7.7310    3.1250   82.1500 C.2   223  MET223      0.2261
     95  O          7.6090    4.3130   81.8980 O.2   223  MET223     -0.2867
     96  CB         6.4760    1.7930   83.8600 C.3   223  MET223      0.0387
     97  CG         5.1450    1.1880   84.3030 C.3   223  MET223      0.0595
     98  SD         5.2000    0.5120   85.9760 S.3   223  MET223     -0.1393
     99  CE         5.5680    1.9500   86.9630 C.3   223  MET223      0.0692
@<TRIPOS>BOND
     1    15    14    2
     2    14    13    1
     3    92    93    1
     4     8     7    2
     5    76    77    1
     6    95    94    2
     7     7     6    1
     8    94    93    1
     9    65    66    1
    10     4     3    2
    11    71    69    1
    12    93    96    1
    13    66    67    1
    14    66    69    1
    15    13    12    1
    16    13    16    1
    17    77    78    1
    18    77    80    1
    19    79    78    2
    20    68    67    2
    21    86    87    2
    22    86    85    1
    23     1     2    1
    24    78    84   am
    25     3     2    1
    26     3     5   am
    27    67    72   am
    28    69    70    1
    29    81    80    1
    30    81    83    1
    31     6     5    1
    32     6     9    1
    33    84    85    1
    34    80    82    1
    35    96    97    1
    36    85    88    1
    37    61    62    1
    38    97    98    1
    39    72    73    1
    40    74    75    2
    41    74    73    1
    42     9    10    1
    43     9    11    1
    44    89    88    1
    45    89    91    1
    46    62    63    1
    47    60    59    1
    48    88    90    1
    49    63    64    2
    50    57    58    2
    51    57    56    1
    52    59    56    1
    53    98    99    1
    54    56    55    1
    55    38    37    1
    56    55    49   am
    57    36    37    1
    58    36    33    1
    59    37    39    1
    60    49    50    2
    61    49    48    1
    62    51    48    1
    63    51    52    1
    64    53    52    1
    65    35    34    2
    66    48    47    1
    67    28    25    1
    68    28    29    1
    69    34    33    1
    70    26    27    2
    71    26    25    1
    72    33    32    1
    73    52    54    1
    74    19    20    2
    75    19    18    1
    76    25    24    1
    77    29    30    1
    78    47    42   am
    79    22    21    1
    80    17    18    1
    81    18    21    1
    82    21    23    1
    83    31    30    1
    84    43    42    2
    85    42    41    1
    86    40    41    1
    87    41    44    1
    88    44    45    1
    89    44    46    1
