@<TRIPOS>MOLECULE
tmp/6eidB02.pdb
 89 86 0 0 0
SMALL
GASTEIGER

@<TRIPOS>ATOM
      1  N         21.9550   20.0540  110.6030 N.3    84  HIS84      -0.1241
      2  CA        21.0240   18.9480  110.4820 C.3    84  HIS84       0.1621
      3  C         20.7270   18.2830  111.8330 C.2    84  HIS84       0.2264
      4  O         21.5140   18.3950  112.8090 O.2    84  HIS84      -0.2867
      5  CB        21.5780   17.9340  109.4850 C.3    84  HIS84       0.0745
      6  CG        21.8020   18.5000  108.1160 C.ar   84  HIS84       0.0817
      7  ND1       20.8170   18.5300  107.1510 N.ar   84  HIS84      -0.2268
      8  CD2       22.8930   19.0780  107.5570 C.ar   84  HIS84       0.1154
      9  CE1       21.2950   19.0870  106.0530 C.ar   84  HIS84       0.1986
     10  NE2       22.5550   19.4230  106.2700 N.ar   84  HIS84      -0.2212
     11  N         27.0390   16.2230  102.4500 N.3   141  GLY141     -0.1225
     12  CA        27.6090   16.1580  101.0970 C.3   141  GLY141      0.1811
     13  C         27.6880   14.7700  100.4710 C.2   141  GLY141      0.2280
     14  O         26.7860   13.9670  100.6430 O.2   141  GLY141     -0.2866
     15  N         28.0550   11.4250  102.5660 N.3   144  LYS144     -0.1231
     16  CA        26.7610   10.8150  102.8820 C.3   144  LYS144      0.1693
     17  C         26.3970    9.6740  101.9290 C.2   144  LYS144      0.2591
     18  O         25.8910    8.6440  102.3290 O.2   144  LYS144     -0.2718
     19  CB        25.6700   11.9110  102.8610 C.3   144  LYS144      0.0285
     20  CG        24.2570   11.4840  103.2450 C.3   144  LYS144      0.0035
     21  CD        23.3150   12.7210  103.3300 C.3   144  LYS144      0.0206
     22  CE        22.4700   12.7820  104.5930 C.3   144  LYS144      0.1093
     23  NZ        22.9340   13.6760  105.6850 N.3   144  LYS144     -0.1314
     24  N         26.6220    9.8870  100.6560 N.am  145  VAL145     -0.1980
     25  CA        26.3790    8.9190   99.5870 C.3   145  VAL145      0.1595
     26  C         27.2820    7.7100   99.7350 C.2   145  VAL145      0.2287
     27  O         26.8280    6.5860   99.5380 O.2   145  VAL145     -0.2864
     28  CB        26.5980    9.5500   98.1730 C.3   145  VAL145      0.0276
     29  CG1       26.3870    8.5170   97.0570 C.3   145  VAL145      0.0022
     30  CG2       25.6640   10.7390   97.9630 C.3   145  VAL145      0.0022
     31  N         26.1540    5.5700  102.7300 N.3   148  PHE148     -0.1227
     32  CA        24.9210    4.9100  102.3500 C.3   148  PHE148      0.1736
     33  C         25.2150    3.7070  101.4610 C.2   148  PHE148      0.2595
     34  O         24.5900    2.6580  101.6260 O.2   148  PHE148     -0.2718
     35  CB        23.9710    5.8740  101.6460 C.3   148  PHE148      0.0547
     36  CG        22.6060    5.3060  101.4260 C.ar  148  PHE148     -0.0202
     37  CD1       22.3100    4.5820  100.2740 C.ar  148  PHE148     -0.0042
     38  CD2       21.6150    5.4760  102.3810 C.ar  148  PHE148     -0.0042
     39  CE1       21.0450    4.0340  100.0810 C.ar  148  PHE148     -0.0003
     40  CE2       20.3490    4.9340  102.1960 C.ar  148  PHE148     -0.0003
     41  CZ        20.0630    4.2130  101.0420 C.ar  148  PHE148     -0.0000
     42  N         26.1740    3.8510  100.5480 N.am  149  CYS149     -0.1970
     43  CA        26.6120    2.7390   99.7010 C.3   149  CYS149      0.1712
     44  C         27.1760    1.5810  100.5030 C.2   149  CYS149      0.2296
     45  O         26.8770    0.4390  100.2110 O.2   149  CYS149     -0.2864
     46  CB        27.6440    3.1950   98.6580 C.3   149  CYS149      0.0983
     47  SG        26.8920    4.0200   97.2430 S.3   149  CYS149     -0.0798
     48  N         24.2680   -0.1990  101.8270 N.3   152  LEU152     -0.1245
     49  CA        23.6790   -1.0650  100.8010 C.3   152  LEU152      0.1561
     50  C         24.4450   -2.3750  100.6000 C.2   152  LEU152      0.2260
     51  O         23.8260   -3.4290  100.4010 O.2   152  LEU152     -0.2867
     52  CB        23.5770   -0.3400   99.4690 C.3   152  LEU152      0.0270
     53  CG        22.4540    0.6830   99.2980 C.3   152  LEU152      0.0019
     54  CD1       22.6380    1.3630   97.9440 C.3   152  LEU152      0.0001
     55  CD2       21.0610    0.0580   99.4180 C.3   152  LEU152      0.0001
     56  N         14.4850    6.3510  104.4490 N.3   200  PHE200     -0.1227
     57  CA        15.6990    7.0810  104.7240 C.3   200  PHE200      0.1736
     58  C         15.9310    8.0870  103.6080 C.2   200  PHE200      0.2595
     59  O         16.0970    9.2760  103.8730 O.2   200  PHE200     -0.2718
     60  CB        16.8730    6.1030  104.8600 C.3   200  PHE200      0.0547
     61  CG        18.1900    6.7590  105.1660 C.ar  200  PHE200     -0.0202
     62  CD1       18.8780    7.4580  104.1870 C.ar  200  PHE200     -0.0042
     63  CD2       18.7400    6.6760  106.4340 C.ar  200  PHE200     -0.0042
     64  CE1       20.0740    8.0700  104.4670 C.ar  200  PHE200     -0.0003
     65  CE2       19.9400    7.2840  106.7170 C.ar  200  PHE200     -0.0003
     66  CZ        20.6130    7.9770  105.7300 C.ar  200  PHE200     -0.0000
     67  N         15.9230    7.6110  102.3640 N.am  201  ILE201     -0.1980
     68  CA        16.1120    8.4930  101.1880 C.3   201  ILE201      0.1595
     69  C         15.0570    9.6110  101.1290 C.2   201  ILE201      0.2287
     70  O         15.3870   10.7600  100.8560 O.2   201  ILE201     -0.2864
     71  CB        16.1060    7.6850   99.8690 C.3   201  ILE201      0.0276
     72  CG1       17.3510    6.8000   99.7810 C.3   201  ILE201      0.0022
     73  CG2       16.0830    8.5950   98.6440 C.3   201  ILE201      0.0022
     74  CD1       17.0940    5.5340   98.9940 C.3   201  ILE201      0.0001
     75  N         17.7550   12.1400  104.0290 N.3   206  GLY206     -0.1210
     76  CA        17.9360   11.9920  102.5980 C.3   206  GLY206      0.1956
     77  C         17.6240   13.2750  101.8720 C.2   206  GLY206      0.2611
     78  O         18.2090   14.3170  102.1690 O.2   206  GLY206     -0.2717
     79  N         16.6870   13.1950  100.9260 N.am  207  PHE207     -0.1976
     80  CA        16.2890   14.3500  100.1190 C.3   207  PHE207      0.1639
     81  C         15.1910   15.2190  100.7280 C.2   207  PHE207      0.2290
     82  O         14.8120   16.2240  100.1250 O.2   207  PHE207     -0.2864
     83  CB        15.8530   13.8970   98.7200 C.3   207  PHE207      0.0560
     84  CG        16.9790   13.3740   97.8820 C.ar  207  PHE207     -0.0200
     85  CD1       17.7740   14.2370   97.1360 C.ar  207  PHE207     -0.0042
     86  CD2       17.2570   12.0220   97.8680 C.ar  207  PHE207     -0.0042
     87  CE1       18.8190   13.7550   96.3770 C.ar  207  PHE207     -0.0003
     88  CE2       18.3010   11.5260   97.1110 C.ar  207  PHE207     -0.0003
     89  CZ        19.0930   12.3980   96.3680 C.ar  207  PHE207     -0.0000
@<TRIPOS>BOND
     1    89    87   ar
     2    89    88   ar
     3    87    85   ar
     4    29    28    1
     5    88    86   ar
     6    85    84   ar
     7    47    46    1
     8    86    84   ar
     9    84    83    1
    10    54    53    1
    11    30    28    1
    12    28    25    1
    13    73    71    1
    14    46    43    1
    15    83    80    1
    16    74    72    1
    17    53    55    1
    18    53    52    1
    19    52    49    1
    20    27    26    2
    21    25    26    1
    22    25    24    1
    23    43    44    1
    24    43    42    1
    25    72    71    1
    26    71    68    1
    27    39    37   ar
    28    39    41   ar
    29    80    81    1
    30    80    79    1
    31    82    81    2
    32    45    44    2
    33    37    36   ar
    34    51    50    2
    35    13    14    2
    36    13    12    1
    37    42    33   am
    38    50    49    1
    39    24    17   am
    40    49    48    1
    41    70    69    2
    42    79    77   am
    43    41    40   ar
    44    12    11    1
    45    69    68    1
    46    68    67    1
    47    36    35    1
    48    36    38   ar
    49    33    34    2
    50    33    32    1
    51    35    32    1
    52    77    78    2
    53    77    76    1
    54    17    18    2
    55    17    16    1
    56    40    38   ar
    57    32    31    1
    58    67    58   am
    59    15    16    1
    60    76    75    1
    61    19    16    1
    62    19    20    1
    63    20    21    1
    64    21    22    1
    65    58    59    2
    66    58    57    1
    67    62    64   ar
    68    62    61   ar
    69    56    57    1
    70    64    66   ar
    71    22    23    1
    72    57    60    1
    73    60    61    1
    74    61    63   ar
    75    66    65   ar
    76     9    10   ar
    77     9     7   ar
    78    10     8   ar
    79    63    65   ar
    80     7     6   ar
    81     8     6   ar
    82     6     5    1
    83     5     2    1
    84     2     1    1
    85     2     3    1
    86     3     4    2
