@<TRIPOS>MOLECULE
tmp/6eidB04.pdb
 117 113 0 0 0
SMALL
GASTEIGER

@<TRIPOS>ATOM
      1  N         11.2130   -3.4810  124.0030 N.3    59  ILE59      -0.1245
      2  CA        11.9900   -2.3660  123.4530 C.3    59  ILE59       0.1561
      3  C         11.0930   -1.4460  122.6170 C.2    59  ILE59       0.2260
      4  O         11.1760   -0.2060  122.7170 O.2    59  ILE59      -0.2867
      5  CB        13.1960   -2.8630  122.6030 C.3    59  ILE59       0.0252
      6  CG1       14.2360   -3.5910  123.4690 C.3    59  ILE59       0.0019
      7  CG2       13.8850   -1.7100  121.8840 C.3    59  ILE59       0.0019
      8  CD1       15.0040   -2.7120  124.4510 C.3    59  ILE59       0.0001
      9  N          8.7980    0.6580  124.8450 N.3    62  VAL62      -0.1231
     10  CA         9.5780    1.7260  125.4790 C.3    62  VAL62       0.1692
     11  C          9.9230    2.8260  124.4700 C.2    62  VAL62       0.2591
     12  O          9.8190    4.0310  124.7870 O.2    62  VAL62      -0.2718
     13  CB        10.8620    1.1840  126.1530 C.3    62  VAL62       0.0266
     14  CG1       11.7840    2.3120  126.5980 C.3    62  VAL62       0.0020
     15  CG2       10.4990    0.3290  127.3570 C.3    62  VAL62       0.0020
     16  N         10.3340    2.4110  123.2690 N.am   63  LYS63      -0.1980
     17  CA        10.7470    3.3720  122.2570 C.3    63  LYS63       0.1596
     18  C          9.6440    4.3600  121.8800 C.2    63  LYS63       0.2287
     19  O          9.9080    5.5430  121.8260 O.2    63  LYS63      -0.2864
     20  CB        11.2840    2.6570  121.0160 C.3    63  LYS63       0.0298
     21  CG        11.6010    3.5640  119.8270 C.3    63  LYS63       0.0038
     22  CD        10.6750    3.2640  118.6680 C.3    63  LYS63       0.0206
     23  CE        10.4120    4.4470  117.7590 C.3    63  LYS63       0.1093
     24  NZ         9.6460    4.0380  116.5480 N.3    63  LYS63      -0.1314
     25  N          9.0550    6.7650  124.7220 N.3    66  LEU66      -0.1245
     26  CA        10.1520    7.7570  124.7060 C.3    66  LEU66       0.1561
     27  C         10.0620    8.7440  123.5410 C.2    66  LEU66       0.2260
     28  O         10.3780    9.9210  123.6960 O.2    66  LEU66      -0.2867
     29  CB        11.5260    7.0770  124.6750 C.3    66  LEU66       0.0270
     30  CG        12.0240    6.4030  125.9610 C.3    66  LEU66       0.0019
     31  CD1       13.4320    5.8650  125.7310 C.3    66  LEU66       0.0001
     32  CD2       12.0010    7.3450  127.1690 C.3    66  LEU66       0.0001
     33  N          9.8340   12.5510  124.0560 N.3    70  PHE70      -0.1241
     34  CA        11.1790   13.1130  123.8610 C.3    70  PHE70       0.1605
     35  C         11.7570   13.0440  122.4440 C.2    70  PHE70       0.2264
     36  O         12.9550   13.0860  122.3050 O.2    70  PHE70      -0.2867
     37  CB        12.1690   12.4180  124.7910 C.3    70  PHE70       0.0534
     38  CG        11.7250   12.3220  126.2150 C.ar   70  PHE70      -0.0203
     39  CD1       11.6470   13.4540  127.0170 C.ar   70  PHE70      -0.0042
     40  CD2       11.4410   11.0900  126.7810 C.ar   70  PHE70      -0.0042
     41  CE1       11.2680   13.3560  128.3550 C.ar   70  PHE70      -0.0003
     42  CE2       11.0610   10.9910  128.1140 C.ar   70  PHE70      -0.0003
     43  CZ        10.9690   12.1260  128.9000 C.ar   70  PHE70      -0.0000
     44  N         14.0730   16.1190  121.6910 N.3    73  LYS73      -0.1231
     45  CA        15.0380   16.4210  122.7320 C.3    73  LYS73       0.1693
     46  C         16.2750   15.4850  122.6710 C.2    73  LYS73       0.2592
     47  O         16.1670   14.2490  122.4760 O.2    73  LYS73      -0.2718
     48  CB        14.3470   16.3480  124.0980 C.3    73  LYS73       0.0285
     49  CG        15.1700   16.9420  125.2280 C.3    73  LYS73       0.0035
     50  CD        14.4990   16.7430  126.5830 C.3    73  LYS73       0.0206
     51  CE        14.8720   15.4190  127.2150 C.3    73  LYS73       0.1093
     52  NZ        16.3330   15.2920  127.4930 N.3    73  LYS73      -0.1314
     53  N         17.4560   16.1010  122.8180 N.am   74  ASN74      -0.1961
     54  CA        18.7500   15.4090  122.9530 C.3    74  ASN74       0.1804
     55  C         18.6970   14.4800  124.1760 C.2    74  ASN74       0.2463
     56  O         18.1160   14.8650  125.1800 O.2    74  ASN74      -0.2730
     57  CB        19.8690   16.4470  123.1280 C.3    74  ASN74       0.1195
     58  CG        21.2620   15.8400  123.0680 C.2    74  ASN74       0.2630
     59  OD1       21.8610   15.5280  124.0880 O.2    74  ASN74      -0.2716
     60  ND2       21.7820   15.6670  121.8600 N.am   74  ASN74      -0.0877
     61  N         19.2590   13.2720  124.1220 N.am   75  PRO75      -0.2716
     62  CA        20.0150   12.7400  122.9900 C.3    75  PRO75       0.1536
     63  C         19.1790   11.9340  122.0080 C.2    75  PRO75       0.2599
     64  O         19.7650   11.2250  121.1920 O.2    75  PRO75      -0.2715
     65  CB        21.0210   11.8240  123.6830 C.3    75  PRO75       0.0310
     66  CG        20.2070   11.2120  124.7780 C.3    75  PRO75       0.0237
     67  CD        19.2410   12.2980  125.2280 C.3    75  PRO75       0.0939
     68  N         17.8420   12.0380  122.0550 N.am   76  SER76      -0.1950
     69  CA        17.0190   11.2110  121.1760 C.3    76  SER76       0.1924
     70  C         17.0290   11.8130  119.7480 C.2    76  SER76       0.2314
     71  O         17.0050   11.0770  118.7530 O.2    76  SER76      -0.2863
     72  CB        15.6250   10.9760  121.7820 C.3    76  SER76       0.2116
     73  OG        14.6650   11.8210  121.2250 O.3    76  SER76      -0.2180
     74  N         18.6880    9.9060  116.4360 N.3    88  TRP88      -0.1227
     75  CA        19.5240    8.8640  117.0650 C.3    88  TRP88       0.1737
     76  C         18.7090    7.7990  117.7780 C.2    88  TRP88       0.2595
     77  O         19.1120    6.6420  117.8080 O.2    88  TRP88      -0.2718
     78  CB        20.5170    9.4650  118.0580 C.3    88  TRP88       0.0564
     79  CG        21.1340    8.4520  118.9510 C.ar   88  TRP88       0.0003
     80  CD1       20.9240    8.3030  120.2960 C.ar   88  TRP88       0.0946
     81  CD2       22.0320    7.4150  118.5720 C.ar   88  TRP88       0.0152
     82  NE1       21.6520    7.2430  120.7790 N.ar   88  TRP88      -0.2442
     83  CE2       22.3430    6.6810  119.7410 C.ar   88  TRP88       0.0810
     84  CE3       22.6040    7.0280  117.3640 C.ar   88  TRP88       0.0012
     85  CZ2       23.2050    5.5920  119.7280 C.ar   88  TRP88       0.0191
     86  CZ3       23.4740    5.9440  117.3590 C.ar   88  TRP88       0.0001
     87  CH2       23.7600    5.2430  118.5300 C.ar   88  TRP88       0.0015
     88  N         17.5750    8.1960  118.3580 N.am   89  LEU89      -0.1980
     89  CA        16.5980    7.2440  118.8790 C.3    89  LEU89       0.1596
     90  C         16.1640    6.2080  117.8530 C.2    89  LEU89       0.2287
     91  O         15.9740    5.0470  118.1970 O.2    89  LEU89      -0.2864
     92  CB        15.3610    7.9820  119.3720 C.3    89  LEU89       0.0297
     93  CG        14.1920    7.1520  119.8990 C.3    89  LEU89       0.0022
     94  CD1       14.5740    6.3870  121.1560 C.3    89  LEU89       0.0001
     95  CD2       13.0230    8.0640  120.2200 C.3    89  LEU89       0.0001
     96  N         19.3980    3.9000  117.3260 N.3    92  ALA92      -0.1231
     97  CA        19.7480    3.1910  118.5500 C.3    92  ALA92       0.1694
     98  C         18.8830    1.9740  118.7160 C.2    92  ALA92       0.2591
     99  O         19.3570    0.8870  118.9990 O.2    92  ALA92      -0.2718
    100  CB        19.5610    4.1010  119.7500 C.3    92  ALA92       0.0304
    101  N         17.5900    2.1840  118.5340 N.am   93  GLU93      -0.1979
    102  CA        16.5730    1.1550  118.6370 C.3    93  GLU93       0.1602
    103  C         16.8320    0.0050  117.6560 C.2    93  GLU93       0.2287
    104  O         16.7070   -1.1630  118.0380 O.2    93  GLU93      -0.2864
    105  CB        15.2010    1.8010  118.4430 C.3    93  GLU93       0.0415
    106  CG        13.9940    0.8740  118.3950 C.3    93  GLU93       0.1163
    107  CD        13.5340    0.5280  116.9670 C.2    93  GLU93       0.3649
    108  OE1       13.7190   -0.6540  116.6090 O.co2  93  GLU93      -0.2457
    109  OE2       13.0160    1.4020  116.2120 O.co2  93  GLU93      -0.2457
    110  N         19.4810   -2.4340  118.8830 N.3    96  LEU96      -0.1245
    111  CA        18.9760   -3.2850  119.9630 C.3    96  LEU96       0.1561
    112  C         18.0190   -4.3800  119.4700 C.2    96  LEU96       0.2260
    113  O         18.0840   -5.5120  119.9640 O.2    96  LEU96      -0.2867
    114  CB        18.2980   -2.4490  121.0510 C.3    96  LEU96       0.0270
    115  CG        19.1580   -1.4030  121.7600 C.3    96  LEU96       0.0019
    116  CD1       18.2990   -0.4900  122.6130 C.3    96  LEU96       0.0001
    117  CD2       20.2190   -2.0640  122.6060 C.3    96  LEU96       0.0001
@<TRIPOS>BOND
     1   109   107   ar
     2    74    75    1
     3    24    23    1
     4   108   107   ar
     5   107   106    1
     6    75    76    1
     7    75    78    1
     8    96    97    1
     9    86    84   ar
    10    86    87   ar
    11    84    81   ar
    12   103   104    2
    13   103   102    1
    14    23    22    1
    15    76    77    2
    16    76    88   am
    17    90    91    2
    18    90    89    1
    19    78    79    1
    20    88    89    1
    21   106   105    1
    22   105   102    1
    23    87    85   ar
    24   101   102    1
    25   101    98   am
    26    97    98    1
    27    97   100    1
    28    81    79   ar
    29    81    83   ar
    30    22    21    1
    31    98    99    2
    32    71    70    2
    33    89    92    1
    34   110   111    1
    35    79    80   ar
    36    92    93    1
    37   112   111    1
    38   112   113    2
    39    85    83   ar
    40    83    82   ar
    41    70    69    1
    42    21    20    1
    43    93    95    1
    44    93    94    1
    45   111   114    1
    46    80    82   ar
    47    20    17    1
    48   114   115    1
    49    69    72    1
    50    69    68    1
    51    64    63    2
    52    73    72    1
    53    44    45    1
    54   115   117    1
    55   115   116    1
    56    19    18    2
    57    60    58   am
    58    18    17    1
    59     7     5    1
    60    63    68   am
    61    63    62    1
    62    17    16    1
    63    36    35    2
    64    35    34    1
    65    47    46    2
    66     5     2    1
    67     5     6    1
    68     3     4    2
    69     3     2    1
    70    46    45    1
    71    46    53   am
    72    45    48    1
    73    53    54    1
    74    54    57    1
    75    54    55    1
    76    62    65    1
    77    62    61    1
    78    58    57    1
    79    58    59    2
    80    16    11   am
    81     2     1    1
    82     6     8    1
    83    27    28    2
    84    27    26    1
    85    65    66    1
    86    34    33    1
    87    34    37    1
    88    48    49    1
    89    61    55   am
    90    61    67    1
    91    55    56    2
    92    11    12    2
    93    11    10    1
    94    29    26    1
    95    29    30    1
    96    26    25    1
    97    66    67    1
    98    37    38    1
    99     9    10    1
   100    49    50    1
   101    10    13    1
   102    31    30    1
   103    30    32    1
   104    13    14    1
   105    13    15    1
   106    38    40   ar
   107    38    39   ar
   108    50    51    1
   109    40    42   ar
   110    39    41   ar
   111    51    52    1
   112    42    43   ar
   113    41    43   ar
