@<TRIPOS>MOLECULE
tmp/6eidA03.pdb
 117 113 0 0 0
SMALL
GASTEIGER

@<TRIPOS>ATOM
      1  N         14.0210    1.0530   69.5990 N.3    57  ILE57      -0.1245
      2  CA        14.7510   -0.0630   70.2270 C.3    57  ILE57       0.1561
      3  C         13.7760   -0.9790   70.9780 C.2    57  ILE57       0.2260
      4  O         13.8720   -2.2080   70.8940 O.2    57  ILE57      -0.2867
      5  CB        15.8620    0.4470   71.1930 C.3    57  ILE57       0.0252
      6  CG1       16.9670    1.1880   70.4280 C.3    57  ILE57       0.0019
      7  CG2       16.4840   -0.6970   71.9790 C.3    57  ILE57       0.0019
      8  CD1       17.8530    0.3330   69.5390 C.3    57  ILE57       0.0001
      9  N         11.7280   -3.0760   68.5270 N.3    60  VAL60      -0.1231
     10  CA        12.5700   -4.1540   67.9910 C.3    60  VAL60       0.1692
     11  C         12.8070   -5.2500   69.0420 C.2    60  VAL60       0.2591
     12  O         12.7300   -6.4560   68.7390 O.2    60  VAL60      -0.2718
     13  CB        13.9270   -3.6290   67.4570 C.3    60  VAL60       0.0266
     14  CG1       14.8380   -4.7780   67.0640 C.3    60  VAL60       0.0020
     15  CG2       13.7240   -2.7600   66.2360 C.3    60  VAL60       0.0020
     16  N         13.0960   -4.8300   70.2700 N.am   61  LYS61      -0.1980
     17  CA        13.3940   -5.7800   71.3360 C.3    61  LYS61       0.1596
     18  C         12.2390   -6.7340   71.6150 C.2    61  LYS61       0.2287
     19  O         12.4770   -7.9240   71.7280 O.2    61  LYS61      -0.2864
     20  CB        13.8150   -5.0570   72.6110 C.3    61  LYS61       0.0298
     21  CG        13.9950   -5.9540   73.8390 C.3    61  LYS61       0.0038
     22  CD        12.9640   -5.6610   74.9090 C.3    61  LYS61       0.0206
     23  CE        12.6310   -6.8710   75.7630 C.3    61  LYS61       0.1093
     24  NZ        11.7940   -6.4980   76.9450 N.3    61  LYS61      -0.1314
     25  N         12.0050   -9.1700   68.7680 N.3    64  LEU64      -0.1245
     26  CA        13.0970  -10.1580   68.9340 C.3    64  LEU64       0.1561
     27  C         12.8670  -11.1400   70.0870 C.2    64  LEU64       0.2260
     28  O         13.1980  -12.3150   69.9830 O.2    64  LEU64      -0.2867
     29  CB        14.4540   -9.4770   69.1490 C.3    64  LEU64       0.0270
     30  CG        15.1310   -8.7890   67.9690 C.3    64  LEU64       0.0019
     31  CD1       16.4700   -8.2030   68.4140 C.3    64  LEU64       0.0001
     32  CD2       15.3050   -9.7290   66.7880 C.3    64  LEU64       0.0001
     33  N         12.6710  -14.9470   69.5410 N.3    68  PHE68      -0.1241
     34  CA        13.9780  -15.5190   69.8800 C.3    68  PHE68       0.1605
     35  C         14.3910  -15.4650   71.3490 C.2    68  PHE68       0.2264
     36  O         15.5770  -15.6140   71.6120 O.2    68  PHE68      -0.2867
     37  CB        15.0840  -14.8230   69.0840 C.3    68  PHE68       0.0534
     38  CG        14.8070  -14.7070   67.6170 C.ar   68  PHE68      -0.0203
     39  CD1       14.7930  -15.8230   66.7900 C.ar   68  PHE68      -0.0042
     40  CD2       14.6080  -13.4670   67.0470 C.ar   68  PHE68      -0.0042
     41  CE1       14.5580  -15.6880   65.4300 C.ar   68  PHE68      -0.0003
     42  CE2       14.3760  -13.3280   65.6880 C.ar   68  PHE68      -0.0003
     43  CZ        14.3600  -14.4390   64.8780 C.ar   68  PHE68      -0.0000
     44  N         16.6050  -18.4640   72.2470 N.3    71  LYS71      -0.1231
     45  CA        17.6670  -18.8180   71.3040 C.3    71  LYS71       0.1693
     46  C         18.9180  -17.8940   71.4760 C.2    71  LYS71       0.2592
     47  O         18.7990  -16.6660   71.6550 O.2    71  LYS71      -0.2718
     48  CB        17.1140  -18.7750   69.8730 C.3    71  LYS71       0.0285
     49  CG        18.1060  -19.2940   68.8430 C.3    71  LYS71       0.0035
     50  CD        17.7850  -18.9410   67.4180 C.3    71  LYS71       0.0206
     51  CE        17.9570  -17.4770   67.0700 C.3    71  LYS71       0.1093
     52  NZ        17.6460  -17.2920   65.6190 N.3    71  LYS71      -0.1314
     53  N         20.0960  -18.5150   71.4320 N.am   72  ASN72      -0.1961
     54  CA        21.4000  -17.8300   71.4340 C.3    72  ASN72       0.1804
     55  C         21.4760  -16.8880   70.2260 C.2    72  ASN72       0.2463
     56  O         20.9970  -17.2620   69.1640 O.2    72  ASN72      -0.2730
     57  CB        22.5300  -18.8760   71.3570 C.3    72  ASN72       0.1195
     58  CG        23.9140  -18.2800   71.5630 C.2    72  ASN72       0.2630
     59  OD1       24.6150  -17.9550   70.6140 O.2    72  ASN72      -0.2716
     60  ND2       24.3070  -18.1230   72.8180 N.am   72  ASN72      -0.0877
     61  N         22.0390  -15.6830   70.3540 N.am   73  PRO73      -0.2716
     62  CA        22.6780  -15.1720   71.5610 C.3    73  PRO73       0.1536
     63  C         21.7430  -14.3590   72.4570 C.2    73  PRO73       0.2599
     64  O         22.2450  -13.6550   73.3320 O.2    73  PRO73      -0.2715
     65  CB        23.7640  -14.2620   70.9850 C.3    73  PRO73       0.0310
     66  CG        23.0780  -13.6350   69.8200 C.3    73  PRO73       0.0237
     67  CD        22.1360  -14.6930   69.2640 C.3    73  PRO73       0.0939
     68  N         20.4220  -14.4600   72.2770 N.am   74  SER74      -0.1950
     69  CA        19.5110  -13.6410   73.0680 C.3    74  SER74       0.1924
     70  C         19.3820  -14.2330   74.4950 C.2    74  SER74       0.2314
     71  O         19.2560  -13.4920   75.4810 O.2    74  SER74      -0.2863
     72  CB        18.1690  -13.4210   72.3330 C.3    74  SER74       0.2116
     73  OG        17.1770  -14.2820   72.7960 O.3    74  SER74      -0.2180
     74  N         20.7300  -12.3290   77.9440 N.3    86  TRP86      -0.1227
     75  CA        21.6120  -11.2800   77.3890 C.3    86  TRP86       0.1737
     76  C         20.8730  -10.2040   76.6190 C.2    86  TRP86       0.2595
     77  O         21.2880   -9.0510   76.6310 O.2    86  TRP86      -0.2718
     78  CB        22.6970  -11.8860   76.4990 C.3    86  TRP86       0.0564
     79  CG        23.4000  -10.8750   75.6760 C.ar   86  TRP86       0.0003
     80  CD1       23.3290  -10.7300   74.3190 C.ar   86  TRP86       0.0946
     81  CD2       24.2620   -9.8410   76.1440 C.ar   86  TRP86       0.0152
     82  NE1       24.1060   -9.6730   73.9140 N.ar   86  TRP86      -0.2442
     83  CE2       24.6940   -9.1140   75.0190 C.ar   86  TRP86       0.0810
     84  CE3       24.7150   -9.4590   77.4040 C.ar   86  TRP86       0.0012
     85  CZ2       25.5600   -8.0380   75.1160 C.ar   86  TRP86       0.0191
     86  CZ3       25.5820   -8.3790   77.4980 C.ar   86  TRP86       0.0001
     87  CH2       25.9940   -7.6860   76.3610 C.ar   86  TRP86       0.0015
     88  N         19.8040  -10.5910   75.9330 N.am   87  LEU87      -0.1980
     89  CA        18.9150   -9.6310   75.2630 C.3    87  LEU87       0.1596
     90  C         18.3750   -8.5680   76.2210 C.2    87  LEU87       0.2287
     91  O         18.2460   -7.4150   75.8570 O.2    87  LEU87      -0.2864
     92  CB        17.7420  -10.3610   74.6270 C.3    87  LEU87       0.0297
     93  CG        16.5980   -9.5330   74.0280 C.3    87  LEU87       0.0022
     94  CD1       17.0660   -8.7800   72.8040 C.3    87  LEU87       0.0001
     95  CD2       15.4280  -10.4300   73.6890 C.3    87  LEU87       0.0001
     96  N         21.5110   -6.3000   77.1190 N.3    90  ALA90      -0.1231
     97  CA        21.9770   -5.5920   75.9300 C.3    90  ALA90       0.1694
     98  C         21.1020   -4.3970   75.6590 C.2    90  ALA90       0.2591
     99  O         21.5990   -3.3000   75.4070 O.2    90  ALA90      -0.2718
    100  CB        21.9690   -6.5090   74.7290 C.3    90  ALA90       0.0304
    101  N         19.7950   -4.6310   75.7060 N.am   91  GLU91      -0.1979
    102  CA        18.8070   -3.5710   75.5070 C.3    91  GLU91       0.1602
    103  C         18.9590   -2.4220   76.5050 C.2    91  GLU91       0.2287
    104  O         18.8580   -1.2630   76.1230 O.2    91  GLU91      -0.2864
    105  CB        17.4080   -4.2060   75.5650 C.3    91  GLU91       0.0415
    106  CG        16.2130   -3.2730   75.4960 C.3    91  GLU91       0.1163
    107  CD        15.6100   -3.0050   76.8680 C.2    91  GLU91       0.3649
    108  OE1       14.9960   -3.9300   77.4940 O.co2  91  GLU91      -0.2457
    109  OE2       15.7420   -1.8440   77.3150 O.co2  91  GLU91      -0.2457
    110  N         21.6670    0.0220   75.5040 N.3    94  LEU94      -0.1245
    111  CA        21.2490    0.8610   74.3820 C.3    94  LEU94       0.1561
    112  C         20.2540    1.9560   74.7900 C.2    94  LEU94       0.2260
    113  O         20.3440    3.0770   74.2850 O.2    94  LEU94      -0.2867
    114  CB        20.6640    0.0090   73.2520 C.3    94  LEU94       0.0270
    115  CG        21.5630   -1.0390   72.6200 C.3    94  LEU94       0.0019
    116  CD1       20.7560   -1.9580   71.7170 C.3    94  LEU94       0.0001
    117  CD2       22.6750   -0.3750   71.8380 C.3    94  LEU94       0.0001
@<TRIPOS>BOND
     1    43    41   ar
     2    43    42   ar
     3    41    39   ar
     4    52    51    1
     5    42    40   ar
     6    15    13    1
     7    32    30    1
     8    39    38   ar
     9    40    38   ar
    10    14    13    1
    11    51    50    1
    12    50    49    1
    13    13    10    1
    14    38    37    1
    15    30    31    1
    16    30    29    1
    17    10     9    1
    18    10    11    1
    19    12    11    2
    20    25    26    1
    21    49    48    1
    22    26    29    1
    23    26    27    1
    24    11    16   am
    25    37    34    1
    26    56    55    2
    27    67    66    1
    28    67    61    1
    29     8     6    1
    30    33    34    1
    31     1     2    1
    32    66    65    1
    33    48    45    1
    34    34    35    1
    35    28    27    2
    36    55    61   am
    37    55    54    1
    38     2     3    1
    39     2     5    1
    40    16    17    1
    41    61    62    1
    42     6     5    1
    43    59    58    2
    44     4     3    2
    45    65    62    1
    46     5     7    1
    47    45    46    1
    48    45    44    1
    49    17    18    1
    50    17    20    1
    51    35    36    2
    52    57    54    1
    53    57    58    1
    54    53    54    1
    55    53    46   am
    56    46    47    2
    57    62    63    1
    58    58    60   am
    59    18    19    2
    60   116   115    1
    61   117   115    1
    62    68    63   am
    63    68    69    1
    64    72    73    1
    65    72    69    1
    66    63    64    2
    67    20    21    1
    68   115   114    1
    69    94    93    1
    70    69    70    1
    71   114   111    1
    72    95    93    1
    73    21    22    1
    74    82    80   ar
    75    82    83   ar
    76    93    92    1
    77   113   112    2
    78    80    79   ar
    79   111   112    1
    80   111   110    1
    81    70    71    2
    82    92    89    1
    83   100    97    1
    84    22    23    1
    85    83    85   ar
    86    83    81   ar
    87    85    87   ar
    88    89    88    1
    89    89    90    1
    90    99    98    2
    91   106   105    1
    92   106   107    1
    93   102   105    1
    94   102   101    1
    95   102   103    1
    96    98   101   am
    97    98    97    1
    98    79    81   ar
    99    79    78    1
   100    23    24    1
   101    91    90    2
   102    97    96    1
   103    88    76   am
   104   104   103    2
   105    81    84   ar
   106    87    86   ar
   107    78    75    1
   108    76    77    2
   109    76    75    1
   110   107   109   ar
   111   107   108   ar
   112    75    74    1
   113    84    86   ar
