@<TRIPOS>MOLECULE
tmp/6eifB00.pdb
 161 152 0 0 0
SMALL
GASTEIGER

@<TRIPOS>ATOM
      1  N         -4.3090   37.3720  -15.9090 N.3    33  ILE33      -0.1231
      2  CA        -3.7750   36.8290  -14.6420 C.3    33  ILE33       0.1692
      3  C         -2.8210   35.6360  -14.8080 C.2    33  ILE33       0.2592
      4  O         -1.9320   35.4510  -13.9750 O.2    33  ILE33      -0.2718
      5  CB        -4.8980   36.4930  -13.6240 C.3    33  ILE33       0.0266
      6  CG1       -5.8840   35.4520  -14.1720 C.3    33  ILE33       0.0019
      7  CG2       -5.6400   37.7630  -13.2280 C.3    33  ILE33       0.0020
      8  CD1       -6.8050   34.8840  -13.1140 C.3    33  ILE33       0.0001
      9  N         -2.9930   34.8410  -15.8670 N.am   34  GLY34      -0.1957
     10  CA        -2.1280   33.6820  -16.1210 C.3    34  GLY34       0.1869
     11  C         -1.9490   33.3380  -17.5900 C.2    34  GLY34       0.2309
     12  O         -2.7270   33.7680  -18.4440 O.2    34  GLY34      -0.2863
     13  N         -1.6630   25.7490  -22.9980 N.3    38  PHE38      -0.1241
     14  CA        -3.1100   25.7210  -23.2840 C.3    38  PHE38       0.1605
     15  C         -3.6870   27.0340  -23.8350 C.2    38  PHE38       0.2264
     16  O         -4.5820   27.0120  -24.6800 O.2    38  PHE38      -0.2867
     17  CB        -3.8970   25.3050  -22.0240 C.3    38  PHE38       0.0534
     18  CG        -3.8080   26.2930  -20.8830 C.ar   38  PHE38      -0.0203
     19  CD1       -4.6830   27.3780  -20.8060 C.ar   38  PHE38      -0.0042
     20  CD2       -2.8570   26.1340  -19.8760 C.ar   38  PHE38      -0.0042
     21  CE1       -4.6000   28.2890  -19.7590 C.ar   38  PHE38      -0.0003
     22  CE2       -2.7710   27.0410  -18.8270 C.ar   38  PHE38      -0.0003
     23  CZ        -3.6440   28.1190  -18.7690 C.ar   38  PHE38      -0.0000
     24  N         -5.4610   32.7250  -19.0390 N.3    41  VAL41      -0.1245
     25  CA        -6.4870   32.8630  -17.9980 C.3    41  VAL41       0.1561
     26  C         -6.6830   34.3510  -17.7200 C.2    41  VAL41       0.2260
     27  O         -5.7050   35.0840  -17.5640 O.2    41  VAL41      -0.2867
     28  CB        -6.0980   32.1520  -16.6840 C.3    41  VAL41       0.0252
     29  CG1       -7.2900   32.1090  -15.7300 C.3    41  VAL41       0.0019
     30  CG2       -5.5950   30.7430  -16.9600 C.3    41  VAL41       0.0019
     31  N        -12.9690   33.6580  -13.1020 N.3    54  ALA54      -0.1245
     32  CA       -11.7690   33.4320  -13.9050 C.3    54  ALA54       0.1562
     33  C        -12.1650   32.6940  -15.1810 C.2    54  ALA54       0.2260
     34  O        -12.8580   31.6740  -15.1120 O.2    54  ALA54      -0.2867
     35  CB       -10.7530   32.6180  -13.1240 C.3    54  ALA54       0.0290
     36  N        -10.7770   30.8620  -18.7330 N.3    56  LYS56      -0.1245
     37  CA        -9.6230   30.2090  -19.3550 C.3    56  LYS56       0.1561
     38  C         -9.8020   30.1230  -20.8830 C.2    56  LYS56       0.2260
     39  O        -10.4510   29.2050  -21.3860 O.2    56  LYS56      -0.2867
     40  CB        -9.4490   28.8120  -18.7500 C.3    56  LYS56       0.0271
     41  CG        -8.2130   28.0420  -19.1930 C.3    56  LYS56       0.0035
     42  CD        -8.3110   26.5920  -18.7490 C.3    56  LYS56       0.0206
     43  CE        -7.0360   25.8250  -19.0470 C.3    56  LYS56       0.1093
     44  NZ        -7.0600   24.4260  -18.5350 N.3    56  LYS56      -0.1314
     45  N        -10.9470   18.0180  -21.0040 N.3    71  GLU71      -0.1245
     46  CA       -11.0640   18.6690  -19.6930 C.3    71  GLU71       0.1567
     47  C        -12.5110   19.0650  -19.3680 C.2    71  GLU71       0.2260
     48  O        -12.9440   18.9080  -18.2240 O.2    71  GLU71      -0.2867
     49  CB       -10.1540   19.9050  -19.6080 C.3    71  GLU71       0.0388
     50  CG       -10.0380   20.5150  -18.2130 C.3    71  GLU71       0.1160
     51  CD        -9.2250   21.8010  -18.1810 C.2    71  GLU71       0.3649
     52  OE1       -8.6750   22.2090  -19.2260 O.co2  71  GLU71      -0.2457
     53  OE2       -9.1360   22.4140  -17.0970 O.co2  71  GLU71      -0.2457
     54  N        -11.9650   22.5660   -8.2120 N.3    90  VAL90      -0.1245
     55  CA       -12.3510   23.8500   -8.8130 C.3    90  VAL90       0.1561
     56  C        -13.6430   23.6960   -9.6280 C.2    90  VAL90       0.2260
     57  O        -13.7480   22.8010  -10.4690 O.2    90  VAL90      -0.2867
     58  CB       -11.2120   24.4600   -9.6770 C.3    90  VAL90       0.0252
     59  CG1      -10.9480   23.6460  -10.9450 C.3    90  VAL90       0.0019
     60  CG2      -11.5130   25.9150  -10.0230 C.3    90  VAL90       0.0019
     61  N        -14.4860   29.5630  -14.5680 N.3   106  PHE106     -0.1227
     62  CA       -14.3150   28.9550  -13.2390 C.3   106  PHE106      0.1736
     63  C        -14.6370   29.9560  -12.1410 C.2   106  PHE106      0.2595
     64  O        -14.7560   31.1540  -12.4020 O.2   106  PHE106     -0.2718
     65  CB       -12.8760   28.4650  -13.0610 C.3   106  PHE106      0.0547
     66  CG       -12.5220   27.2990  -13.9350 C.ar  106  PHE106     -0.0202
     67  CD1      -12.8360   26.0030  -13.5450 C.ar  106  PHE106     -0.0042
     68  CD2      -11.8850   27.4950  -15.1620 C.ar  106  PHE106     -0.0042
     69  CE1      -12.5140   24.9220  -14.3510 C.ar  106  PHE106     -0.0003
     70  CE2      -11.5580   26.4150  -15.9710 C.ar  106  PHE106     -0.0003
     71  CZ       -11.8730   25.1290  -15.5680 C.ar  106  PHE106     -0.0000
     72  N        -14.7820   29.4520  -10.9120 N.am  107  GLU107     -0.1965
     73  CA       -14.8260   30.3120   -9.7250 C.3   107  GLU107      0.1733
     74  C        -13.4690   30.9970   -9.5620 C.2   107  GLU107      0.2616
     75  O        -12.4270   30.3810   -9.8180 O.2   107  GLU107     -0.2715
     76  CB       -15.2020   29.5210   -8.4480 C.3   107  GLU107      0.0429
     77  CG       -14.1820   28.4910   -7.9590 C.3   107  GLU107      0.1163
     78  CD       -14.5810   27.8190   -6.6480 C.2   107  GLU107      0.3649
     79  OE1      -14.5040   26.5740   -6.5710 O.co2 107  GLU107     -0.2457
     80  OE2      -14.9520   28.5310   -5.6860 O.co2 107  GLU107     -0.2457
     81  N        -13.4870   32.2690   -9.1650 N.am  108  MET108     -0.1963
     82  CA       -12.2530   33.0170   -8.9120 C.3   108  MET108      0.1736
     83  C        -11.6830   32.5650   -7.5710 C.2   108  MET108      0.2616
     84  O        -12.4220   32.4140   -6.5920 O.2   108  MET108     -0.2715
     85  CB       -12.5150   34.5270   -8.9130 C.3   108  MET108      0.0427
     86  CG       -11.2880   35.4130   -8.6950 C.3   108  MET108      0.0599
     87  SD        -9.9620   35.2050   -9.9060 S.3   108  MET108     -0.1393
     88  CE        -8.8490   36.5200   -9.4200 C.3   108  MET108      0.0692
     89  N        -10.3690   32.3510   -7.5470 N.am  109  LEU109     -0.1963
     90  CA        -9.6580   31.8260   -6.3810 C.3   109  LEU109      0.1728
     91  C         -8.4300   32.6890   -6.0890 C.2   109  LEU109      0.2617
     92  O         -8.1400   33.6370   -6.8230 O.2   109  LEU109     -0.2715
     93  CB        -9.2440   30.3750   -6.6450 C.3   109  LEU109      0.0311
     94  CG       -10.3800   29.3900   -6.9450 C.3   109  LEU109      0.0022
     95  CD1       -9.8190   28.0600   -7.4220 C.3   109  LEU109      0.0001
     96  CD2      -11.2650   29.1960   -5.7210 C.3   109  LEU109      0.0001
     97  N         -7.7260   32.3600   -5.0080 N.am  110  SER110     -0.1936
     98  CA        -6.4950   33.0530   -4.6140 C.3   110  SER110      0.2055
     99  C         -5.2540   32.3620   -5.1860 C.2   110  SER110      0.2643
    100  O         -5.3550   31.3220   -5.8370 O.2   110  SER110     -0.2714
    101  CB        -6.3940   33.1230   -3.0870 C.3   110  SER110      0.2130
    102  OG        -7.5910   33.6240   -2.5220 O.3   110  SER110     -0.2179
    103  N         -4.0970   32.9790   -4.9530 N.am  111  TYR111     -0.1959
    104  CA        -2.7730   32.4470   -5.3410 C.3   111  TYR111      0.1771
    105  C         -2.4960   30.9840   -4.9560 C.2   111  TYR111      0.2619
    106  O         -3.1020   30.4450   -4.0300 O.2   111  TYR111     -0.2715
    107  CB        -1.6500   33.3460   -4.7870 C.3   111  TYR111      0.0574
    108  CG        -1.7120   33.6040   -3.2920 C.ar  111  TYR111     -0.0198
    109  CD1       -1.2100   32.6760   -2.3800 C.ar  111  TYR111     -0.0009
    110  CD2       -2.2680   34.7860   -2.7890 C.ar  111  TYR111     -0.0009
    111  CE1       -1.2630   32.9110   -1.0120 C.ar  111  TYR111      0.0417
    112  CE2       -2.3300   35.0270   -1.4230 C.ar  111  TYR111      0.0417
    113  CZ        -1.8250   34.0880   -0.5390 C.ar  111  TYR111      0.1957
    114  OH        -1.8820   34.3210    0.8150 O.3   111  TYR111     -0.2866
    115  N         -1.5600   30.3660   -5.6770 N.am  112  ASN112     -0.1972
    116  CA        -1.2460   28.9320   -5.5210 C.3   112  ASN112      0.1688
    117  C         -0.3390   28.6420   -4.3110 C.2   112  ASN112      0.2292
    118  O          0.0920   29.5660   -3.6190 O.2   112  ASN112     -0.2864
    119  CB        -0.6680   28.3430   -6.8300 C.3   112  ASN112      0.1181
    120  CG         0.6360   28.9960   -7.2680 C.2   112  ASN112      0.2629
    121  OD1        1.5990   29.0600   -6.5110 O.2   112  ASN112     -0.2716
    122  ND2        0.6720   29.4700   -8.5130 N.am  112  ASN112     -0.0877
    123  N          3.3140   30.0460   -4.5960 N.3   115  ASP115     -0.1239
    124  CA         3.3440   31.4580   -4.1960 C.3   115  ASP115      0.1674
    125  C          3.4230   31.5980   -2.6750 C.2   115  ASP115      0.2266
    126  O          4.1680   32.4380   -2.1700 O.2   115  ASP115     -0.2867
    127  CB         2.1140   32.2140   -4.7250 C.3   115  ASP115      0.1410
    128  CG         2.0620   32.2840   -6.2570 C.2   115  ASP115      0.3668
    129  OD1        3.0500   31.9090   -6.9290 O.co2 115  ASP115     -0.2456
    130  OD2        1.0210   32.7240   -6.7870 O.co2 115  ASP115     -0.2456
    131  N         -0.5990   23.8170   -8.9240 N.3   160  ASN160     -0.1240
    132  CA        -1.9910   23.4400   -9.2290 C.3   160  ASN160      0.1653
    133  C         -2.8830   23.2390   -7.9870 C.2   160  ASN160      0.2266
    134  O         -3.8980   22.5360   -8.0610 O.2   160  ASN160     -0.2867
    135  CB        -2.0020   22.1620  -10.0800 C.3   160  ASN160      0.1155
    136  CG        -1.2520   22.3200  -11.3910 C.2   160  ASN160      0.2627
    137  OD1       -1.2140   23.4030  -11.9700 O.2   160  ASN160     -0.2716
    138  ND2       -0.6580   21.2320  -11.8720 N.am  160  ASN160     -0.0877
    139  N         -4.7550   25.8130   -5.3380 N.3   162  LEU162     -0.1245
    140  CA        -5.0630   27.2100   -5.0080 C.3   162  LEU162      0.1561
    141  C         -5.7880   27.3120   -3.6710 C.2   162  LEU162      0.2260
    142  O         -6.3130   26.3200   -3.1680 O.2   162  LEU162     -0.2867
    143  CB        -5.9300   27.8430   -6.1010 C.3   162  LEU162      0.0270
    144  CG        -5.4880   27.7510   -7.5690 C.3   162  LEU162      0.0019
    145  CD1       -6.2040   28.8160   -8.3920 C.3   162  LEU162      0.0001
    146  CD2       -3.9830   27.8810   -7.7420 C.3   162  LEU162      0.0001
    147  N         -6.7440   22.5080   -9.2110 N.3   174  VAL174     -0.1231
    148  CA        -6.9960   23.0470  -10.5600 C.3   174  VAL174      0.1692
    149  C         -6.2330   22.2570  -11.6220 C.2   174  VAL174      0.2592
    150  O         -5.3820   21.4190  -11.3050 O.2   174  VAL174     -0.2718
    151  CB        -6.6330   24.5540  -10.6820 C.3   174  VAL174      0.0266
    152  CG1       -7.4410   25.3810   -9.6930 C.3   174  VAL174      0.0020
    153  CG2       -5.1400   24.8100  -10.4910 C.3   174  VAL174      0.0020
    154  N         -6.5680   22.5400  -12.8800 N.am  175  ASP175     -0.1974
    155  CA        -5.8730   22.0090  -14.0510 C.3   175  ASP175      0.1709
    156  C         -6.0130   20.4930  -14.2000 C.2   175  ASP175      0.2293
    157  O         -5.1180   19.7290  -13.8300 O.2   175  ASP175     -0.2864
    158  CB        -4.3920   22.4460  -14.0660 C.3   175  ASP175      0.1436
    159  CG        -3.7030   22.1720  -15.4050 C.2   175  ASP175      0.3671
    160  OD1       -4.3920   22.0820  -16.4490 O.co2 175  ASP175     -0.2456
    161  OD2       -2.4590   22.0580  -15.4100 O.co2 175  ASP175     -0.2456
@<TRIPOS>BOND
     1    16    15    2
     2    15    14    1
     3    14    13    1
     4    14    17    1
     5    17    18    1
     6    39    38    2
     7    45    46    1
     8    38    37    1
     9    18    19   ar
    10    18    20   ar
    11    19    21   ar
    12    20    22   ar
    13    21    23   ar
    14    46    49    1
    15    46    47    1
    16    49    50    1
    17    47    48    2
    18    37    40    1
    19    37    36    1
    20    52    51   ar
    21    41    40    1
    22    41    42    1
    23    43    42    1
    24    43    44    1
    25    24    25    1
    26    22    23   ar
    27    12    11    2
    28    50    51    1
    29    51    53   ar
    30    25    26    1
    31    25    28    1
    32    26    27    2
    33    11    10    1
    34    30    28    1
    35    28    29    1
    36   160   159   ar
    37    10     9    1
    38    70    71   ar
    39    70    68   ar
    40     1     2    1
    41     9     3   am
    42    71    69   ar
    43   161   159   ar
    44   159   158    1
    45    33    34    2
    46    33    32    1
    47    68    66   ar
    48     3     2    1
    49     3     4    2
    50     2     5    1
    51    61    62    1
    52    69    67   ar
    53   156   155    1
    54   156   157    2
    55     6     5    1
    56     6     8    1
    57   158   155    1
    58   155   154    1
    59    66    67   ar
    60    66    65    1
    61    32    35    1
    62    32    31    1
    63     5     7    1
    64    62    65    1
    65    62    63    1
    66   154   149   am
    67    64    63    2
    68    63    72   am
    69   137   136    2
    70   138   136   am
    71   149   150    2
    72   149   148    1
    73   136   135    1
    74    59    58    1
    75    72    73    1
    76   151   148    1
    77   151   153    1
    78   151   152    1
    79   148   147    1
    80    57    56    2
    81   135   132    1
    82    60    58    1
    83    87    88    1
    84    87    86    1
    85    75    74    2
    86    73    74    1
    87    73    76    1
    88    58    55    1
    89    56    55    1
    90    74    81   am
    91   132   131    1
    92   132   133    1
    93    81    82    1
    94    85    82    1
    95    85    86    1
    96    82    83    1
    97    55    54    1
    98   122   120   am
    99    76    77    1
   100   145   144    1
   101   134   133    2
   102    77    78    1
   103   146   144    1
   104    83    89   am
   105    83    84    2
   106   144   143    1
   107    89    90    1
   108    95    94    1
   109   120   119    1
   110   120   121    2
   111    94    93    1
   112    94    96    1
   113   129   128   ar
   114   119   116    1
   115    92    91    2
   116   130   128   ar
   117    78    79   ar
   118    78    80   ar
   119    93    90    1
   120    90    91    1
   121   128   127    1
   122   143   140    1
   123    91    97   am
   124   100    99    2
   125   115   116    1
   126   115   105   am
   127   116   117    1
   128   104   105    1
   129   104   103    1
   130   104   107    1
   131   139   140    1
   132    99   103   am
   133    99    98    1
   134   140   141    1
   135    97    98    1
   136   105   106    2
   137   107   108    1
   138   127   124    1
   139    98   101    1
   140   123   124    1
   141   117   118    2
   142   124   125    1
   143   141   142    2
   144   108   110   ar
   145   108   109   ar
   146   101   102    1
   147   110   112   ar
   148   125   126    2
   149   109   111   ar
   150   112   113   ar
   151   111   113   ar
   152   113   114    1
