@<TRIPOS>MOLECULE
tmp/6eigB02.pdb
 77 74 0 0 0
SMALL
GASTEIGER

@<TRIPOS>ATOM
      1  N         -0.1440   -8.9250   30.0160 N.3   135  SER135     -0.1217
      2  CA         0.3360   -9.6780   28.8630 C.3   135  SER135      0.1889
      3  C          1.2140  -10.8430   29.3090 C.2   135  SER135      0.2288
      4  O          0.9600  -11.9950   28.9520 O.2   135  SER135     -0.2866
      5  CB         1.1210   -8.7630   27.9210 C.3   135  SER135      0.2089
      6  OG         1.6930   -9.4980   26.8530 O.3   135  SER135     -0.2183
      7  N         -1.2980  -16.7260   24.4780 N.3   140  GLY140     -0.1225
      8  CA        -1.9960  -16.7970   23.1980 C.3   140  GLY140      0.1811
      9  C         -1.9390  -15.4720   22.4650 C.2   140  GLY140      0.2280
     10  O         -0.9510  -14.7430   22.5620 O.2   140  GLY140     -0.2866
     11  N         -2.2550  -12.4170   24.7210 N.3   143  LYS143     -0.1231
     12  CA        -0.9670  -11.9160   25.1740 C.3   143  LYS143      0.1693
     13  C         -0.4570  -10.8440   24.2210 C.2   143  LYS143      0.2591
     14  O          0.1920   -9.8830   24.6360 O.2   143  LYS143     -0.2718
     15  CB         0.0420  -13.0610   25.2540 C.3   143  LYS143      0.0285
     16  CG         1.4060  -12.6580   25.7980 C.3   143  LYS143      0.0035
     17  CD         2.2370  -13.8870   26.1220 C.3   143  LYS143      0.0206
     18  CE         3.1920  -13.6190   27.2790 C.3   143  LYS143      0.1093
     19  NZ         3.5490  -14.8780   28.0070 N.3   143  LYS143     -0.1314
     20  N         -0.7540  -11.0200   22.9380 N.am  144  VAL144     -0.1980
     21  CA        -0.3490  -10.0630   21.9180 C.3   144  VAL144      0.1595
     22  C         -1.2210   -8.8160   21.9910 C.2   144  VAL144      0.2287
     23  O         -0.7210   -7.6930   21.9340 O.2   144  VAL144     -0.2864
     24  CB        -0.4620  -10.6680   20.5070 C.3   144  VAL144      0.0276
     25  CG1        0.0580   -9.6880   19.4660 C.3   144  VAL144      0.0022
     26  CG2        0.2950  -11.9860   20.4310 C.3   144  VAL144      0.0022
     27  N         -0.2620   -6.6240   24.7230 N.3   147  PHE147     -0.1227
     28  CA         1.0230   -5.9980   24.4450 C.3   147  PHE147      0.1736
     29  C          0.8090   -4.8210   23.5030 C.2   147  PHE147      0.2595
     30  O          1.5440   -3.8360   23.5460 O.2   147  PHE147     -0.2718
     31  CB         2.0010   -6.9970   23.8270 C.3   147  PHE147      0.0547
     32  CG         3.3910   -6.4530   23.6570 C.ar  147  PHE147     -0.0202
     33  CD1        3.7320   -5.7250   22.5290 C.ar  147  PHE147     -0.0042
     34  CD2        4.3560   -6.6660   24.6280 C.ar  147  PHE147     -0.0042
     35  CE1        5.0100   -5.2220   22.3710 C.ar  147  PHE147     -0.0003
     36  CE2        5.6360   -6.1660   24.4760 C.ar  147  PHE147     -0.0003
     37  CZ         5.9630   -5.4420   23.3460 C.ar  147  PHE147     -0.0000
     38  N         -0.2080   -4.9330   22.6530 N.am  148  CYS148     -0.1970
     39  CA        -0.5800   -3.8430   21.7600 C.3   148  CYS148      0.1712
     40  C         -1.0700   -2.6550   22.5780 C.2   148  CYS148      0.2296
     41  O         -0.6230   -1.5250   22.3790 O.2   148  CYS148     -0.2864
     42  CB        -1.6670   -4.2930   20.7830 C.3   148  CYS148      0.0983
     43  SG        -1.1050   -5.4800   19.5400 S.3   148  CYS148     -0.0798
     44  N         11.0710   -7.3800   27.0420 N.3   199  PHE199     -0.1227
     45  CA         9.8360   -8.1090   27.3020 C.3   199  PHE199      0.1736
     46  C          9.5880   -9.1430   26.2090 C.2   199  PHE199      0.2595
     47  O          9.0930  -10.2380   26.4760 O.2   199  PHE199     -0.2718
     48  CB         8.6560   -7.1390   27.3750 C.3   199  PHE199      0.0547
     49  CG         7.3470   -7.7990   27.7050 C.ar  199  PHE199     -0.0202
     50  CD1        6.6030   -8.4270   26.7200 C.ar  199  PHE199     -0.0042
     51  CD2        6.8570   -7.7840   29.0010 C.ar  199  PHE199     -0.0042
     52  CE1        5.3970   -9.0320   27.0210 C.ar  199  PHE199     -0.0003
     53  CE2        5.6520   -8.3870   29.3090 C.ar  199  PHE199     -0.0003
     54  CZ         4.9210   -9.0120   28.3170 C.ar  199  PHE199     -0.0000
     55  N          9.9350   -8.7850   24.9770 N.am  200  ILE200     -0.1980
     56  CA         9.7650   -9.6790   23.8400 C.3   200  ILE200      0.1595
     57  C         10.8750  -10.7240   23.8110 C.2   200  ILE200      0.2287
     58  O         10.6320  -11.8940   23.5170 O.2   200  ILE200     -0.2864
     59  CB         9.7770   -8.8990   22.5130 C.3   200  ILE200      0.0276
     60  CG1        8.6300   -7.8860   22.4840 C.3   200  ILE200      0.0022
     61  CG2        9.6690   -9.8550   21.3340 C.3   200  ILE200      0.0022
     62  CD1        8.7100   -6.9100   21.3250 C.3   200  ILE200      0.0001
     63  N          7.9200  -13.2740   26.5810 N.3   205  GLY205     -0.1210
     64  CA         7.6240  -13.1900   25.1550 C.3   205  GLY205      0.1956
     65  C          8.0520  -14.4300   24.3920 C.2   205  GLY205      0.2611
     66  O          7.4420  -15.4920   24.5220 O.2   205  GLY205     -0.2717
     67  N          9.1060  -14.2930   23.5930 N.am  206  PHE206     -0.1976
     68  CA         9.5830  -15.3940   22.7620 C.3   206  PHE206      0.1639
     69  C         10.6620  -16.2110   23.4670 C.2   206  PHE206      0.2290
     70  O         11.0570  -17.2750   22.9910 O.2   206  PHE206     -0.2864
     71  CB        10.1010  -14.8650   21.4230 C.3   206  PHE206      0.0560
     72  CG         9.0090  -14.4560   20.4760 C.ar  206  PHE206     -0.0200
     73  CD1        8.4010  -15.3920   19.6560 C.ar  206  PHE206     -0.0042
     74  CD2        8.5870  -13.1380   20.4080 C.ar  206  PHE206     -0.0042
     75  CE1        7.3930  -15.0230   18.7850 C.ar  206  PHE206     -0.0003
     76  CE2        7.5800  -12.7620   19.5390 C.ar  206  PHE206     -0.0003
     77  CZ         6.9820  -13.7060   18.7260 C.ar  206  PHE206     -0.0000
@<TRIPOS>BOND
     1    77    75   ar
     2    77    76   ar
     3    75    73   ar
     4    25    24    1
     5    76    74   ar
     6    43    42    1
     7    73    72   ar
     8    74    72   ar
     9    26    24    1
    10    72    71    1
    11    24    21    1
    12    42    39    1
    13    62    60    1
    14    61    59    1
    15    71    68    1
    16    39    40    1
    17    39    38    1
    18    21    22    1
    19    21    20    1
    20    23    22    2
    21    35    33   ar
    22    35    37   ar
    23    41    40    2
    24     9    10    2
    25     9     8    1
    26    60    59    1
    27    59    56    1
    28    33    32   ar
    29    38    29   am
    30    68    69    1
    31    68    67    1
    32    20    13   am
    33    70    69    2
    34     8     7    1
    35    37    36   ar
    36    29    30    2
    37    29    28    1
    38    58    57    2
    39    67    65   am
    40    32    31    1
    41    32    34   ar
    42    57    56    1
    43    31    28    1
    44    56    55    1
    45    13    14    2
    46    13    12    1
    47    65    66    2
    48    65    64    1
    49    28    27    1
    50    36    34   ar
    51    11    12    1
    52    55    46   am
    53    64    63    1
    54    12    15    1
    55    15    16    1
    56    16    17    1
    57    17    18    1
    58    46    47    2
    59    46    45    1
    60    50    52   ar
    61    50    49   ar
    62     6     5    1
    63    52    54   ar
    64    44    45    1
    65    18    19    1
    66    45    48    1
    67    48    49    1
    68    49    51   ar
    69     5     2    1
    70    54    53   ar
    71     2     3    1
    72     2     1    1
    73     4     3    2
    74    51    53   ar
