@<TRIPOS>MOLECULE
tmp/6eigB03.pdb
 95 85 0 0 0
SMALL
GASTEIGER

@<TRIPOS>ATOM
      1  N         21.6050  -20.2400   32.1360 N.3    20  THR20      -0.1218
      2  CA        22.9370  -20.8240   32.2430 C.3    20  THR20       0.1862
      3  C         23.6440  -20.3640   33.5120 C.2    20  THR20       0.2287
      4  O         23.2750  -19.3540   34.1110 O.2    20  THR20      -0.2866
      5  CB        23.8120  -20.4550   31.0320 C.3    20  THR20       0.1770
      6  OG1       23.8060  -19.0340   30.8450 O.3    20  THR20      -0.2211
      7  CG2       23.3000  -21.1380   29.7730 C.3    20  THR20       0.0375
      8  N         25.0670  -16.8700   33.2530 N.3    23  ALA23      -0.1245
      9  CA        24.0910  -15.8020   33.4270 C.3    23  ALA23       0.1562
     10  C         23.8290  -15.5580   34.9090 C.2    23  ALA23       0.2260
     11  O         23.7860  -14.4120   35.3620 O.2    23  ALA23      -0.2867
     12  CB        22.7950  -16.1510   32.7110 C.3    23  ALA23       0.0290
     13  N         16.2290    5.6510   25.4610 N.3   190  VAL190     -0.1245
     14  CA        17.0170    4.4550   25.1820 C.3   190  VAL190      0.1561
     15  C         16.7210    3.3730   26.2130 C.2   190  VAL190      0.2260
     16  O         16.3270    2.2600   25.8640 O.2   190  VAL190     -0.2867
     17  CB        18.5280    4.7510   25.1960 C.3   190  VAL190      0.0252
     18  CG1       19.3210    3.4540   25.1660 C.3   190  VAL190      0.0019
     19  CG2       18.9050    5.6410   24.0220 C.3   190  VAL190      0.0019
     20  N         14.0210    0.0820   25.9970 N.3   194  MET194     -0.1245
     21  CA        14.5670   -1.2690   26.0650 C.3   194  MET194      0.1570
     22  C         13.6260   -2.2200   26.7960 C.2   194  MET194      0.2261
     23  O         13.6610   -3.4300   26.5750 O.2   194  MET194     -0.2867
     24  CB        15.9250   -1.2530   26.7700 C.3   194  MET194      0.0387
     25  CG        17.0610   -0.7150   25.9160 C.3   194  MET194      0.0595
     26  SD        17.3920   -1.7540   24.4810 S.3   194  MET194     -0.1393
     27  CE        17.7500   -3.3210   25.2720 C.3   194  MET194      0.0692
     28  N         13.0600   -5.9870   25.8330 N.3   198  LEU198     -0.1245
     29  CA        13.4540   -7.1100   26.6750 C.3   198  LEU198      0.1561
     30  C         12.2500   -7.9940   26.9860 C.2   198  LEU198      0.2260
     31  O         12.3870   -9.2040   27.1690 O.2   198  LEU198     -0.2867
     32  CB        14.0870   -6.6080   27.9740 C.3   198  LEU198      0.0270
     33  CG        15.4070   -5.8510   27.8090 C.3   198  LEU198      0.0019
     34  CD1       15.9440   -5.4070   29.1610 C.3   198  LEU198      0.0001
     35  CD2       16.4290   -6.7110   27.0800 C.3   198  LEU198      0.0001
     36  N         13.8980  -15.6200   24.1090 N.3   208  VAL208     -0.1231
     37  CA        15.2640  -15.6160   23.6010 C.3   208  VAL208      0.1692
     38  C         16.2350  -15.5660   24.7740 C.2   208  VAL208      0.2592
     39  O         17.2530  -16.2580   24.7840 O.2   208  VAL208     -0.2718
     40  CB        15.5290  -14.4110   22.6810 C.3   208  VAL208      0.0266
     41  CG1       16.9350  -14.4870   22.1030 C.3   208  VAL208      0.0020
     42  CG2       14.4930  -14.3540   21.5690 C.3   208  VAL208      0.0020
     43  N         15.9050  -14.7390   25.7620 N.am  209  LEU209     -0.1966
     44  CA        16.6870  -14.6470   26.9870 C.3   209  LEU209      0.1728
     45  C         16.1280  -15.5950   28.0420 C.2   209  LEU209      0.2616
     46  O         14.9290  -15.8760   28.0630 O.2   209  LEU209     -0.2715
     47  CB        16.6590  -13.2170   27.5300 C.3   209  LEU209      0.0311
     48  CG        17.4840  -12.1730   26.7770 C.3   209  LEU209      0.0022
     49  CD1       16.9870  -10.7710   27.0980 C.3   209  LEU209      0.0001
     50  CD2       18.9640  -12.3120   27.1060 C.3   209  LEU209      0.0001
     51  N         17.0010  -16.0840   28.9160 N.am  210  SER210     -0.1950
     52  CA        16.5650  -16.8700   30.0610 C.3   210  SER210      0.1924
     53  C         16.1030  -15.9190   31.1580 C.2   210  SER210      0.2314
     54  O         16.2700  -14.7030   31.0450 O.2   210  SER210     -0.2863
     55  CB        17.7010  -17.7600   30.5680 C.3   210  SER210      0.2116
     56  OG        18.8530  -16.9930   30.8730 O.3   210  SER210     -0.2180
     57  N         18.9890  -14.2680   32.2140 N.3   213  GLY213     -0.1225
     58  CA        19.4020  -13.4100   31.1110 C.3   213  GLY213      0.1811
     59  C         18.5720  -12.1430   31.0650 C.2   213  GLY213      0.2280
     60  O         19.0990  -11.0490   30.8560 O.2   213  GLY213     -0.2866
     61  N         19.6850   -9.9460   33.9210 N.3   216  VAL216     -0.1231
     62  CA        20.9330   -9.2710   33.5880 C.3   216  VAL216      0.1692
     63  C         20.6690   -8.0440   32.7250 C.2   216  VAL216      0.2592
     64  O         21.2960   -7.0000   32.9030 O.2   216  VAL216     -0.2718
     65  CB        21.8950  -10.2090   32.8350 C.3   216  VAL216      0.0266
     66  CG1       22.9470   -9.4040   32.0840 C.3   216  VAL216      0.0020
     67  CG2       22.5470  -11.1880   33.8020 C.3   216  VAL216      0.0020
     68  N         19.7370   -8.1760   31.7870 N.am  217  GLY217     -0.1957
     69  CA        19.3950   -7.0790   30.8920 C.3   217  GLY217      0.1869
     70  C         18.6350   -5.9740   31.6000 C.2   217  GLY217      0.2309
     71  O         18.9680   -4.7960   31.4660 O.2   217  GLY217     -0.2863
     72  N         20.6220   -3.7370   34.1010 N.3   220  ILE220     -0.1231
     73  CA        21.4640   -2.7460   33.4410 C.3   220  ILE220      0.1692
     74  C         20.6780   -1.4840   33.1000 C.2   220  ILE220      0.2591
     75  O         21.1350   -0.3710   33.3620 O.2   220  ILE220     -0.2718
     76  CB        22.0870   -3.3120   32.1520 C.3   220  ILE220      0.0266
     77  CG1       23.0570   -4.4470   32.4880 C.3   220  ILE220      0.0019
     78  CG2       22.8050   -2.2130   31.3840 C.3   220  ILE220      0.0020
     79  CD1       23.5190   -5.2320   31.2760 C.3   220  ILE220      0.0001
     80  N         19.4960   -1.6580   32.5150 N.am  221  ILE221     -0.1980
     81  CA        18.6660   -0.5200   32.1340 C.3   221  ILE221      0.1595
     82  C         17.9030    0.0340   33.3350 C.2   221  ILE221      0.2287
     83  O         17.3680    1.1420   33.2810 O.2   221  ILE221     -0.2864
     84  CB        17.6680   -0.8870   31.0180 C.3   221  ILE221      0.0276
     85  CG1       16.6830   -1.9530   31.5040 C.3   221  ILE221      0.0022
     86  CG2       18.4130   -1.3710   29.7820 C.3   221  ILE221      0.0022
     87  CD1       15.5310   -2.1890   30.5470 C.3   221  ILE221      0.0001
     88  N         20.1240    2.5760   34.6130 N.3   224  MET224     -0.1245
     89  CA        20.1500    3.6790   33.6600 C.3   224  MET224      0.1570
     90  C         18.9510    4.6000   33.8540 C.2   224  MET224      0.2261
     91  O         19.1030    5.8170   33.9550 O.2   224  MET224     -0.2867
     92  CB        20.1610    3.1410   32.2260 C.3   224  MET224      0.0387
     93  CG        21.4610    2.4530   31.8310 C.3   224  MET224      0.0595
     94  SD        21.3740    1.6670   30.2090 S.3   224  MET224     -0.1393
     95  CE        21.1250    3.0890   29.1470 C.3   224  MET224      0.0692
@<TRIPOS>BOND
     1    42    40    1
     2    41    40    1
     3    40    37    1
     4    37    36    1
     5    37    38    1
     6    19    17    1
     7    26    27    1
     8    26    25    1
     9    38    39    2
    10    38    43   am
    11    18    17    1
    12    14    17    1
    13    14    13    1
    14    14    15    1
    15    43    44    1
    16    28    29    1
    17    16    15    2
    18    25    24    1
    19    20    21    1
    20    21    24    1
    21    21    22    1
    22    23    22    2
    23    29    30    1
    24    29    32    1
    25    48    49    1
    26    48    50    1
    27    48    47    1
    28    30    31    2
    29    44    47    1
    30    44    45    1
    31    35    33    1
    32    33    32    1
    33    33    34    1
    34    45    46    2
    35    45    51   am
    36    51    52    1
    37    95    94    1
    38     7     5    1
    39    86    84    1
    40    52    55    1
    41    52    53    1
    42    94    93    1
    43    87    85    1
    44    55    56    1
    45     6     5    1
    46    60    59    2
    47    69    70    1
    48    69    68    1
    49    84    85    1
    50    84    81    1
    51     5     2    1
    52    54    53    2
    53    59    58    1
    54    58    57    1
    55    79    77    1
    56    78    76    1
    57    71    70    2
    58    68    63   am
    59    93    92    1
    60    66    65    1
    61    81    80    1
    62    81    82    1
    63     1     2    1
    64    76    77    1
    65    76    73    1
    66    92    89    1
    67     2     3    1
    68    80    74   am
    69    12     9    1
    70    63    64    2
    71    63    62    1
    72    65    62    1
    73    65    67    1
    74    74    75    2
    75    74    73    1
    76     8     9    1
    77    83    82    2
    78     9    10    1
    79    73    72    1
    80     3     4    2
    81    62    61    1
    82    89    90    1
    83    89    88    1
    84    90    91    2
    85    10    11    2
