@<TRIPOS>MOLECULE
tmp/6eiiA00.pdb
 188 179 0 0 0
SMALL
GASTEIGER

@<TRIPOS>ATOM
      1  N         11.1340  158.3600  390.5920 N.3    44  LEU44      -0.1231
      2  CA         9.8800  158.8600  391.1620 C.3    44  LEU44       0.1693
      3  C          9.4360  158.0190  392.3530 C.2    44  LEU44       0.2593
      4  O          8.8630  158.5550  393.3010 O.2    44  LEU44      -0.2718
      5  CB         8.7520  158.8980  390.1140 C.3    44  LEU44       0.0284
      6  CG         8.9250  159.8170  388.9130 C.3    44  LEU44       0.0019
      7  CD1        7.8920  159.5010  387.8650 C.3    44  LEU44       0.0001
      8  CD2        8.7870  161.2640  389.3080 C.3    44  LEU44       0.0001
      9  N          9.6860  156.7130  392.2670 N.am   45  GLY45      -0.1942
     10  CA         9.3470  155.7240  393.2820 C.3    45  GLY45       0.2014
     11  C         10.1020  154.4210  393.0970 C.2    45  GLY45       0.2638
     12  O         10.8760  154.2720  392.1410 O.2    45  GLY45      -0.2714
     13  N          9.8880  153.4690  394.0320 N.am   46  ARG46      -0.1977
     14  CA        10.5180  152.1420  394.0540 C.3    46  ARG46       0.1597
     15  C          9.6040  151.1390  394.7720 C.2    46  ARG46       0.2287
     16  O          9.1790  151.3870  395.9050 O.2    46  ARG46      -0.2864
     17  CB        11.9020  152.2030  394.7290 C.3    46  ARG46       0.0334
     18  CG        12.7170  150.9210  394.6000 C.3    46  ARG46       0.0492
     19  CD        14.1180  151.1050  395.1480 C.3    46  ARG46       0.2205
     20  NE        14.9500  149.9220  394.9240 N.pl3  46  ARG46      -0.0865
     21  CZ        16.2770  149.9070  395.0110 C.cat  46  ARG46       0.5346
     22  NH1       16.9450  151.0160  395.3080 N.pl3  46  ARG46       0.1354
     23  NH2       16.9480  148.7840  394.7930 N.pl3  46  ARG46       0.1354
     24  N         10.1520  153.2400  389.3690 N.3    52  VAL52      -0.1245
     25  CA         9.4750  154.2020  388.5030 C.3    52  VAL52       0.1561
     26  C         10.3460  155.4410  388.2850 C.2    52  VAL52       0.2260
     27  O         10.9710  155.9540  389.2150 O.2    52  VAL52      -0.2867
     28  CB         8.0340  154.5210  388.9800 C.3    52  VAL52       0.0252
     29  CG1        7.3530  155.5380  388.0720 C.3    52  VAL52       0.0019
     30  CG2        7.1980  153.2440  389.0530 C.3    52  VAL52       0.0019
     31  N          3.4120  164.4880  389.5820 N.3   117  ASN117     -0.1225
     32  CA         2.9070  164.2510  390.9360 C.3   117  ASN117      0.1785
     33  C          3.3320  165.2950  391.9540 C.2   117  ASN117      0.2597
     34  O          4.5030  165.6670  392.0350 O.2   117  ASN117     -0.2718
     35  CB         3.2600  162.8310  391.4220 C.3   117  ASN117      0.1169
     36  CG         2.7850  162.4680  392.8190 C.2   117  ASN117      0.2627
     37  OD1        1.5840  162.3060  393.0970 O.2   117  ASN117     -0.2716
     38  ND2        3.7380  162.2940  393.7220 N.am  117  ASN117     -0.0877
     39  N          2.3420  165.7490  392.7390 N.am  118  THR118     -0.1953
     40  CA         2.4990  166.6760  393.8550 C.3   118  THR118      0.1897
     41  C          2.7720  165.7840  395.0960 C.2   118  THR118      0.2313
     42  O          2.2020  164.6900  395.2010 O.2   118  THR118     -0.2863
     43  CB         1.2450  167.5700  393.9870 C.3   118  THR118      0.1794
     44  OG1        0.8420  168.0450  392.7000 O.3   118  THR118     -0.2208
     45  CG2        1.4620  168.7570  394.9270 C.3   118  THR118      0.0378
     46  N          2.8200  163.8430  398.5310 N.3   120  PHE120     -0.1241
     47  CA         1.8060  163.2880  399.4490 C.3   120  PHE120      0.1605
     48  C          1.9670  163.8200  400.8780 C.2   120  PHE120      0.2264
     49  O          0.9700  164.1550  401.5300 O.2   120  PHE120     -0.2867
     50  CB         1.8460  161.7370  399.4460 C.3   120  PHE120      0.0534
     51  CG         0.9590  161.0080  400.4450 C.ar  120  PHE120     -0.0203
     52  CD1       -0.4000  161.2970  400.5420 C.ar  120  PHE120     -0.0042
     53  CD2        1.4710  159.9880  401.2400 C.ar  120  PHE120     -0.0042
     54  CE1       -1.2190  160.6090  401.4450 C.ar  120  PHE120     -0.0003
     55  CE2        0.6500  159.3000  402.1420 C.ar  120  PHE120     -0.0003
     56  CZ        -0.6890  159.6130  402.2370 C.ar  120  PHE120     -0.0000
     57  N          0.7620  167.6020  400.5990 N.3   123  LEU123     -0.1245
     58  CA        -0.4600  167.8880  399.8350 C.3   123  LEU123      0.1561
     59  C         -1.5980  168.4590  400.7060 C.2   123  LEU123      0.2260
     60  O         -2.3230  169.3450  400.2440 O.2   123  LEU123     -0.2867
     61  CB        -0.9250  166.6570  399.0190 C.3   123  LEU123      0.0270
     62  CG        -1.9240  166.8700  397.8540 C.3   123  LEU123      0.0019
     63  CD1       -1.6010  168.0990  397.0200 C.3   123  LEU123      0.0001
     64  CD2       -1.9630  165.6720  396.9500 C.3   123  LEU123      0.0001
     65  N         -5.2700  171.1380  400.9370 N.3   127  LEU127     -0.1245
     66  CA        -6.2750  170.1120  400.6060 C.3   127  LEU127      0.1561
     67  C         -7.5250  170.2600  401.4650 C.2   127  LEU127      0.2260
     68  O         -7.5590  169.8350  402.6210 O.2   127  LEU127     -0.2867
     69  CB        -5.6960  168.6820  400.6340 C.3   127  LEU127      0.0270
     70  CG        -6.0540  167.7830  399.4380 C.3   127  LEU127      0.0019
     71  CD1       -5.4550  168.3010  398.1270 C.3   127  LEU127      0.0001
     72  CD2       -5.5850  166.3910  399.6610 C.3   127  LEU127      0.0001
     73  N        -10.9160  166.8020  398.5870 N.3   132  ILE132     -0.1245
     74  CA       -11.1370  165.3990  398.9240 C.3   132  ILE132      0.1561
     75  C        -12.3100  164.8350  398.1220 C.2   132  ILE132      0.2260
     76  O        -12.0990  163.8580  397.4200 O.2   132  ILE132     -0.2867
     77  CB       -11.2540  165.1920  400.4410 C.3   132  ILE132      0.0252
     78  CG1       -9.9260  165.6440  401.1190 C.3   132  ILE132      0.0019
     79  CG2      -11.6390  163.7290  400.7590 C.3   132  ILE132      0.0019
     80  CD1       -9.8050  165.5010  402.6280 C.3   132  ILE132      0.0001
     81  N        -11.2370  164.7070  394.2880 N.3   135  TYR135     -0.1227
     82  CA       -10.3130  163.6090  393.9760 C.3   135  TYR135      0.1736
     83  C        -10.9170  162.2360  394.2230 C.2   135  TYR135      0.2595
     84  O        -10.6270  161.3110  393.4600 O.2   135  TYR135     -0.2718
     85  CB        -8.9660  163.7920  394.6760 C.3   135  TYR135      0.0548
     86  CG        -8.1670  164.9280  394.0720 C.ar  135  TYR135     -0.0200
     87  CD1       -7.7670  164.8950  392.7350 C.ar  135  TYR135     -0.0009
     88  CD2       -7.8520  166.0590  394.8190 C.ar  135  TYR135     -0.0009
     89  CE1       -7.0590  165.9480  392.1640 C.ar  135  TYR135      0.0417
     90  CE2       -7.1410  167.1200  394.2580 C.ar  135  TYR135      0.0417
     91  CZ        -6.7670  167.0700  392.9250 C.ar  135  TYR135      0.1957
     92  OH        -6.0630  168.1010  392.3660 O.3   135  TYR135     -0.2866
     93  N        -11.8060  162.1160  395.2340 N.am  136  MET136     -0.1979
     94  CA       -12.5140  160.8560  395.5300 C.3   136  MET136      0.1605
     95  C        -13.4000  160.4720  394.3440 C.2   136  MET136      0.2287
     96  O        -13.4100  159.3100  393.9480 O.2   136  MET136     -0.2864
     97  CB       -13.3530  160.9750  396.8140 C.3   136  MET136      0.0413
     98  CG       -12.5460  160.8180  398.0790 C.3   136  MET136      0.0598
     99  SD       -11.8000  159.1910  398.2880 S.3   136  MET136     -0.1393
    100  CE       -13.2030  158.2160  398.4150 C.3   136  MET136      0.0692
    101  N        -11.2850  159.1290  391.4710 N.3   139  ILE139     -0.1245
    102  CA       -10.8700  157.7390  391.6890 C.3   139  ILE139      0.1561
    103  C        -12.0420  156.8060  391.3230 C.2   139  ILE139      0.2260
    104  O        -11.8330  155.7680  390.6960 O.2   139  ILE139     -0.2867
    105  CB       -10.3520  157.4900  393.1280 C.3   139  ILE139      0.0252
    106  CG1       -9.0880  158.3440  393.4150 C.3   139  ILE139      0.0019
    107  CG2      -10.0680  155.9840  393.3620 C.3   139  ILE139      0.0019
    108  CD1       -8.7420  158.4520  394.9460 C.3   139  ILE139      0.0001
    109  N         -2.9360  155.2360  398.7820 N.3   158  PRO158     -0.2102
    110  CA        -2.4230  156.5550  398.3570 C.3   158  PRO158      0.1504
    111  C         -1.1980  156.4960  397.4470 C.2   158  PRO158      0.2576
    112  O         -1.1340  157.2900  396.5160 O.2   158  PRO158     -0.2718
    113  CB        -2.1350  157.2560  399.6940 C.3   158  PRO158      0.0282
    114  CG        -3.1310  156.6400  400.6400 C.3   158  PRO158      0.0208
    115  CD        -3.0570  155.1770  400.2610 C.3   158  PRO158      0.0893
    116  N         -0.2620  155.5520  397.7000 N.am  159  HIS159     -0.1962
    117  CA         0.9500  155.3680  396.9030 C.3   159  HIS159      0.1787
    118  C          0.6220  154.9730  395.4410 C.2   159  HIS159      0.2620
    119  O          1.4510  155.1940  394.5600 O.2   159  HIS159     -0.2715
    120  CB         1.9110  154.3460  397.5570 C.3   159  HIS159      0.0785
    121  CG         2.8870  154.9330  398.5450 C.ar  159  HIS159      0.0821
    122  ND1        2.9080  154.5280  399.8770 N.ar  159  HIS159     -0.2267
    123  CD2        3.8590  155.8590  398.3600 C.ar  159  HIS159      0.1154
    124  CE1        3.8760  155.2230  400.4520 C.ar  159  HIS159      0.1986
    125  NE2        4.4770  156.0380  399.5790 N.ar  159  HIS159     -0.2212
    126  N         -0.5980  154.4320  395.1690 N.am  160  ASN160     -0.1958
    127  CA        -0.9970  154.0440  393.7980 C.3   160  ASN160      0.1819
    128  C         -1.9450  155.0390  393.1310 C.2   160  ASN160      0.2621
    129  O         -2.6120  154.7180  392.1420 O.2   160  ASN160     -0.2715
    130  CB        -1.5570  152.6190  393.7600 C.3   160  ASN160      0.1195
    131  CG        -0.4660  151.5990  393.9840 C.2   160  ASN160      0.2630
    132  OD1        0.7090  151.8820  393.8000 O.2   160  ASN160     -0.2716
    133  ND2       -0.8160  150.3940  394.3990 N.am  160  ASN160     -0.0877
    134  N         -2.0260  156.2490  393.6980 N.am  161  VAL161     -0.1963
    135  CA        -2.8090  157.3340  393.1450 C.3   161  VAL161      0.1727
    136  C         -1.8410  158.5280  392.9340 C.2   161  VAL161      0.2616
    137  O         -1.3580  159.1210  393.9140 O.2   161  VAL161     -0.2715
    138  CB        -4.0190  157.7230  394.0200 C.3   161  VAL161      0.0290
    139  CG1       -4.7600  158.8980  393.4190 C.3   161  VAL161      0.0023
    140  CG2       -4.9800  156.5350  394.2420 C.3   161  VAL161      0.0023
    141  N         -1.6120  158.8920  391.6730 N.am  162  MET162     -0.1963
    142  CA        -0.7840  160.0510  391.3180 C.3   162  MET162      0.1736
    143  C         -1.6610  161.2760  391.1470 C.2   162  MET162      0.2616
    144  O         -2.6460  161.2190  390.4190 O.2   162  MET162     -0.2715
    145  CB         0.0100  159.7970  390.0280 C.3   162  MET162      0.0427
    146  CG         1.1760  158.8660  390.2330 C.3   162  MET162      0.0599
    147  SD         2.1510  158.6660  388.7210 S.3   162  MET162     -0.1393
    148  CE         3.2700  160.1420  388.8320 C.3   162  MET162      0.0692
    149  N         -1.3140  162.3890  391.8090 N.am  163  ILE163     -0.1977
    150  CA        -2.0990  163.6210  391.6650 C.3   163  ILE163      0.1596
    151  C         -1.2180  164.8080  391.2320 C.2   163  ILE163      0.2287
    152  O         -0.2410  165.1230  391.9040 O.2   163  ILE163     -0.2864
    153  CB        -2.9410  163.9450  392.9430 C.3   163  ILE163      0.0276
    154  CG1       -3.9400  162.8040  393.2930 C.3   163  ILE163      0.0022
    155  CG2       -3.6550  165.3120  392.8350 C.3   163  ILE163      0.0022
    156  CD1       -4.6550  162.9750  394.6030 C.3   163  ILE163      0.0001
    157  N         -2.5450  154.1690  389.3440 N.3   173  ILE173     -0.1245
    158  CA        -1.3670  153.4700  388.8080 C.3   173  ILE173      0.1561
    159  C         -1.1640  152.0970  389.4230 C.2   173  ILE173      0.2260
    160  O         -1.9620  151.6710  390.2600 O.2   173  ILE173     -0.2867
    161  CB        -0.0810  154.3610  388.9680 C.3   173  ILE173      0.0252
    162  CG1        0.3820  154.4370  390.4520 C.3   173  ILE173      0.0019
    163  CG2       -0.2820  155.7500  388.3600 C.3   173  ILE173      0.0019
    164  CD1        1.7930  154.9290  390.6850 C.3   173  ILE173      0.0001
    165  N         -8.8330  154.7960  402.4780 N.3   220  MET220     -0.1230
    166  CA        -8.2060  156.0530  402.0250 C.3   220  MET220      0.1702
    167  C         -9.0140  157.2620  402.4390 C.2   220  MET220      0.2592
    168  O         -8.4350  158.2690  402.8550 O.2   220  MET220     -0.2718
    169  CB        -8.0560  156.1020  400.5060 C.3   220  MET220      0.0401
    170  CG        -6.9350  155.2810  399.9940 C.3   220  MET220      0.0596
    171  SD        -6.5680  155.6080  398.2310 S.3   220  MET220     -0.1393
    172  CE        -7.3050  157.1240  397.9810 C.3   220  MET220      0.0692
    173  N        -10.3430  157.1940  402.2940 N.am  221  LEU221     -0.1980
    174  CA       -11.2220  158.3020  402.6530 C.3   221  LEU221      0.1596
    175  C        -11.1450  158.6130  404.1540 C.2   221  LEU221      0.2287
    176  O        -10.9670  159.7810  404.5260 O.2   221  LEU221     -0.2864
    177  CB       -12.6790  158.0250  402.2090 C.3   221  LEU221      0.0297
    178  CG       -13.7020  159.1120  402.5930 C.3   221  LEU221      0.0022
    179  CD1      -13.4780  160.3800  401.8260 C.3   221  LEU221      0.0001
    180  CD2      -15.1400  158.6000  402.4480 C.3   221  LEU221      0.0001
    181  N         -7.9740  160.3300  405.0790 N.3   224  MET224     -0.1245
    182  CA        -8.0010  161.6940  404.5900 C.3   224  MET224      0.1570
    183  C         -8.8890  162.6460  405.3900 C.2   224  MET224      0.2261
    184  O         -8.4520  163.7600  405.7070 O.2   224  MET224     -0.2867
    185  CB        -8.3860  161.7450  403.1030 C.3   224  MET224      0.0387
    186  CG        -7.3150  161.2070  402.1960 C.3   224  MET224      0.0595
    187  SD        -5.7230  162.0390  402.3700 S.3   224  MET224     -0.1393
    188  CE        -6.1590  163.7100  401.8860 C.3   224  MET224      0.0692
@<TRIPOS>BOND
     1     7     6    1
     2    29    28    1
     3    26    25    1
     4    26    27    2
     5   163   161    1
     6    25    28    1
     7    25    24    1
     8   147   148    1
     9   147   146    1
    10   158   161    1
    11   158   157    1
    12   158   159    1
    13     6     8    1
    14     6     5    1
    15   161   162    1
    16    28    30    1
    17   159   160    2
    18    31    32    1
    19   145   146    1
    20   145   142    1
    21     5     2    1
    22   144   143    2
    23   162   164    1
    24     1     2    1
    25   104   103    2
    26    32    35    1
    27    32    33    1
    28   143   142    1
    29   143   149   am
    30     2     3    1
    31   151   150    1
    32   151   152    2
    33   142   141    1
    34   103   102    1
    35    35    36    1
    36   101   102    1
    37   150   149    1
    38   150   153    1
    39   141   136   am
    40   102   105    1
    41    33    34    2
    42    33    39   am
    43    12    11    2
    44   129   128    2
    45    89    87   ar
    46    89    91   ar
    47     9     3   am
    48     9    10    1
    49     3     4    2
    50    92    91    1
    51    44    43    1
    52    87    86   ar
    53    39    40    1
    54    36    37    2
    55    36    38   am
    56   155   153    1
    57    91    90   ar
    58   136   135    1
    59   136   137    2
    60   153   154    1
    61    11    10    1
    62    11    13   am
    63   105   107    1
    64   105   106    1
    65   128   134   am
    66   128   127    1
    67   135   134    1
    68   135   138    1
    69   154   156    1
    70   106   108    1
    71   139   138    1
    72    84    83    2
    73   130   127    1
    74   130   131    1
    75   127   126    1
    76   132   131    2
    77    40    43    1
    78    40    41    1
    79    96    95    2
    80    82    83    1
    81    82    81    1
    82    82    85    1
    83   131   133   am
    84    43    45    1
    85   138   140    1
    86    13    14    1
    87    14    17    1
    88    14    15    1
    89    86    85    1
    90    86    88   ar
    91    83    93   am
    92    90    88   ar
    93    95    94    1
    94   119   118    2
    95    18    17    1
    96    18    19    1
    97    15    16    2
    98    23    21    1
    99    20    21    2
   100    20    19    1
   101    21    22    1
   102    41    42    2
   103   126   118   am
   104    93    94    1
   105   118   117    1
   106    94    97    1
   107   112   111    2
   108    97    98    1
   109   117   120    1
   110   117   116    1
   111    64    62    1
   112    63    62    1
   113    76    75    2
   114   111   116   am
   115   111   110    1
   116   120   121    1
   117    62    61    1
   118   172   171    1
   119    98    99    1
   120    75    74    1
   121    71    70    1
   122   171   170    1
   123    99   100    1
   124   110   109    1
   125   110   113    1
   126   123   121   ar
   127   123   125   ar
   128    46    47    1
   129   121   122   ar
   130    73    74    1
   131   109   115    1
   132    74    77    1
   133    61    58    1
   134    70    72    1
   135    70    69    1
   136    50    47    1
   137    50    51    1
   138    47    48    1
   139   125   124   ar
   140   113   114    1
   141    58    57    1
   142    58    59    1
   143   122   124   ar
   144   170   169    1
   145    60    59    2
   146   115   114    1
   147    77    79    1
   148    77    78    1
   149    51    52   ar
   150    51    53   ar
   151   169   166    1
   152    52    54   ar
   153    66    69    1
   154    66    65    1
   155    66    67    1
   156    48    49    2
   157    78    80    1
   158    53    55   ar
   159    54    56   ar
   160    67    68    2
   161   179   178    1
   162   188   187    1
   163   166   167    1
   164   166   165    1
   165    55    56   ar
   166   186   187    1
   167   186   185    1
   168   177   178    1
   169   177   174    1
   170   173   167   am
   171   173   174    1
   172   167   168    2
   173   180   178    1
   174   174   175    1
   175   185   182    1
   176   175   176    2
   177   182   181    1
   178   182   183    1
   179   183   184    2
