@<TRIPOS>MOLECULE
tmp/6eijA00.pdb
 205 192 0 0 0
SMALL
GASTEIGER

@<TRIPOS>ATOM
      1  N         13.5600  -19.7920   42.4750 N.3    32  ILE32      -0.1245
      2  CA        12.8430  -20.1730   43.7140 C.3    32  ILE32       0.1561
      3  C         11.5390  -20.9420   43.4830 C.2    32  ILE32       0.2260
      4  O         10.9240  -21.4120   44.4490 O.2    32  ILE32      -0.2867
      5  CB        12.6000  -18.9650   44.6620 C.3    32  ILE32       0.0252
      6  CG1       11.8310  -17.8320   43.9700 C.3    32  ILE32       0.0019
      7  CG2       13.9320  -18.4490   45.1870 C.3    32  ILE32       0.0019
      8  CD1       11.4710  -16.6740   44.8860 C.3    32  ILE32       0.0001
      9  N          9.0280  -23.0870   40.0260 N.3    34  LYS34      -0.1231
     10  CA         8.5560  -23.2260   38.6590 C.3    34  LYS34       0.1693
     11  C          7.2670  -24.0160   38.5780 C.2    34  LYS34       0.2593
     12  O          6.8750  -24.7000   39.5230 O.2    34  LYS34      -0.2718
     13  CB         9.6320  -23.8260   37.7490 C.3    34  LYS34       0.0285
     14  CG        10.0510  -25.2550   38.0530 C.3    34  LYS34       0.0035
     15  CD        11.1370  -25.6950   37.0760 C.3    34  LYS34       0.0206
     16  CE        10.5900  -26.0500   35.6940 C.3    34  LYS34       0.1093
     17  NZ        11.4760  -25.5410   34.6040 N.3    34  LYS34      -0.1314
     18  N          6.6150  -23.8820   37.4290 N.am   35  GLY35      -0.1942
     19  CA         5.3310  -24.5100   37.1620 C.3    35  GLY35       0.2014
     20  C          4.9570  -24.3670   35.7020 C.2    35  GLY35       0.2640
     21  O          5.7540  -23.8800   34.8930 O.2    35  GLY35      -0.2714
     22  N          3.7390  -24.7860   35.3720 N.am   36  SER36      -0.1935
     23  CA         3.2180  -24.7020   34.0060 C.3    36  SER36       0.2055
     24  C          3.1180  -23.2690   33.4780 C.2    36  SER36       0.2643
     25  O          3.3040  -23.0410   32.2950 O.2    36  SER36      -0.2714
     26  CB         1.8510  -25.3860   33.9200 C.3    36  SER36       0.2130
     27  OG         1.9160  -26.7200   34.4260 O.3    36  SER36      -0.2179
     28  N          2.8070  -22.3120   34.3490 N.am   37  PHE37      -0.1973
     29  CA         2.8380  -20.8790   33.9950 C.3    37  PHE37       0.1639
     30  C          4.2030  -20.3680   33.5230 C.2    37  PHE37       0.2290
     31  O          4.2600  -19.4220   32.7380 O.2    37  PHE37      -0.2864
     32  CB         2.4120  -20.0190   35.1880 C.3    37  PHE37       0.0560
     33  CG         3.4000  -20.0410   36.3280 C.ar   37  PHE37      -0.0200
     34  CD1        4.4520  -19.1340   36.3740 C.ar   37  PHE37      -0.0042
     35  CD2        3.2920  -20.9840   37.3370 C.ar   37  PHE37      -0.0042
     36  CE1        5.3690  -19.1670   37.4070 C.ar   37  PHE37      -0.0003
     37  CE2        4.1970  -21.0120   38.3770 C.ar   37  PHE37      -0.0003
     38  CZ         5.2380  -20.1070   38.4140 C.ar   37  PHE37      -0.0000
     39  N          9.6980  -18.6110   38.7650 N.3    40  VAL40      -0.1245
     40  CA         9.7640  -17.5830   39.8040 C.3    40  VAL40       0.1561
     41  C         11.2290  -17.4630   40.2160 C.2    40  VAL40       0.2260
     42  O         11.8570  -18.4750   40.5660 O.2    40  VAL40      -0.2867
     43  CB         8.9280  -17.9600   41.0450 C.3    40  VAL40       0.0252
     44  CG1        8.8320  -16.7890   42.0220 C.3    40  VAL40       0.0019
     45  CG2        7.5350  -18.4280   40.6360 C.3    40  VAL40       0.0019
     46  N         14.3650  -15.2420   42.4690 N.3    42  LYS42      -0.1245
     47  CA        14.7830  -14.3190   43.5160 C.3    42  LYS42       0.1561
     48  C         15.6910  -13.2810   42.8650 C.2    42  LYS42       0.2260
     49  O         16.7010  -13.6540   42.2760 O.2    42  LYS42      -0.2867
     50  CB        15.5300  -15.0890   44.6130 C.3    42  LYS42       0.0271
     51  CG        16.2650  -14.2380   45.6350 C.3    42  LYS42       0.0035
     52  CD        16.4590  -14.9980   46.9430 C.3    42  LYS42       0.0206
     53  CE        17.1510  -14.1370   47.9830 C.3    42  LYS42       0.1093
     54  NZ        17.6490  -14.9620   49.1140 N.3    42  LYS42      -0.1314
     55  N         10.4740  -11.2580   44.6190 N.3    53  ALA53      -0.1245
     56  CA        10.1630  -12.4920   43.9290 C.3    53  ALA53       0.1562
     57  C          9.5870  -12.1110   42.5670 C.2    53  ALA53       0.2260
     58  O          8.5600  -11.4360   42.5090 O.2    53  ALA53      -0.2867
     59  CB         9.1590  -13.3090   44.7330 C.3    53  ALA53       0.0290
     60  N          8.0120  -13.3680   39.0200 N.3    55  LYS55      -0.1245
     61  CA         7.3770  -14.4330   38.2500 C.3    55  LYS55       0.1561
     62  C          7.5600  -14.1860   36.7500 C.2    55  LYS55       0.2260
     63  O          7.0040  -13.2300   36.2100 O.2    55  LYS55      -0.2867
     64  CB         5.9020  -14.5000   38.6220 C.3    55  LYS55       0.0271
     65  CG         5.1010  -15.6100   37.9530 C.3    55  LYS55       0.0035
     66  CD         4.0990  -16.2450   38.9230 C.3    55  LYS55       0.0206
     67  CE         2.7690  -16.5550   38.2670 C.3    55  LYS55       0.1093
     68  NZ         2.0480  -17.6430   38.9790 N.3    55  LYS55      -0.1314
     69  N         -3.5920  -15.5600   30.7600 N.3    66  GLN66      -0.1245
     70  CA        -3.9920  -15.9790   32.1170 C.3    66  GLN66       0.1566
     71  C         -3.2710  -15.1570   33.1920 C.2    66  GLN66       0.2260
     72  O         -3.8270  -14.8760   34.2570 O.2    66  GLN66      -0.2867
     73  CB        -3.7070  -17.4720   32.3370 C.3    66  GLN66       0.0367
     74  CG        -4.4620  -18.1020   33.5000 C.3    66  GLN66       0.0905
     75  CD        -5.9670  -18.2020   33.2720 C.2    66  GLN66       0.2608
     76  OE1       -6.4530  -18.1410   32.1370 O.2    66  GLN66      -0.2717
     77  NE2       -6.7160  -18.3640   34.3620 N.am   66  GLN66      -0.0878
     78  N         -4.8240  -12.3290   36.1100 N.3    70  GLU70      -0.1245
     79  CA        -4.3820  -12.2440   37.5150 C.3    70  GLU70       0.1567
     80  C         -3.8670  -10.8480   37.8900 C.2    70  GLU70       0.2260
     81  O         -4.1340  -10.3760   38.9890 O.2    70  GLU70      -0.2867
     82  CB        -3.2990  -13.2930   37.8040 C.3    70  GLU70       0.0388
     83  CG        -2.8770  -13.4010   39.2740 C.3    70  GLU70       0.1160
     84  CD        -1.8410  -14.4950   39.5280 C.2    70  GLU70       0.3649
     85  OE1       -1.0790  -14.3790   40.5170 O.co2  70  GLU70      -0.2457
     86  OE2       -1.7790  -15.4710   38.7400 O.co2  70  GLU70      -0.2457
     87  N         -0.9470  -10.9830   48.7990 N.3    89  VAL89      -0.1245
     88  CA         0.3900  -10.7080   48.2760 C.3    89  VAL89       0.1561
     89  C          0.3950   -9.4600   47.3860 C.2    89  VAL89       0.2260
     90  O         -0.4820   -9.2710   46.5360 O.2    89  VAL89      -0.2867
     91  CB         1.0000  -11.9220   47.5140 C.3    89  VAL89       0.0252
     92  CG1        0.2910  -12.1960   46.1900 C.3    89  VAL89       0.0019
     93  CG2        2.4900  -11.7170   47.2920 C.3    89  VAL89       0.0019
     94  N          6.7480   -9.3200   42.6620 N.3   105  PHE105     -0.1227
     95  CA         6.0740   -9.4060   43.9510 C.3   105  PHE105      0.1736
     96  C          7.0620   -9.0780   45.0450 C.2   105  PHE105      0.2595
     97  O          8.2740   -9.1230   44.8310 O.2   105  PHE105     -0.2718
     98  CB         5.5040  -10.8000   44.1850 C.3   105  PHE105      0.0547
     99  CG         4.3640  -11.1530   43.2740 C.ar  105  PHE105     -0.0202
    100  CD1        3.0520  -10.8570   43.6360 C.ar  105  PHE105     -0.0042
    101  CD2        4.5960  -11.7940   42.0640 C.ar  105  PHE105     -0.0042
    102  CE1        1.9930  -11.1740   42.8000 C.ar  105  PHE105     -0.0003
    103  CE2        3.5400  -12.1220   41.2240 C.ar  105  PHE105     -0.0003
    104  CZ         2.2330  -11.8100   41.5920 C.ar  105  PHE105     -0.0000
    105  N          6.5260   -8.7390   46.2140 N.am  106  GLU106     -0.1965
    106  CA         7.3200   -8.6640   47.4290 C.3   106  GLU106      0.1733
    107  C          7.9150  -10.0380   47.7680 C.2   106  GLU106      0.2616
    108  O          7.2920  -11.0740   47.5100 O.2   106  GLU106     -0.2715
    109  CB         6.4830   -8.1390   48.6010 C.3   106  GLU106      0.0429
    110  CG         5.3530   -9.0530   49.0690 C.3   106  GLU106      0.1163
    111  CD         4.6390   -8.5250   50.2970 C.2   106  GLU106      0.3649
    112  OE1        5.3040   -7.8980   51.1570 O.co2 106  GLU106     -0.2457
    113  OE2        3.4120   -8.7470   50.4080 O.co2 106  GLU106     -0.2457
    114  N          9.1190  -10.0350   48.3350 N.am  107  MET107     -0.1963
    115  CA         9.7740  -11.2620   48.7760 C.3   107  MET107      0.1736
    116  C          9.1540  -11.7330   50.0980 C.2   107  MET107      0.2616
    117  O          9.3210  -11.0870   51.1420 O.2   107  MET107     -0.2715
    118  CB        11.2790  -11.0320   48.9420 C.3   107  MET107      0.0427
    119  CG        12.0880  -12.2800   49.3220 C.3   107  MET107      0.0599
    120  SD        12.1140  -13.6020   48.0870 S.3   107  MET107     -0.1393
    121  CE        13.3510  -12.9570   46.9870 C.3   107  MET107      0.0692
    122  N          8.4410  -12.8570   50.0330 N.am  108  LEU108     -0.1963
    123  CA         7.9000  -13.5290   51.2150 C.3   108  LEU108      0.1728
    124  C          8.8400  -14.6610   51.6650 C.2   108  LEU108      0.2617
    125  O          9.9440  -14.7940   51.1470 O.2   108  LEU108     -0.2715
    126  CB         6.4880  -14.0400   50.9040 C.3   108  LEU108      0.0311
    127  CG         5.4730  -12.9640   50.4810 C.3   108  LEU108      0.0022
    128  CD1        4.1450  -13.6120   50.1280 C.3   108  LEU108      0.0001
    129  CD2        5.2730  -11.9040   51.5600 C.3   108  LEU108      0.0001
    130  N          8.4240  -15.4350   52.6630 N.am  109  SER109     -0.1936
    131  CA         9.2140  -16.5470   53.1930 C.3   109  SER109      0.2055
    132  C          8.5660  -17.8980   52.8180 C.2   109  SER109      0.2643
    133  O          7.9250  -18.0040   51.7680 O.2   109  SER109     -0.2714
    134  CB         9.3690  -16.3820   54.7030 C.3   109  SER109      0.2130
    135  OG        10.3460  -17.2810   55.2010 O.3   109  SER109     -0.2179
    136  N          8.7240  -18.9150   53.6700 N.am  110  TYR110     -0.1973
    137  CA         8.2820  -20.2820   53.3500 C.3   110  TYR110      0.1639
    138  C          6.7700  -20.4170   53.3700 C.2   110  TYR110      0.2290
    139  O          6.0950  -19.6760   54.0610 O.2   110  TYR110     -0.2864
    140  CB         8.9250  -21.2980   54.3060 C.3   110  TYR110      0.0560
    141  CG        10.4250  -21.3390   54.1620 C.ar  110  TYR110     -0.0198
    142  CD1       11.0190  -22.0300   53.1080 C.ar  110  TYR110     -0.0009
    143  CD2       11.2570  -20.6520   55.0540 C.ar  110  TYR110     -0.0009
    144  CE1       12.4020  -22.0580   52.9520 C.ar  110  TYR110      0.0417
    145  CE2       12.6390  -20.6690   54.9060 C.ar  110  TYR110      0.0417
    146  CZ        13.2080  -21.3740   53.8540 C.ar  110  TYR110      0.1957
    147  OH        14.5760  -21.4020   53.6920 O.3   110  TYR110     -0.2866
    148  N         -8.6470  -21.8280   45.0530 N.3   154  ASP154     -0.1239
    149  CA        -7.5350  -22.7630   45.2310 C.3   154  ASP154      0.1674
    150  C         -6.7280  -22.5560   46.5280 C.2   154  ASP154      0.2266
    151  O         -5.5010  -22.6280   46.5230 O.2   154  ASP154     -0.2867
    152  CB        -6.5880  -22.7620   44.0130 C.3   154  ASP154      0.1410
    153  CG        -5.7770  -24.0620   43.9000 C.2   154  ASP154      0.3668
    154  OD1       -6.2460  -25.0890   44.4200 O.co2 154  ASP154     -0.2456
    155  OD2       -4.6840  -24.0600   43.2990 O.co2 154  ASP154     -0.2456
    156  N         -4.9620  -23.5820   49.7310 N.3   156  LYS156     -0.1245
    157  CA        -4.2940  -24.7580   50.2420 C.3   156  LYS156      0.1561
    158  C         -3.0060  -24.2680   50.8950 C.2   156  LYS156      0.2260
    159  O         -2.5960  -23.1300   50.6410 O.2   156  LYS156     -0.2867
    160  CB        -4.0210  -25.7690   49.1210 C.3   156  LYS156      0.0271
    161  CG        -3.3590  -25.2030   47.8790 C.3   156  LYS156      0.0035
    162  CD        -3.0900  -26.3000   46.8610 C.3   156  LYS156      0.0206
    163  CE        -2.5990  -25.7280   45.5470 C.3   156  LYS156      0.1093
    164  NZ        -2.3180  -26.8020   44.5460 N.3   156  LYS156     -0.1314
    165  N         -0.2150  -22.3350   49.0070 N.3   159  ASN159     -0.1240
    166  CA        -0.5750  -20.9620   48.5890 C.3   159  ASN159      0.1653
    167  C         -0.7570  -19.9520   49.7390 C.2   159  ASN159      0.2266
    168  O         -1.4300  -18.9270   49.5660 O.2   159  ASN159     -0.2867
    169  CB        -1.8560  -20.9950   47.7330 C.3   159  ASN159      0.1155
    170  CG        -1.6360  -21.6130   46.3730 C.2   159  ASN159      0.2627
    171  OD1       -0.5320  -21.5680   45.8250 O.2   159  ASN159     -0.2716
    172  ND2       -2.6960  -22.1690   45.8010 N.am  159  ASN159     -0.0877
    173  N          1.9180  -18.0720   52.3660 N.3   161  LEU161     -0.1245
    174  CA         3.3400  -17.9160   52.7270 C.3   161  LEU161      0.1561
    175  C          3.5170  -17.0420   53.9620 C.2   161  LEU161      0.2260
    176  O          2.7820  -16.0730   54.1600 O.2   161  LEU161     -0.2867
    177  CB         4.1580  -17.2870   51.5990 C.3   161  LEU161      0.0270
    178  CG         4.0620  -17.6880   50.1270 C.3   161  LEU161      0.0019
    179  CD1        5.2970  -17.2020   49.3720 C.3   161  LEU161      0.0001
    180  CD2        3.8870  -19.1670   49.8770 C.3   161  LEU161      0.0001
    181  N         -1.1480  -16.1850   48.1450 N.3   173  VAL173     -0.1231
    182  CA        -0.5960  -16.0930   46.7930 C.3   173  VAL173      0.1692
    183  C         -1.4230  -16.9020   45.7930 C.2   173  VAL173      0.2592
    184  O         -2.3500  -17.6280   46.1640 O.2   173  VAL173     -0.2718
    185  CB         0.8790  -16.5600   46.7470 C.3   173  VAL173      0.0266
    186  CG1        1.6890  -15.8690   47.8420 C.3   173  VAL173      0.0020
    187  CG2        0.9990  -18.0770   46.8570 C.3   173  VAL173      0.0020
    188  N         -1.0620  -16.7550   44.5240 N.am  174  ASP174     -0.1974
    189  CA        -1.6570  -17.4780   43.3930 C.3   174  ASP174      0.1709
    190  C         -3.1280  -17.1600   43.2240 C.2   174  ASP174      0.2293
    191  O         -3.9850  -17.9010   43.6900 O.2   174  ASP174     -0.2864
    192  CB        -1.4480  -18.9980   43.4840 C.3   174  ASP174      0.1436
    193  CG        -1.9780  -19.7390   42.2570 C.2   174  ASP174      0.3671
    194  OD1       -1.9340  -19.1830   41.1390 O.co2 174  ASP174     -0.2456
    195  OD2       -2.4430  -20.8820   42.4010 O.co2 174  ASP174     -0.2456
    196  N         -4.1690  -17.0310   40.0790 N.3   176  GLY176     -0.1210
    197  CA        -4.3260  -17.5390   38.7020 C.3   176  GLY176      0.1956
    198  C         -5.5620  -18.4030   38.5220 C.2   176  GLY176      0.2612
    199  O         -6.1810  -18.3920   37.4690 O.2   176  GLY176     -0.2717
    200  N         -5.9350  -19.1360   39.5660 N.am  177  SER177     -0.1952
    201  CA        -7.1960  -19.8790   39.5950 C.3   177  SER177      0.1924
    202  C         -8.4190  -19.0030   39.9570 C.2   177  SER177      0.2314
    203  O         -9.5650  -19.4760   39.9270 O.2   177  SER177     -0.2863
    204  CB        -7.0560  -21.0210   40.6030 C.3   177  SER177      0.2116
    205  OG        -8.1250  -21.9480   40.5210 O.3   177  SER177     -0.2180
@<TRIPOS>BOND
     1    69    70    1
     2    70    73    1
     3    70    71    1
     4    76    75    2
     5    25    24    2
     6    73    74    1
     7    31    30    2
     8    71    72    2
     9    75    74    1
    10    75    77   am
    11    24    23    1
    12    24    28   am
    13    30    29    1
    14    26    23    1
    15    26    27    1
    16    29    28    1
    17    29    32    1
    18    23    22    1
    19    17    16    1
    20    21    20    2
    21    32    33    1
    22    22    20   am
    23    16    15    1
    24    20    19    1
    25    78    79    1
    26    63    62    2
    27    33    34   ar
    28    33    35   ar
    29    34    36   ar
    30    62    61    1
    31    15    14    1
    32    19    18    1
    33    35    37   ar
    34    36    38   ar
    35    18    11   am
    36   199   198    2
    37    79    82    1
    38    79    80    1
    39    13    14    1
    40    13    10    1
    41    82    83    1
    42    80    81    2
    43    65    64    1
    44    65    66    1
    45    61    64    1
    46    61    60    1
    47    67    66    1
    48    67    68    1
    49    37    38   ar
    50   198   197    1
    51   198   200   am
    52    11    10    1
    53    11    12    2
    54    10     9    1
    55   197   196    1
    56    86    84   ar
    57    39    40    1
    58    83    84    1
    59    84    85   ar
    60   200   201    1
    61   201   202    1
    62   201   204    1
    63    40    41    1
    64    40    43    1
    65   203   202    2
    66    41    42    2
    67   205   204    1
    68    45    43    1
    69    43    44    1
    70   194   193   ar
    71   103   104   ar
    72   103   101   ar
    73   104   102   ar
    74   101    99   ar
    75   193   195   ar
    76   193   192    1
    77    49    48    2
    78    46    47    1
    79     1     2    1
    80    58    57    2
    81    57    56    1
    82    94    95    1
    83   102   100   ar
    84    48    47    1
    85   190   189    1
    86   190   191    2
    87    99   100   ar
    88    99    98    1
    89   155   153   ar
    90   189   192    1
    91   189   188    1
    92     3     2    1
    93     3     4    2
    94    47    50    1
    95     2     5    1
    96   153   152    1
    97   153   154   ar
    98    56    55    1
    99    56    59    1
   100    95    98    1
   101    95    96    1
   102     6     5    1
   103     6     8    1
   104   152   149    1
   105   188   183   am
   106   164   163    1
   107    50    51    1
   108     5     7    1
   109    97    96    2
   110    96   105   am
   111   148   149    1
   112   149   150    1
   113   163   162    1
   114    51    52    1
   115   183   184    2
   116   183   182    1
   117   172   170   am
   118   171   170    2
   119    92    91    1
   120   105   106    1
   121   170   169    1
   122   151   150    2
   123    90    89    2
   124   185   182    1
   125   185   187    1
   126   185   186    1
   127   182   181    1
   128   162   161    1
   129    52    53    1
   130   121   120    1
   131    93    91    1
   132    89    88    1
   133   106   107    1
   134   106   109    1
   135   108   107    2
   136    91    88    1
   137   169   166    1
   138   107   114   am
   139   161   160    1
   140    53    54    1
   141   120   119    1
   142    88    87    1
   143   114   115    1
   144   166   165    1
   145   166   167    1
   146   109   110    1
   147   115   118    1
   148   115   116    1
   149   118   119    1
   150   110   111    1
   151   160   157    1
   152   179   178    1
   153   168   167    2
   154   156   157    1
   155   180   178    1
   156   122   116   am
   157   122   123    1
   158   116   117    2
   159   178   177    1
   160   128   127    1
   161   157   158    1
   162   111   113   ar
   163   111   112   ar
   164   127   126    1
   165   127   129    1
   166   159   158    2
   167   126   123    1
   168   125   124    2
   169   123   124    1
   170   177   174    1
   171   124   130   am
   172   133   132    2
   173   173   174    1
   174   130   131    1
   175   174   175    1
   176   132   131    1
   177   132   136   am
   178   144   142   ar
   179   144   146   ar
   180   142   141   ar
   181   131   134    1
   182   137   138    1
   183   137   136    1
   184   137   140    1
   185   138   139    2
   186   147   146    1
   187   146   145   ar
   188   175   176    2
   189   141   140    1
   190   141   143   ar
   191   134   135    1
   192   145   143   ar
