@<TRIPOS>MOLECULE
tmp/6eilA00.pdb
 170 161 0 0 0
SMALL
GASTEIGER

@<TRIPOS>ATOM
      1  N          2.3760  -35.9110  -14.8540 N.3    32  ILE32      -0.1231
      2  CA         1.9140  -35.3060  -13.6090 C.3    32  ILE32       0.1692
      3  C          1.1910  -33.9900  -13.8330 C.2    32  ILE32       0.2593
      4  O          0.7610  -33.3610  -12.8550 O.2    32  ILE32      -0.2718
      5  CB         3.0790  -35.1080  -12.6190 C.3    32  ILE32       0.0266
      6  CG1        4.1210  -34.1420  -13.1950 C.3    32  ILE32       0.0019
      7  CG2        3.7100  -36.4560  -12.2750 C.3    32  ILE32       0.0020
      8  CD1        5.2680  -33.8290  -12.2460 C.3    32  ILE32       0.0001
      9  N          1.0430  -33.5480  -15.0780 N.am   33  GLY33      -0.1942
     10  CA         0.4210  -32.2650  -15.3260 C.3    33  GLY33       0.2014
     11  C          0.2750  -31.9380  -16.7950 C.2    33  GLY33       0.2638
     12  O          1.0630  -32.3930  -17.6280 O.2    33  GLY33      -0.2714
     13  N         -0.7340  -31.1330  -17.1150 N.am   34  LYS34      -0.1977
     14  CA        -1.0310  -30.7490  -18.4860 C.3    34  LYS34       0.1596
     15  C         -1.4170  -29.2750  -18.5040 C.2    34  LYS34       0.2287
     16  O         -1.7850  -28.6980  -17.4790 O.2    34  LYS34      -0.2864
     17  CB        -2.1570  -31.6160  -19.0730 C.3    34  LYS34       0.0298
     18  CG        -1.9330  -32.0780  -20.5080 C.3    34  LYS34       0.0038
     19  CD        -2.7120  -33.3620  -20.8020 C.3    34  LYS34       0.0206
     20  CE        -2.4950  -33.8560  -22.2260 C.3    34  LYS34       0.1093
     21  NZ        -3.6840  -33.6130  -23.0950 N.3    34  LYS34      -0.1314
     22  N          0.4750  -24.8340  -22.5240 N.3    37  PHE37      -0.1241
     23  CA         1.8570  -24.8320  -22.9950 C.3    37  PHE37       0.1605
     24  C          2.3080  -26.2100  -23.4550 C.2    37  PHE37       0.2264
     25  O          3.1410  -26.3170  -24.3620 O.2    37  PHE37      -0.2867
     26  CB         2.7800  -24.3490  -21.8780 C.3    37  PHE37       0.0534
     27  CG         2.6650  -25.1590  -20.6130 C.ar   37  PHE37      -0.0203
     28  CD1        3.4150  -26.3080  -20.4370 C.ar   37  PHE37      -0.0042
     29  CD2        1.7990  -24.7740  -19.6070 C.ar   37  PHE37      -0.0042
     30  CE1        3.3050  -27.0530  -19.2810 C.ar   37  PHE37      -0.0003
     31  CE2        1.6860  -25.5140  -18.4530 C.ar   37  PHE37      -0.0003
     32  CZ         2.4390  -26.6540  -18.2880 C.ar   37  PHE37      -0.0000
     33  N          3.8120  -31.6920  -18.1860 N.3    40  VAL40      -0.1245
     34  CA         4.8120  -31.8210  -17.1320 C.3    40  VAL40       0.1561
     35  C          4.8460  -33.2810  -16.7100 C.2    40  VAL40       0.2260
     36  O          3.8080  -33.8470  -16.3510 O.2    40  VAL40      -0.2867
     37  CB         4.4970  -30.9200  -15.9210 C.3    40  VAL40       0.0252
     38  CG1        5.5310  -31.1100  -14.8240 C.3    40  VAL40       0.0019
     39  CG2        4.4340  -29.4640  -16.3410 C.3    40  VAL40       0.0019
     40  N         11.2330  -32.6700  -12.5630 N.3    53  ALA53      -0.1245
     41  CA        10.0150  -32.3830  -13.3080 C.3    53  ALA53       0.1562
     42  C         10.4160  -31.7640  -14.6380 C.2    53  ALA53       0.2260
     43  O         11.0870  -30.7280  -14.6620 O.2    53  ALA53      -0.2867
     44  CB         9.1020  -31.4410  -12.5260 C.3    53  ALA53       0.0290
     45  N          9.2870  -30.0860  -18.1970 N.3    55  LYS55      -0.1245
     46  CA         8.2230  -29.3520  -18.8730 C.3    55  LYS55       0.1561
     47  C          8.4320  -29.4900  -20.3790 C.2    55  LYS55       0.2260
     48  O          9.3360  -28.8700  -20.9450 O.2    55  LYS55      -0.2867
     49  CB         8.2270  -27.8870  -18.4420 C.3    55  LYS55       0.0271
     50  CG         7.1020  -27.0550  -19.0240 C.3    55  LYS55       0.0035
     51  CD         7.2610  -25.5900  -18.6630 C.3    55  LYS55       0.0206
     52  CE         5.9420  -24.9900  -18.2280 C.3    55  LYS55       0.1093
     53  NZ         5.9820  -23.5060  -18.1440 N.3    55  LYS55      -0.1314
     54  N         10.2080  -17.6290  -21.1210 N.3    70  GLU70      -0.1245
     55  CA        10.2860  -18.2020  -19.7820 C.3    70  GLU70       0.1567
     56  C         11.7160  -18.5900  -19.4320 C.2    70  GLU70       0.2260
     57  O         12.1790  -18.3380  -18.3150 O.2    70  GLU70      -0.2867
     58  CB         9.3600  -19.4170  -19.6850 C.3    70  GLU70       0.0388
     59  CG         9.3430  -20.0940  -18.3200 C.3    70  GLU70       0.1160
     60  CD         8.4240  -21.3070  -18.2770 C.2    70  GLU70       0.3649
     61  OE1        8.0800  -21.8350  -19.3560 O.co2  70  GLU70      -0.2457
     62  OE2        8.0450  -21.7310  -17.1620 O.co2  70  GLU70      -0.2457
     63  N         11.3430  -21.5700   -8.0850 N.3    89  VAL89      -0.1245
     64  CA        11.6530  -22.8950   -8.6010 C.3    89  VAL89       0.1561
     65  C         12.8880  -22.8050   -9.4820 C.2    89  VAL89       0.2260
     66  O         13.0240  -21.8920  -10.3070 O.2    89  VAL89      -0.2867
     67  CB        10.4450  -23.4700   -9.3560 C.3    89  VAL89       0.0252
     68  CG1       10.0980  -22.6100  -10.5700 C.3    89  VAL89       0.0019
     69  CG2       10.7060  -24.9160   -9.7650 C.3    89  VAL89       0.0019
     70  N         13.1000  -28.9850  -14.2130 N.3   105  PHE105     -0.1227
     71  CA        13.0020  -28.3250  -12.9230 C.3   105  PHE105      0.1736
     72  C         13.2330  -29.3330  -11.8060 C.2   105  PHE105      0.2595
     73  O         13.2540  -30.5480  -12.0210 O.2   105  PHE105     -0.2718
     74  CB        11.6300  -27.6610  -12.7460 C.3   105  PHE105      0.0547
     75  CG        11.4040  -26.4780  -13.6390 C.ar  105  PHE105     -0.0202
     76  CD1       11.7950  -25.2140  -13.2470 C.ar  105  PHE105     -0.0042
     77  CD2       10.7830  -26.6280  -14.8600 C.ar  105  PHE105     -0.0042
     78  CE1       11.5830  -24.1270  -14.0640 C.ar  105  PHE105     -0.0003
     79  CE2       10.5690  -25.5420  -15.6770 C.ar  105  PHE105     -0.0003
     80  CZ        10.9690  -24.2930  -15.2780 C.ar  105  PHE105     -0.0000
     81  N         13.4070  -28.8100  -10.5970 N.am  106  GLU106     -0.1965
     82  CA        13.4870  -29.6680   -9.4260 C.3   106  GLU106      0.1733
     83  C         12.1130  -30.2460   -9.1210 C.2   106  GLU106      0.2616
     84  O         11.0870  -29.5870   -9.3060 O.2   106  GLU106     -0.2715
     85  CB        14.0220  -28.8910   -8.2220 C.3   106  GLU106      0.0429
     86  CG        13.2550  -27.6200   -7.8850 C.3   106  GLU106      0.1163
     87  CD        13.8380  -26.8870   -6.6830 C.2   106  GLU106      0.3649
     88  OE1       14.3930  -27.5520   -5.7820 O.co2 106  GLU106     -0.2457
     89  OE2       13.7510  -25.6400   -6.6480 O.co2 106  GLU106     -0.2457
     90  N         12.0950  -31.4940   -8.6680 N.am  107  MET107     -0.1963
     91  CA        10.8420  -32.1830   -8.3910 C.3   107  MET107      0.1736
     92  C         10.2710  -31.6490   -7.0850 C.2   107  MET107      0.2616
     93  O         10.8040  -31.9280   -6.0060 O.2   107  MET107     -0.2715
     94  CB        11.0730  -33.6890   -8.3230 C.3   107  MET107      0.0427
     95  CG         9.8100  -34.4940   -8.0830 C.3   107  MET107      0.0599
     96  SD         8.5740  -34.2450   -9.3690 S.3   107  MET107     -0.1393
     97  CE         7.1580  -35.0150   -8.5950 C.3   107  MET107      0.0692
     98  N          9.1910  -30.8810   -7.1780 N.am  108  LEU108     -0.1963
     99  CA         8.5460  -30.2980   -6.0160 C.3   108  LEU108      0.1728
    100  C          7.3180  -31.1180   -5.6370 C.2   108  LEU108      0.2617
    101  O          6.9640  -32.1010   -6.2920 O.2   108  LEU108     -0.2715
    102  CB         8.1700  -28.8400   -6.2840 C.3   108  LEU108      0.0311
    103  CG         9.3340  -27.8580   -6.4330 C.3   108  LEU108      0.0022
    104  CD1        8.8410  -26.5340   -6.9880 C.3   108  LEU108      0.0001
    105  CD2       10.0360  -27.6430   -5.1090 C.3   108  LEU108      0.0001
    106  N          6.6540  -30.6900   -4.5640 N.am  109  SER109     -0.1936
    107  CA         5.5660  -31.4480   -3.9600 C.3   109  SER109      0.2055
    108  C          4.2100  -30.8950   -4.3910 C.2   109  SER109      0.2643
    109  O          4.0690  -30.3800   -5.5060 O.2   109  SER109     -0.2714
    110  CB         5.7080  -31.4260   -2.4330 C.3   109  SER109      0.2130
    111  OG         4.7320  -32.2390   -1.8060 O.3   109  SER109     -0.2179
    112  N          3.2080  -31.0000   -3.5200 N.am  110  TYR110     -0.1959
    113  CA         1.8780  -30.5070   -3.8380 C.3   110  TYR110      0.1771
    114  C          1.8730  -28.9830   -3.9140 C.2   110  TYR110      0.2619
    115  O          2.7890  -28.3050   -3.4430 O.2   110  TYR110     -0.2715
    116  CB         0.8640  -30.9560   -2.7850 C.3   110  TYR110      0.0574
    117  CG         0.9540  -32.4090   -2.3820 C.ar  110  TYR110     -0.0198
    118  CD1        0.6730  -33.4220   -3.2890 C.ar  110  TYR110     -0.0009
    119  CD2        1.2960  -32.7660   -1.0840 C.ar  110  TYR110     -0.0009
    120  CE1        0.7460  -34.7550   -2.9170 C.ar  110  TYR110      0.0417
    121  CE2        1.3700  -34.0940   -0.7010 C.ar  110  TYR110      0.0417
    122  CZ         1.0930  -35.0840   -1.6210 C.ar  110  TYR110      0.1957
    123  OH         1.1640  -36.4070   -1.2450 O.3   110  TYR110     -0.2866
    124  N          0.8120  -28.4460   -4.5070 N.am  111  ASN111     -0.1972
    125  CA         0.5910  -27.0110   -4.5160 C.3   111  ASN111      0.1688
    126  C         -0.3000  -26.6150   -3.3420 C.2   111  ASN111      0.2292
    127  O         -0.8290  -27.4590   -2.6150 O.2   111  ASN111     -0.2864
    128  CB        -0.0210  -26.5680   -5.8470 C.3   111  ASN111      0.1181
    129  CG        -1.3300  -27.2540   -6.1490 C.2   111  ASN111      0.2629
    130  OD1       -2.1870  -27.3990   -5.2800 O.2   111  ASN111     -0.2716
    131  ND2       -1.4930  -27.6840   -7.3920 N.am  111  ASN111     -0.0877
    132  N         -3.9370  -28.0260   -3.5600 N.3   114  ASP114     -0.1239
    133  CA        -3.9980  -29.3990   -3.0720 C.3   114  ASP114      0.1674
    134  C         -4.0970  -29.4150   -1.5550 C.2   114  ASP114      0.2266
    135  O         -4.9820  -30.0570   -0.9810 O.2   114  ASP114     -0.2867
    136  CB        -2.7620  -30.1790   -3.5290 C.3   114  ASP114      0.1410
    137  CG        -2.7370  -30.4250   -5.0260 C.2   114  ASP114      0.3668
    138  OD1       -3.8000  -30.7280   -5.6040 O.co2 114  ASP114     -0.2456
    139  OD2       -1.6450  -30.3200   -5.6250 O.co2 114  ASP114     -0.2456
    140  N          0.0570  -22.1600   -8.2620 N.3   159  ASN159     -0.1240
    141  CA         1.3890  -21.7750   -8.7020 C.3   159  ASN159      0.1653
    142  C          2.3730  -21.6360   -7.5450 C.2   159  ASN159      0.2266
    143  O          3.3890  -20.9480   -7.6880 O.2   159  ASN159     -0.2867
    144  CB         1.3180  -20.4680   -9.4930 C.3   159  ASN159      0.1155
    145  CG         0.8220  -20.6730  -10.9070 C.2   159  ASN159      0.2627
    146  OD1        0.9660  -21.7510  -11.4820 O.2   159  ASN159     -0.2716
    147  ND2        0.2420  -19.6330  -11.4790 N.am  159  ASN159     -0.0877
    148  N          4.2250  -24.2830   -4.8200 N.3   161  LEU161     -0.1245
    149  CA         4.4140  -25.6790   -4.4490 C.3   161  LEU161      0.1561
    150  C          5.2340  -25.7970   -3.1700 C.2   161  LEU161      0.2260
    151  O          6.0940  -24.9610   -2.8800 O.2   161  LEU161     -0.2867
    152  CB         5.1200  -26.4610   -5.5630 C.3   161  LEU161      0.0270
    153  CG         4.6420  -26.2890   -7.0060 C.3   161  LEU161      0.0019
    154  CD1        5.2930  -27.3340   -7.9010 C.3   161  LEU161      0.0001
    155  CD2        3.1380  -26.3750   -7.1110 C.3   161  LEU161      0.0001
    156  N          6.2240  -21.2070   -8.9500 N.3   173  VAL173     -0.1231
    157  CA         6.4520  -21.9530  -10.1810 C.3   173  VAL173      0.1692
    158  C          5.7190  -21.2800  -11.3330 C.2   173  VAL173      0.2592
    159  O          4.8860  -20.3910  -11.1460 O.2   173  VAL173     -0.2718
    160  CB         6.0100  -23.4290  -10.0680 C.3   173  VAL173      0.0266
    161  CG1        6.7670  -24.1320   -8.9630 C.3   173  VAL173      0.0020
    162  CG2        4.5210  -23.5300   -9.8340 C.3   173  VAL173      0.0020
    163  N          6.0480  -21.7340  -12.5400 N.am  174  ASP174     -0.1974
    164  CA         5.3390  -21.3510  -13.7530 C.3   174  ASP174      0.1709
    165  C          5.4550  -19.8590  -14.0270 C.2   174  ASP174      0.2293
    166  O          4.5570  -19.0820  -13.6890 O.2   174  ASP174     -0.2864
    167  CB         3.8670  -21.7560  -13.6610 C.3   174  ASP174      0.1436
    168  CG         3.1560  -21.6810  -15.0010 C.2   174  ASP174      0.3671
    169  OD1        3.8400  -21.5660  -16.0420 O.co2 174  ASP174     -0.2456
    170  OD2        1.9100  -21.7480  -15.0140 O.co2 174  ASP174     -0.2456
@<TRIPOS>BOND
     1    25    24    2
     2    24    23    1
     3    21    20    1
     4    23    22    1
     5    23    26    1
     6    20    19    1
     7    26    27    1
     8    54    55    1
     9    48    47    2
    10    19    18    1
    11    27    28   ar
    12    27    29   ar
    13    18    17    1
    14    28    30   ar
    15    47    46    1
    16    55    58    1
    17    55    56    1
    18    58    59    1
    19    29    31   ar
    20    56    57    2
    21    61    60   ar
    22    30    32   ar
    23    17    14    1
    24    50    51    1
    25    50    49    1
    26    46    49    1
    27    46    45    1
    28    51    52    1
    29    15    14    1
    30    15    16    2
    31    14    13    1
    32    31    32   ar
    33    59    60    1
    34    60    62   ar
    35    52    53    1
    36    33    34    1
    37    12    11    2
    38    34    35    1
    39    34    37    1
    40    13    11   am
    41    11    10    1
    42    35    36    2
    43    39    37    1
    44   169   168   ar
    45    37    38    1
    46    79    80   ar
    47    79    77   ar
    48    10     9    1
    49    80    78   ar
    50     9     3   am
    51   170   168   ar
    52   168   167    1
    53    77    75   ar
    54     1     2    1
    55    43    42    2
    56    42    41    1
    57    70    71    1
    58    78    76   ar
    59   165   164    1
    60   165   166    2
    61     3     2    1
    62     3     4    2
    63   164   167    1
    64   164   163    1
    65    75    76   ar
    66    75    74    1
    67     2     5    1
    68    41    40    1
    69    41    44    1
    70     6     5    1
    71     6     8    1
    72    71    74    1
    73    71    72    1
    74     5     7    1
    75   163   158   am
    76    73    72    2
    77    72    81   am
    78   146   145    2
    79   147   145   am
    80   158   159    2
    81   158   157    1
    82   145   144    1
    83    81    82    1
    84    68    67    1
    85    66    65    2
    86   157   160    1
    87   157   156    1
    88   160   162    1
    89   160   161    1
    90    69    67    1
    91   144   141    1
    92    65    64    1
    93    82    83    1
    94    82    85    1
    95    96    97    1
    96    96    95    1
    97    67    64    1
    98    84    83    2
    99    83    90   am
   100   141   140    1
   101   141   142    1
   102    90    91    1
   103    64    63    1
   104    91    94    1
   105    91    92    1
   106    94    95    1
   107    85    86    1
   108   154   153    1
   109    86    87    1
   110   143   142    2
   111   131   129   am
   112    98    92   am
   113    98    99    1
   114   155   153    1
   115    92    93    2
   116   153   152    1
   117   104   103    1
   118    87    89   ar
   119    87    88   ar
   120   103   102    1
   121   103   105    1
   122   101   100    2
   123   102    99    1
   124   129   128    1
   125   129   130    2
   126    99   100    1
   127   128   125    1
   128   100   106   am
   129   139   137   ar
   130   138   137   ar
   131   152   149    1
   132   109   108    2
   133   137   136    1
   134   148   149    1
   135   106   107    1
   136   125   124    1
   137   125   126    1
   138   124   114   am
   139   149   150    1
   140   108   107    1
   141   108   112   am
   142   107   110    1
   143   114   113    1
   144   114   115    2
   145   113   112    1
   146   113   116    1
   147   132   133    1
   148   136   133    1
   149   126   127    2
   150   118   120   ar
   151   118   117   ar
   152   150   151    2
   153   133   134    1
   154   120   122   ar
   155   116   117    1
   156   110   111    1
   157   117   119   ar
   158   122   123    1
   159   122   121   ar
   160   134   135    2
   161   119   121   ar
