@<TRIPOS>MOLECULE
tmp/6einA00.pdb
 175 169 0 0 0
SMALL
GASTEIGER

@<TRIPOS>ATOM
      1  N         94.6710   56.3370   13.7970 N.3   123  TYR123     -0.1241
      2  CA        93.8350   57.3810   14.3900 C.3   123  TYR123      0.1605
      3  C         92.7200   56.7150   15.1810 C.2   123  TYR123      0.2264
      4  O         91.8700   56.0370   14.5920 O.2   123  TYR123     -0.2867
      5  CB        93.2420   58.2870   13.3030 C.3   123  TYR123      0.0534
      6  CG        92.7100   59.6340   13.7590 C.ar  123  TYR123     -0.0201
      7  CD1       92.8370   60.0660   15.0850 C.ar  123  TYR123     -0.0009
      8  CD2       92.0990   60.4950   12.8450 C.ar  123  TYR123     -0.0009
      9  CE1       92.3410   61.3170   15.4910 C.ar  123  TYR123      0.0417
     10  CE2       91.6160   61.7430   13.2340 C.ar  123  TYR123      0.0417
     11  CZ        91.7410   62.1540   14.5560 C.ar  123  TYR123      0.1957
     12  OH        91.2480   63.4000   14.9310 O.3   123  TYR123     -0.2866
     13  N         89.6040   57.1170   16.0510 N.3   125  ALA125     -0.1231
     14  CA        88.5800   58.0690   15.6550 C.3   125  ALA125      0.1694
     15  C         87.1790   57.5010   15.8570 C.2   125  ALA125      0.2592
     16  O         86.9620   56.2880   15.8060 O.2   125  ALA125     -0.2718
     17  CB        88.7660   58.4940   14.1930 C.3   125  ALA125      0.0304
     18  N         86.2280   58.4080   16.0880 N.am  126  ASP126     -0.1974
     19  CA        84.8140   58.0640   16.2880 C.3   126  ASP126      0.1709
     20  C         84.6340   56.9700   17.3420 C.2   126  ASP126      0.2293
     21  O         83.8660   56.0220   17.1670 O.2   126  ASP126     -0.2864
     22  CB        84.1470   57.6670   14.9700 C.3   126  ASP126      0.1436
     23  CG        83.9060   58.8570   14.0580 C.2   126  ASP126      0.3671
     24  OD1       83.4070   59.8960   14.5410 O.co2 126  ASP126     -0.2456
     25  OD2       84.2270   58.7550   12.8560 O.co2 126  ASP126     -0.2456
     26  N         71.1430   58.9940   16.1090 N.3   175  CYS175     -0.1221
     27  CA        72.1590   58.0010   16.2150 C.3   175  CYS175      0.1808
     28  C         73.5640   58.6270   16.3960 C.2   175  CYS175      0.2602
     29  O         74.3910   58.6290   15.4860 O.2   175  CYS175     -0.2717
     30  CB        72.1800   57.0500   15.0360 C.3   175  CYS175      0.0970
     31  SG        73.6860   56.0390   15.0820 S.3   175  CYS175     -0.0800
     32  N         73.8640   59.1800   17.6010 N.am  176  GLY176     -0.1942
     33  CA        75.1390   59.7790   17.9510 C.3   176  GLY176      0.2014
     34  C         75.2080   61.2790   17.7240 C.2   176  GLY176      0.2638
     35  O         76.2110   61.9120   18.0470 O.2   176  GLY176     -0.2714
     36  N         74.1460   61.8510   17.1570 N.am  177  MET177     -0.1976
     37  CA        74.0190   63.2980   17.0490 C.3   177  MET177      0.1605
     38  C         73.5420   63.9450   18.3430 C.2   177  MET177      0.2287
     39  O         73.2170   65.1390   18.3360 O.2   177  MET177     -0.2864
     40  CB        73.0690   63.6700   15.9060 C.3   177  MET177      0.0413
     41  CG        73.6200   63.3790   14.5160 C.3   177  MET177      0.0598
     42  SD        72.6390   64.1220   13.1780 S.3   177  MET177     -0.1393
     43  CE        73.1300   65.8450   13.2640 C.3   177  MET177      0.0692
     44  N         81.5220   62.2520   20.7240 N.3   181  TRP181     -0.1241
     45  CA        82.4940   61.3260   20.1530 C.3   181  TRP181      0.1605
     46  C         83.9030   61.7320   20.5670 C.2   181  TRP181      0.2264
     47  O         84.1970   62.9190   20.7290 O.2   181  TRP181     -0.2867
     48  CB        82.3930   61.2840   18.6120 C.3   181  TRP181      0.0550
     49  CG        81.0410   60.8370   18.1680 C.ar  181  TRP181      0.0003
     50  CD1       79.9550   61.6260   17.9290 C.ar  181  TRP181      0.0946
     51  CD2       80.6100   59.4850   17.9640 C.ar  181  TRP181      0.0152
     52  NE1       78.8770   60.8520   17.5750 N.ar  181  TRP181     -0.2442
     53  CE2       79.2530   59.5330   17.5870 C.ar  181  TRP181      0.0810
     54  CE3       81.2420   58.2370   18.0600 C.ar  181  TRP181      0.0012
     55  CZ2       78.5170   58.3830   17.3010 C.ar  181  TRP181      0.0191
     56  CZ3       80.5130   57.1000   17.7810 C.ar  181  TRP181      0.0001
     57  CH2       79.1630   57.1800   17.4030 C.ar  181  TRP181      0.0015
     58  N         88.2610   61.3860   20.0300 N.3   183  TYR183     -0.1241
     59  CA        89.2950   61.2550   18.9940 C.3   183  TYR183      0.1605
     60  C         90.6680   61.2590   19.6480 C.2   183  TYR183      0.2264
     61  O         91.0710   62.2750   20.2290 O.2   183  TYR183     -0.2867
     62  CB        89.1910   62.3860   17.9740 C.3   183  TYR183      0.0534
     63  CG        87.8440   62.4520   17.2900 C.ar  183  TYR183     -0.0201
     64  CD1       87.5710   61.6720   16.1720 C.ar  183  TYR183     -0.0009
     65  CD2       86.8410   63.2810   17.7700 C.ar  183  TYR183     -0.0009
     66  CE1       86.3240   61.7130   15.5460 C.ar  183  TYR183      0.0417
     67  CE2       85.5960   63.3310   17.1510 C.ar  183  TYR183      0.0417
     68  CZ        85.3480   62.5490   16.0380 C.ar  183  TYR183      0.1957
     69  OH        84.1180   62.5960   15.4260 O.3   183  TYR183     -0.2866
     70  N         94.5470   62.4200   10.4270 N.3   190  SER190     -0.1202
     71  CA        93.8410   63.5200    9.7670 C.3   190  SER190      0.2020
     72  C         92.3560   63.2380    9.5700 C.2   190  SER190      0.2618
     73  O         91.8830   62.0990    9.6710 O.2   190  SER190     -0.2717
     74  CB        94.4900   63.8440    8.4130 C.3   190  SER190      0.2103
     75  OG        94.5110   62.6950    7.6000 O.3   190  SER190     -0.2182
     76  N         91.6170   64.3150    9.2800 N.am  191  PHE191     -0.1975
     77  CA        90.2300   64.2260    8.8350 C.3   191  PHE191      0.1639
     78  C         90.0510   64.9770    7.5160 C.2   191  PHE191      0.2290
     79  O         90.5440   66.1060    7.3600 O.2   191  PHE191     -0.2864
     80  CB        89.2350   64.7400    9.9260 C.3   191  PHE191      0.0560
     81  CG        89.5840   66.0920   10.5690 C.ar  191  PHE191     -0.0200
     82  CD1       90.5680   66.1890   11.5460 C.ar  191  PHE191     -0.0042
     83  CD2       88.8400   67.2430   10.2600 C.ar  191  PHE191     -0.0042
     84  CE1       90.8550   67.4130   12.1810 C.ar  191  PHE191     -0.0003
     85  CE2       89.1130   68.4690   10.8920 C.ar  191  PHE191     -0.0003
     86  CZ        90.1310   68.5530   11.8580 C.ar  191  PHE191     -0.0000
     87  N         84.8350   67.7510    4.6850 N.3   194  HIS194     -0.1241
     88  CA        83.4560   67.2890    4.8530 C.3   194  HIS194      0.1621
     89  C         82.6060   68.3900    5.4820 C.2   194  HIS194      0.2264
     90  O         83.1180   69.3670    6.0380 O.2   194  HIS194     -0.2867
     91  CB        83.3960   66.0420    5.7420 C.3   194  HIS194      0.0745
     92  CG        83.7630   66.3270    7.1650 C.ar  194  HIS194      0.0817
     93  ND1       85.0740   66.4620    7.5810 N.ar  194  HIS194     -0.2268
     94  CD2       82.9950   66.5480    8.2630 C.ar  194  HIS194      0.1154
     95  CE1       85.0940   66.7430    8.8740 C.ar  194  HIS194      0.1986
     96  NE2       83.8470   66.7990    9.3130 N.ar  194  HIS194     -0.2212
     97  N         78.8410   68.5320    8.0840 N.3   196  GLU196     -0.1231
     98  CA        78.1050   67.7070    9.0480 C.3   196  GLU196      0.1699
     99  C         76.7660   67.2270    8.4840 C.2   196  GLU196      0.2592
    100  O         76.1700   67.8590    7.6060 O.2   196  GLU196     -0.2718
    101  CB        77.8450   68.4770   10.3400 C.3   196  GLU196      0.0402
    102  CG        79.1080   68.9310   11.0730 C.3   196  GLU196      0.1161
    103  CD        80.1030   67.7980   11.2860 C.2   196  GLU196      0.3649
    104  OE1       79.7600   66.7800   11.9260 O.co2 196  GLU196     -0.2457
    105  OE2       81.2360   67.9280   10.8050 O.co2 196  GLU196     -0.2457
    106  N         76.3010   66.0870    8.9970 N.am  197  ASP197     -0.1974
    107  CA        74.9800   65.5720    8.6340 C.3   197  ASP197      0.1709
    108  C         73.9020   66.6250    8.8760 C.2   197  ASP197      0.2293
    109  O         73.9060   67.3080    9.9050 O.2   197  ASP197     -0.2864
    110  CB        74.6520   64.3190    9.4560 C.3   197  ASP197      0.1436
    111  CG        75.4510   63.1090    9.0290 C.2   197  ASP197      0.3671
    112  OD1       75.8980   63.0730    7.8660 O.co2 197  ASP197     -0.2456
    113  OD2       75.6260   62.1890    9.8590 O.co2 197  ASP197     -0.2456
    114  N         78.8400   71.9030   14.7290 N.3   202  SER202     -0.1217
    115  CA        79.5690   71.0260   15.6500 C.3   202  SER202      0.1889
    116  C         80.4310   71.8690   16.5930 C.2   202  SER202      0.2288
    117  O         80.7520   73.0270   16.3060 O.2   202  SER202     -0.2866
    118  CB        80.4170   69.9710   14.9090 C.3   202  SER202      0.2089
    119  OG        81.5940   70.5190   14.3350 O.3   202  SER202     -0.2183
    120  N         83.9470   71.2040   19.2510 N.3   204  ASN204     -0.1240
    121  CA        85.0750   70.2910   19.4850 C.3   204  ASN204      0.1653
    122  C         85.9590   70.8770   20.5840 C.2   204  ASN204      0.2266
    123  O         86.4030   72.0270   20.4810 O.2   204  ASN204     -0.2867
    124  CB        85.8960   70.0730   18.1670 C.3   204  ASN204      0.1155
    125  CG        87.1580   69.1360   18.3240 C.2   204  ASN204      0.2627
    126  OD1       88.0640   69.3760   19.1580 O.2   204  ASN204     -0.2716
    127  ND2       87.2450   68.1070   17.4420 N.am  204  ASN204     -0.0877
    128  N         95.6810   70.5480   17.5270 N.3   212  LYS212     -0.1245
    129  CA        94.9430   70.0650   16.3580 C.3   212  LYS212      0.1561
    130  C         94.8430   71.2140   15.3490 C.2   212  LYS212      0.2260
    131  O         94.3180   72.2850   15.6730 O.2   212  LYS212     -0.2867
    132  CB        93.5470   69.5510   16.7700 C.3   212  LYS212      0.0271
    133  CG        92.6670   68.9430   15.6140 C.3   212  LYS212      0.0035
    134  CD        91.2020   68.5720   16.0800 C.3   212  LYS212      0.0206
    135  CE        91.1770   67.4920   17.2200 C.3   212  LYS212      0.1093
    136  NZ        91.5570   66.1140   16.7360 N.3   212  LYS212     -0.1314
    137  N         93.4000   72.9860   12.0030 N.3   214  TRP214     -0.1241
    138  CA        92.1460   73.0000   11.2460 C.3   214  TRP214      0.1605
    139  C         92.2420   73.8810   10.0050 C.2   214  TRP214      0.2264
    140  O         92.9590   74.8850   10.0040 O.2   214  TRP214     -0.2867
    141  CB        90.9770   73.5690   12.0780 C.3   214  TRP214      0.0550
    142  CG        90.5330   72.7910   13.2750 C.ar  214  TRP214      0.0003
    143  CD1       91.2330   72.5900   14.4380 C.ar  214  TRP214      0.0946
    144  CD2       89.2580   72.1510   13.4550 C.ar  214  TRP214      0.0152
    145  NE1       90.4850   71.8390   15.3170 N.ar  214  TRP214     -0.2442
    146  CE2       89.2630   71.5650   14.7390 C.ar  214  TRP214      0.0810
    147  CE3       88.1140   72.0170   12.6480 C.ar  214  TRP214      0.0012
    148  CZ2       88.1590   70.8560   15.2470 C.ar  214  TRP214      0.0191
    149  CZ3       87.0180   71.3100   13.1500 C.ar  214  TRP214      0.0001
    150  CH2       87.0500   70.7420   14.4430 C.ar  214  TRP214      0.0015
    151  N         85.2150   71.5940    6.4290 N.3   272  HIS272     -0.1241
    152  CA        86.4190   71.6290    7.2480 C.3   272  HIS272      0.1621
    153  C         87.2140   70.3290    7.0860 C.2   272  HIS272      0.2264
    154  O         86.6790   69.2930    6.6750 O.2   272  HIS272     -0.2867
    155  CB        86.0980   71.9120    8.7470 C.3   272  HIS272      0.0745
    156  CG        85.0470   71.0210    9.3500 C.ar  272  HIS272      0.0817
    157  ND1       83.7010   71.1390    9.0450 N.ar  272  HIS272     -0.2268
    158  CD2       85.1350   70.0320   10.2800 C.ar  272  HIS272      0.1154
    159  CE1       83.0120   70.2590    9.7550 C.ar  272  HIS272      0.1986
    160  NE2       83.8540   69.5770   10.5170 N.ar  272  HIS272     -0.2212
    161  N         77.5270   67.2280   17.7500 N.3   286  ASN286     -0.1240
    162  CA        76.7510   68.0410   16.8100 C.3   286  ASN286      0.1653
    163  C         75.6170   68.7420   17.5510 C.2   286  ASN286      0.2266
    164  O         75.1920   68.2910   18.6160 O.2   286  ASN286     -0.2867
    165  CB        76.1590   67.1910   15.6680 C.3   286  ASN286      0.1155
    166  CG        77.2130   66.5910   14.7560 C.2   286  ASN286      0.2627
    167  OD1       77.5970   65.4350   14.9160 O.2   286  ASN286     -0.2716
    168  ND2       77.6750   67.3680   13.7850 N.am  286  ASN286     -0.0877
    169  N         69.5570   61.1660    7.9620 N.3   311  VAL311     -0.1245
    170  CA        69.7670   60.6120    9.2960 C.3   311  VAL311      0.1561
    171  C         68.4550   60.5710   10.0630 C.2   311  VAL311      0.2260
    172  O         68.1560   59.5950   10.7670 O.2   311  VAL311     -0.2867
    173  CB        70.8460   61.4110   10.0570 C.3   311  VAL311      0.0252
    174  CG1       71.0250   60.8520   11.4700 C.3   311  VAL311      0.0019
    175  CG2       72.1640   61.3600    9.2940 C.3   311  VAL311      0.0019
@<TRIPOS>BOND
     1    87    88    1
     2    88    89    1
     3    88    91    1
     4    89    90    2
     5    91    92    1
     6   151   152    1
     7   154   153    2
     8   153   152    1
     9    92    93   ar
    10    92    94   ar
    11   152   155    1
    12    79    78    2
    13    78    77    1
    14    93    95   ar
    15    75    74    1
    16   100    99    2
    17   112   111   ar
    18   169   170    1
    19    97    98    1
    20    94    96   ar
    21    74    71    1
    22    99   106   am
    23    99    98    1
    24   107   108    1
    25   107   106    1
    26   107   110    1
    27   155   156    1
    28    77    76    1
    29    77    80    1
    30    95    96   ar
    31   108   109    2
    32   111   110    1
    33   111   113   ar
    34   157   156   ar
    35   157   159   ar
    36    98   101    1
    37    76    72   am
    38   175   173    1
    39   170   173    1
    40   170   171    1
    41   156   158   ar
    42    72    73    2
    43    72    71    1
    44   159   160   ar
    45    71    70    1
    46    80    81    1
    47   140   139    2
    48   139   138    1
    49   173   174    1
    50   171   172    2
    51    83    81   ar
    52    83    85   ar
    53   158   160   ar
    54   101   102    1
    55    81    82   ar
    56   105   103   ar
    57    85    86   ar
    58   102   103    1
    59   138   137    1
    60   138   141    1
    61   103   104   ar
    62    82    84   ar
    63    86    84   ar
    64   141   142    1
    65   147   149   ar
    66   147   144   ar
    67     8    10   ar
    68     8     6   ar
    69    25    23   ar
    70   149   150   ar
    71    42    43    1
    72    42    41    1
    73    10    11   ar
    74   142   144   ar
    75   142   143   ar
    76     5     6    1
    77     5     2    1
    78   144   146   ar
    79     6     7   ar
    80   168   166   am
    81     1     2    1
    82    23    24   ar
    83    23    22    1
    84    17    14    1
    85   119   118    1
    86     2     3    1
    87   143   145   ar
    88   150   148   ar
    89    41    40    1
    90    11    12    1
    91    11     9   ar
    92     4     3    2
    93   114   115    1
    94   146   148   ar
    95   146   145   ar
    96   166   167    2
    97   166   165    1
    98   118   115    1
    99    22    19    1
   100    30    31    1
   101    30    27    1
   102     7     9   ar
   103   130   131    2
   104   130   129    1
   105    69    68    1
   106    29    28    2
   107    66    68   ar
   108    66    64   ar
   109   133   134    1
   110   133   132    1
   111   115   116    1
   112    14    15    1
   113    14    13    1
   114   165   162    1
   115    16    15    2
   116    15    18   am
   117    40    37    1
   118    68    67   ar
   119   134   135    1
   120    18    19    1
   121    26    27    1
   122    64    63   ar
   123    27    28    1
   124    19    20    1
   125   117   116    2
   126   129   132    1
   127   129   128    1
   128    28    32   am
   129   136   135    1
   130   162   163    1
   131   162   161    1
   132    37    36    1
   133    37    38    1
   134    67    65   ar
   135    36    34   am
   136    21    20    2
   137    63    65   ar
   138    63    62    1
   139    55    57   ar
   140    55    53   ar
   141    57    56   ar
   142   127   125   am
   143   163   164    2
   144    52    53   ar
   145    52    50   ar
   146    53    51   ar
   147    32    33    1
   148    34    33    1
   149    34    35    2
   150    56    54   ar
   151    50    49   ar
   152    51    54   ar
   153    51    49   ar
   154    62    59    1
   155   124   125    1
   156   124   121    1
   157    49    48    1
   158   125   126    2
   159    39    38    2
   160    48    45    1
   161    59    60    1
   162    59    58    1
   163   120   121    1
   164   121   122    1
   165    60    61    2
   166    45    46    1
   167    45    44    1
   168   123   122    2
   169    46    47    2
