@<TRIPOS>MOLECULE
tmp/6eipD00.pdb
 170 161 0 0 0
SMALL
GASTEIGER

@<TRIPOS>ATOM
      1  N        -25.5420  -24.1730  -35.7200 N.3    32  ILE32      -0.1231
      2  CA       -24.8960  -24.7380  -34.5190 C.3    32  ILE32       0.1692
      3  C        -25.0730  -23.9150  -33.2310 C.2    32  ILE32       0.2592
      4  O        -24.7840  -24.4140  -32.1420 O.2    32  ILE32      -0.2718
      5  CB       -23.3860  -25.0190  -34.7480 C.3    32  ILE32       0.0266
      6  CG1      -22.5900  -23.7360  -35.0200 C.3    32  ILE32       0.0019
      7  CG2      -23.1980  -26.0140  -35.8830 C.3    32  ILE32       0.0020
      8  CD1      -21.0910  -23.9300  -34.9420 C.3    32  ILE32       0.0001
      9  N        -25.5330  -22.6690  -33.3490 N.am   33  GLY33      -0.1957
     10  CA       -25.7100  -21.7980  -32.1890 C.3    33  GLY33       0.1869
     11  C        -26.6860  -20.6630  -32.4350 C.2    33  GLY33       0.2309
     12  O        -26.9830  -20.3160  -33.5820 O.2    33  GLY33      -0.2863
     13  N        -27.4200  -11.8540  -29.8520 N.3    37  PHE37      -0.1241
     14  CA       -26.5380  -11.4090  -30.9510 C.3    37  PHE37       0.1605
     15  C        -27.0000  -11.8010  -32.3600 C.2    37  PHE37       0.2264
     16  O        -26.8650  -11.0160  -33.3050 O.2    37  PHE37      -0.2867
     17  CB       -25.0960  -11.9170  -30.7320 C.3    37  PHE37       0.0534
     18  CG       -24.9520  -13.4250  -30.7560 C.ar   37  PHE37      -0.0203
     19  CD1      -24.7910  -14.1130  -31.9640 C.ar   37  PHE37      -0.0042
     20  CD2      -24.9540  -14.1600  -29.5720 C.ar   37  PHE37      -0.0042
     21  CE1      -24.6510  -15.4930  -31.9870 C.ar   37  PHE37      -0.0003
     22  CE2      -24.8130  -15.5440  -29.5890 C.ar   37  PHE37      -0.0003
     23  CZ       -24.6580  -16.2110  -30.7960 C.ar   37  PHE37      -0.0000
     24  N        -25.1750  -18.7050  -35.2290 N.3    40  VAL40      -0.1245
     25  CA       -23.8350  -19.2580  -35.4540 C.3    40  VAL40       0.1561
     26  C        -23.9600  -20.5410  -36.2830 C.2    40  VAL40       0.2260
     27  O        -24.6400  -21.4800  -35.8640 O.2    40  VAL40      -0.2867
     28  CB       -23.1160  -19.5800  -34.1220 C.3    40  VAL40       0.0252
     29  CG1      -21.6510  -19.9200  -34.3680 C.3    40  VAL40       0.0019
     30  CG2      -23.2350  -18.4160  -33.1460 C.3    40  VAL40       0.0019
     31  N        -16.6060  -21.4830  -38.4180 N.3    53  ALA53      -0.1245
     32  CA       -17.8100  -21.1280  -37.6790 C.3    53  ALA53       0.1562
     33  C        -18.0970  -19.6690  -37.9650 C.2    53  ALA53       0.2260
     34  O        -17.2710  -18.8110  -37.6520 O.2    53  ALA53      -0.2867
     35  CB       -17.6030  -21.3420  -36.1950 C.3    53  ALA53       0.0290
     36  N        -20.3730  -16.4660  -37.2340 N.3    55  LYS55      -0.1245
     37  CA       -21.3240  -15.7830  -36.3500 C.3    55  LYS55       0.1561
     38  C        -22.0550  -14.7030  -37.1470 C.2    55  LYS55       0.2260
     39  O        -21.4610  -13.6850  -37.5060 O.2    55  LYS55      -0.2867
     40  CB       -20.5970  -15.1620  -35.1470 C.3    55  LYS55       0.0271
     41  CG       -21.5100  -14.6530  -34.0320 C.3    55  LYS55       0.0035
     42  CD       -20.7030  -14.0660  -32.8800 C.3    55  LYS55       0.0206
     43  CE       -21.5910  -13.4810  -31.7890 C.3    55  LYS55       0.1093
     44  NZ       -20.8200  -12.6950  -30.7850 N.3    55  LYS55      -0.1314
     45  N        -16.6290   -6.0610  -30.4190 N.3    70  GLU70      -0.1245
     46  CA       -16.0230   -7.3970  -30.3440 C.3    70  GLU70       0.1567
     47  C        -14.9110   -7.5660  -31.3820 C.2    70  GLU70       0.2260
     48  O        -13.8720   -8.1510  -31.0890 O.2    70  GLU70      -0.2867
     49  CB       -17.0820   -8.4940  -30.5180 C.3    70  GLU70       0.0388
     50  CG       -16.5950   -9.8900  -30.1520 C.3    70  GLU70       0.1160
     51  CD       -17.6430  -10.9770  -30.3480 C.2    70  GLU70       0.3649
     52  OE1      -18.8530  -10.6680  -30.4240 O.co2  70  GLU70      -0.2457
     53  OE2      -17.2420  -12.1580  -30.4150 O.co2  70  GLU70      -0.2457
     54  N         -9.3690  -18.0700  -29.1250 N.3    89  VAL89      -0.1245
     55  CA        -9.8800  -18.2720  -30.4780 C.3    89  VAL89       0.1561
     56  C         -9.4340  -17.1400  -31.4060 C.2    89  VAL89       0.2260
     57  O         -9.2600  -15.9970  -30.9730 O.2    89  VAL89      -0.2867
     58  CB       -11.4220  -18.4360  -30.4950 C.3    89  VAL89       0.0252
     59  CG1      -12.1350  -17.1130  -30.2250 C.3    89  VAL89       0.0019
     60  CG2      -11.8940  -19.0450  -31.8140 C.3    89  VAL89       0.0019
     61  N        -14.8990  -17.4870  -37.4730 N.3   105  PHE105     -0.1227
     62  CA       -13.9710  -18.0920  -36.5150 C.3   105  PHE105      0.1736
     63  C        -13.5470  -19.4800  -36.9750 C.2   105  PHE105      0.2595
     64  O        -14.2430  -20.1250  -37.7690 O.2   105  PHE105     -0.2718
     65  CB       -14.6210  -18.2050  -35.1350 C.3   105  PHE105      0.0547
     66  CG       -14.9650  -16.8820  -34.5140 C.ar  105  PHE105     -0.0202
     67  CD1      -14.0150  -16.1720  -33.7900 C.ar  105  PHE105     -0.0042
     68  CD2      -16.2380  -16.3420  -34.6520 C.ar  105  PHE105     -0.0042
     69  CE1      -14.3290  -14.9480  -33.2130 C.ar  105  PHE105     -0.0003
     70  CE2      -16.5560  -15.1180  -34.0820 C.ar  105  PHE105     -0.0003
     71  CZ       -15.6020  -14.4230  -33.3560 C.ar  105  PHE105     -0.0000
     72  N        -12.4000  -19.9290  -36.4690 N.am  106  GLU106     -0.1965
     73  CA       -11.9190  -21.2920  -36.7040 C.3   106  GLU106      0.1733
     74  C        -12.8630  -22.3200  -36.0730 C.2   106  GLU106      0.2616
     75  O        -13.4230  -22.0840  -34.9980 O.2   106  GLU106     -0.2715
     76  CB       -10.4830  -21.4700  -36.1760 C.3   106  GLU106      0.0429
     77  CG       -10.3210  -21.3710  -34.6620 C.3   106  GLU106      0.1163
     78  CD        -8.8970  -21.0540  -34.2390 C.2   106  GLU106      0.3649
     79  OE1       -8.7010  -20.0920  -33.4640 O.co2 106  GLU106     -0.2457
     80  OE2       -7.9700  -21.7620  -34.6830 O.co2 106  GLU106     -0.2457
     81  N        -13.0440  -23.4460  -36.7620 N.am  107  MET107     -0.1963
     82  CA       -13.9230  -24.5230  -36.2970 C.3   107  MET107      0.1736
     83  C        -13.2410  -25.3020  -35.1770 C.2   107  MET107      0.2616
     84  O        -12.0620  -25.6490  -35.2860 O.2   107  MET107     -0.2715
     85  CB       -14.2590  -25.4700  -37.4520 C.3   107  MET107      0.0427
     86  CG       -15.2950  -26.5380  -37.1340 C.3   107  MET107      0.0599
     87  SD       -16.9610  -25.8720  -36.9960 S.3   107  MET107     -0.1393
     88  CE       -17.8210  -27.2890  -36.3210 C.3   107  MET107      0.0692
     89  N        -13.9980  -25.5810  -34.1170 N.am  108  LEU108     -0.1963
     90  CA       -13.5070  -26.3140  -32.9500 C.3   108  LEU108      0.1728
     91  C        -14.4470  -27.4840  -32.6500 C.2   108  LEU108      0.2617
     92  O        -15.4120  -27.7100  -33.3840 O.2   108  LEU108     -0.2715
     93  CB       -13.4200  -25.3710  -31.7440 C.3   108  LEU108      0.0311
     94  CG       -12.6310  -24.0700  -31.9330 C.3   108  LEU108      0.0022
     95  CD1      -12.8220  -23.1650  -30.7260 C.3   108  LEU108      0.0001
     96  CD2      -11.1530  -24.3440  -32.1680 C.3   108  LEU108      0.0001
     97  N        -14.1470  -28.2320  -31.5860 N.am  109  SER109     -0.1936
     98  CA       -15.0240  -29.2990  -31.0870 C.3   109  SER109      0.2055
     99  C        -16.0410  -28.7350  -30.0820 C.2   109  SER109      0.2643
    100  O        -16.1730  -27.5160  -29.9420 O.2   109  SER109     -0.2714
    101  CB       -14.1860  -30.4110  -30.4450 C.3   109  SER109      0.2130
    102  OG       -14.9590  -31.5830  -30.2400 O.3   109  SER109     -0.2179
    103  N        -16.7740  -29.6270  -29.4120 N.am  110  TYR110     -0.1959
    104  CA       -17.7970  -29.2430  -28.4190 C.3   110  TYR110      0.1771
    105  C        -17.2210  -28.5880  -27.1470 C.2   110  TYR110      0.2619
    106  O        -16.0280  -28.7140  -26.8570 O.2   110  TYR110     -0.2715
    107  CB       -18.7040  -30.4370  -28.0560 C.3   110  TYR110      0.0574
    108  CG       -17.9960  -31.6760  -27.5260 C.ar  110  TYR110     -0.0198
    109  CD1      -17.5950  -31.7600  -26.1920 C.ar  110  TYR110     -0.0009
    110  CD2      -17.7540  -32.7790  -28.3560 C.ar  110  TYR110     -0.0009
    111  CE1      -16.9560  -32.8920  -25.7030 C.ar  110  TYR110      0.0417
    112  CE2      -17.1130  -33.9150  -27.8750 C.ar  110  TYR110      0.0417
    113  CZ       -16.7170  -33.9670  -26.5470 C.ar  110  TYR110      0.1957
    114  OH       -16.0870  -35.0880  -26.0560 O.3   110  TYR110     -0.2866
    115  N        -18.0870  -27.8950  -26.4020 N.am  111  ASN111     -0.1972
    116  CA       -17.6750  -27.1180  -25.2150 C.3   111  ASN111      0.1688
    117  C        -17.5530  -27.9580  -23.9340 C.2   111  ASN111      0.2292
    118  O        -17.9730  -29.1160  -23.9040 O.2   111  ASN111     -0.2864
    119  CB       -18.5900  -25.8910  -25.0030 C.3   111  ASN111      0.1181
    120  CG       -20.0410  -26.2530  -24.7090 C.2   111  ASN111      0.2629
    121  OD1      -20.3440  -26.9490  -23.7410 O.2   111  ASN111     -0.2716
    122  ND2      -20.9520  -25.7380  -25.5320 N.am  111  ASN111     -0.0877
    123  N        -20.7300  -29.5660  -22.3390 N.3   114  ASP114     -0.1239
    124  CA       -21.0860  -30.7870  -23.0760 C.3   114  ASP114      0.1674
    125  C        -20.1730  -31.9640  -22.7010 C.2   114  ASP114      0.2266
    126  O        -20.6120  -33.1150  -22.7290 O.2   114  ASP114     -0.2867
    127  CB       -21.0460  -30.5550  -24.5980 C.3   114  ASP114      0.1410
    128  CG       -22.0710  -29.5210  -25.0780 C.2   114  ASP114      0.3668
    129  OD1      -23.2100  -29.4930  -24.5670 O.co2 114  ASP114     -0.2456
    130  OD2      -21.7350  -28.7370  -25.9920 O.co2 114  ASP114     -0.2456
    131  N        -19.2500  -23.4810  -21.0500 N.3   158  GLU158     -0.1231
    132  CA       -19.7650  -23.3530  -22.4310 C.3   158  GLU158      0.1699
    133  C        -18.9350  -22.4230  -23.3350 C.2   158  GLU158      0.2592
    134  O        -18.9040  -22.6240  -24.5520 O.2   158  GLU158     -0.2718
    135  CB       -21.2780  -23.0310  -22.5090 C.3   158  GLU158      0.0402
    136  CG       -21.8440  -22.0010  -21.5410 C.3   158  GLU158      0.1161
    137  CD       -22.5240  -22.6300  -20.3300 C.2   158  GLU158      0.3649
    138  OE1      -23.7550  -22.4570  -20.1740 O.co2 158  GLU158     -0.2457
    139  OE2      -21.8280  -23.3060  -19.5400 O.co2 158  GLU158     -0.2457
    140  N        -18.2520  -21.4390  -22.7420 N.am  159  ASN159     -0.1974
    141  CA       -17.3280  -20.5480  -23.4740 C.3   159  ASN159      0.1688
    142  C        -15.8670  -21.0360  -23.4790 C.2   159  ASN159      0.2292
    143  O        -14.9540  -20.2430  -23.7260 O.2   159  ASN159     -0.2864
    144  CB       -17.3890  -19.1170  -22.9040 C.3   159  ASN159      0.1181
    145  CG       -18.7290  -18.4380  -23.1380 C.2   159  ASN159      0.2629
    146  OD1      -19.5810  -18.9360  -23.8770 O.2   159  ASN159     -0.2716
    147  ND2      -18.9150  -17.2810  -22.5090 N.am  159  ASN159     -0.0877
    148  N        -13.8800  -24.1600  -25.4570 N.3   161  LEU161     -0.1245
    149  CA       -14.0740  -25.1890  -26.4850 C.3   161  LEU161      0.1561
    150  C        -12.8010  -25.9860  -26.7130 C.2   161  LEU161      0.2260
    151  O        -11.7200  -25.4120  -26.8320 O.2   161  LEU161     -0.2867
    152  CB       -14.5130  -24.5530  -27.8050 C.3   161  LEU161      0.0270
    153  CG       -16.0200  -24.4000  -27.9890 C.3   161  LEU161      0.0019
    154  CD1      -16.6260  -23.5270  -26.9040 C.3   161  LEU161      0.0001
    155  CD2      -16.3150  -23.8380  -29.3710 C.3   161  LEU161      0.0001
    156  N        -13.5350  -18.8270  -26.0480 N.3   173  VAL173     -0.1231
    157  CA       -14.3620  -18.2290  -27.1040 C.3   173  VAL173      0.1692
    158  C        -15.3220  -17.1980  -26.5200 C.2   173  VAL173      0.2592
    159  O        -15.4140  -17.0490  -25.2980 O.2   173  VAL173     -0.2718
    160  CB       -15.1690  -19.2940  -27.8950 C.3   173  VAL173      0.0266
    161  CG1      -14.2330  -20.2230  -28.6600 C.3   173  VAL173      0.0020
    162  CG2      -16.1060  -20.0860  -26.9850 C.3   173  VAL173      0.0020
    163  N        -16.0160  -16.4900  -27.4110 N.am  174  ASP174     -0.1974
    164  CA       -17.0760  -15.5440  -27.0570 C.3   174  ASP174      0.1709
    165  C        -16.5330  -14.3850  -26.2170 C.2   174  ASP174      0.2293
    166  O        -16.5610  -14.4270  -24.9840 O.2   174  ASP174     -0.2864
    167  CB       -18.2470  -16.2710  -26.3600 C.3   174  ASP174      0.1436
    168  CG       -19.4870  -15.3920  -26.1780 C.2   174  ASP174      0.3671
    169  OD1      -19.5380  -14.2490  -26.6940 O.co2 174  ASP174     -0.2456
    170  OD2      -20.4280  -15.8650  -25.5010 O.co2 174  ASP174     -0.2456
@<TRIPOS>BOND
     1    31    32    1
     2    33    32    1
     3    33    34    2
     4    64    63    2
     5    32    35    1
     6    39    38    2
     7    61    62    1
     8    85    86    1
     9    85    82    1
    10    36    37    1
    11    38    37    1
    12    86    87    1
    13    87    88    1
    14    63    62    1
    15    63    72   am
    16    81    82    1
    17    81    74   am
    18    73    72    1
    19    73    76    1
    20    73    74    1
    21    62    65    1
    22    37    40    1
    23    82    83    1
    24    26    27    2
    25    26    25    1
    26    76    77    1
    27    74    75    2
    28     7     5    1
    29     1     2    1
    30    25    24    1
    31    25    28    1
    32    84    83    2
    33    83    89   am
    34    40    41    1
    35    65    66    1
    36     6     8    1
    37     6     5    1
    38     5     2    1
    39    80    78   ar
    40    77    78    1
    41    68    66   ar
    42    68    70   ar
    43     2     3    1
    44    66    67   ar
    45    29    28    1
    46    78    79   ar
    47    28    30    1
    48    89    90    1
    49    70    71   ar
    50    41    42    1
    51    67    69   ar
    52    12    11    2
    53    92    91    2
    54    71    69   ar
    55     9     3   am
    56     9    10    1
    57    16    15    2
    58     3     4    2
    59    90    91    1
    60    90    93    1
    61    42    43    1
    62    91    97   am
    63    11    10    1
    64    15    14    1
    65    96    94    1
    66    21    19   ar
    67    21    23   ar
    68    19    18   ar
    69    94    93    1
    70    94    95    1
    71    60    58    1
    72    43    44    1
    73    97    98    1
    74    56    57    2
    75    56    55    1
    76    47    48    2
    77    47    46    1
    78    98   101    1
    79    98    99    1
    80    14    17    1
    81    14    13    1
    82    23    22   ar
    83    18    17    1
    84    18    20   ar
    85    49    46    1
    86    49    50    1
    87    58    55    1
    88    58    59    1
    89    55    54    1
    90   101   102    1
    91    52    51   ar
    92    45    46    1
    93    53    51   ar
    94    51    50    1
    95    99   100    2
    96    99   103   am
    97    22    20   ar
    98   103   104    1
    99   155   153    1
   100   161   160    1
   101   104   107    1
   102   104   105    1
   103   110   112   ar
   104   110   108   ar
   105   107   108    1
   106   153   152    1
   107   153   154    1
   108   160   157    1
   109   160   162    1
   110   112   113   ar
   111   152   149    1
   112   108   109   ar
   113   163   164    1
   114   163   158   am
   115   105   106    2
   116   105   115   am
   117   157   158    1
   118   157   156    1
   119   164   167    1
   120   164   165    1
   121   151   150    2
   122   150   149    1
   123   169   168   ar
   124   113   114    1
   125   113   111   ar
   126   158   159    2
   127   149   148    1
   128   115   116    1
   129   167   168    1
   130   165   166    2
   131   109   111   ar
   132   168   170   ar
   133   130   128   ar
   134   122   120   am
   135   116   119    1
   136   116   117    1
   137   128   127    1
   138   128   129   ar
   139   119   120    1
   140   120   121    2
   141   127   124    1
   142   134   133    2
   143   117   118    2
   144   146   145    2
   145   143   142    2
   146   142   141    1
   147   141   144    1
   148   141   140    1
   149   133   140   am
   150   133   132    1
   151   145   144    1
   152   145   147   am
   153   124   125    1
   154   124   123    1
   155   126   125    2
   156   135   132    1
   157   135   136    1
   158   132   131    1
   159   136   137    1
   160   137   138   ar
   161   137   139   ar
