@<TRIPOS>MOLECULE
tmp/6eiqC00.pdb
 177 167 0 0 0
SMALL
GASTEIGER

@<TRIPOS>ATOM
      1  N         47.8160   -0.3930  -22.7670 N.3    31  ILE31      -0.1245
      2  CA        48.2710   -1.1150  -23.9720 C.3    31  ILE31       0.1561
      3  C         47.4750   -0.7550  -25.2380 C.2    31  ILE31       0.2260
      4  O         47.7680   -1.2670  -26.3170 O.2    31  ILE31      -0.2867
      5  CB        48.2900   -2.6500  -23.7510 C.3    31  ILE31       0.0252
      6  CG1       46.8800   -3.2160  -23.4890 C.3    31  ILE31       0.0019
      7  CG2       49.2740   -2.9810  -22.6380 C.3    31  ILE31       0.0019
      8  CD1       46.8380   -4.6310  -22.9330 C.3    31  ILE31       0.0001
      9  N         35.8210    3.0920  -28.3290 N.3    36  PHE36      -0.1241
     10  CA        35.1370    2.3790  -27.2300 C.3    36  PHE36       0.1605
     11  C         35.6680    2.7170  -25.8360 C.2    36  PHE36       0.2264
     12  O         34.9250    2.6570  -24.8490 O.2    36  PHE36      -0.2867
     13  CB        35.1910    0.8540  -27.4360 C.3    36  PHE36       0.0534
     14  CG        36.5840    0.2680  -27.3890 C.ar   36  PHE36      -0.0203
     15  CD1       37.1780   -0.0750  -26.1700 C.ar   36  PHE36      -0.0042
     16  CD2       37.2960    0.0410  -28.5600 C.ar   36  PHE36      -0.0042
     17  CE1       38.4540   -0.6110  -26.1220 C.ar   36  PHE36      -0.0003
     18  CE2       38.5740   -0.5000  -28.5180 C.ar   36  PHE36      -0.0003
     19  CZ        39.1510   -0.8270  -27.2950 C.ar   36  PHE36      -0.0000
     20  N         42.2380   -0.1850  -23.2090 N.3    39  VAL39      -0.1245
     21  CA        42.6480   -1.5050  -22.7470 C.3    39  VAL39       0.1561
     22  C         43.8700   -1.3020  -21.8640 C.2    39  VAL39       0.2260
     23  O         44.7960   -0.5730  -22.2410 O.2    39  VAL39      -0.2867
     24  CB        43.0490   -2.4470  -23.8990 C.3    39  VAL39       0.0252
     25  CG1       43.1100   -3.8870  -23.4060 C.3    39  VAL39       0.0019
     26  CG2       42.0880   -2.3360  -25.0670 C.3    39  VAL39       0.0019
     27  N         46.8590   -3.4370  -19.3960 N.3    41  LYS41      -0.1245
     28  CA        47.4980   -4.6130  -18.8030 C.3    41  LYS41       0.1561
     29  C         47.2880   -4.5140  -17.3020 C.2    41  LYS41       0.2260
     30  O         47.4330   -3.4330  -16.7380 O.2    41  LYS41      -0.2867
     31  CB        48.9990   -4.6270  -19.1330 C.3    41  LYS41       0.0271
     32  CG        49.8260   -5.6820  -18.4010 C.3    41  LYS41       0.0035
     33  CD        51.2270   -5.7910  -18.9930 C.3    41  LYS41       0.0206
     34  CE        52.0170   -6.9170  -18.3360 C.3    41  LYS41       0.1093
     35  NZ        53.2660   -7.2610  -19.0730 N.3    41  LYS41      -0.1314
     36  N         43.9380   -8.8340  -19.5440 N.3    52  ALA52      -0.1245
     37  CA        43.7000   -7.5840  -20.2600 C.3    52  ALA52       0.1562
     38  C         42.2870   -7.1010  -19.9210 C.2    52  ALA52       0.2260
     39  O         41.3360   -7.8650  -20.0270 O.2    52  ALA52      -0.2867
     40  CB        43.8560   -7.7950  -21.7540 C.3    52  ALA52       0.0290
     41  N         39.3990   -4.3510  -20.6960 N.3    54  LYS54      -0.1245
     42  CA        38.8050   -3.3580  -21.5950 C.3    54  LYS54       0.1561
     43  C         37.8760   -2.4510  -20.7730 C.2    54  LYS54       0.2260
     44  O         36.8310   -2.8900  -20.2960 O.2    54  LYS54      -0.2867
     45  CB        38.0340   -4.0950  -22.6850 C.3    54  LYS54       0.0271
     46  CG        37.6590   -3.2780  -23.9030 C.3    54  LYS54       0.0035
     47  CD        36.8130   -4.1310  -24.8420 C.3    54  LYS54       0.0206
     48  CE        36.7290   -3.5480  -26.2400 C.3    54  LYS54       0.1093
     49  NZ        36.4000   -4.6100  -27.2260 N.3    54  LYS54      -0.1314
     50  N         39.6250  -15.1080  -28.5020 N.3    88  VAL88      -0.1245
     51  CA        39.9740  -14.6010  -27.1650 C.3    88  VAL88       0.1561
     52  C         38.8670  -14.9290  -26.1670 C.2    88  VAL88       0.2260
     53  O         37.6890  -14.8600  -26.5040 O.2    88  VAL88      -0.2867
     54  CB        40.2260  -13.0690  -27.1850 C.3    88  VAL88       0.0252
     55  CG1       38.9240  -12.2970  -27.4320 C.3    88  VAL88       0.0019
     56  CG2       40.9070  -12.6120  -25.9020 C.3    88  VAL88       0.0019
     57  N         39.7030  -10.1100  -20.1530 N.3   104  PHE104     -0.1227
     58  CA        40.0870  -11.1370  -21.1350 C.3   104  PHE104      0.1736
     59  C         41.3820  -11.8630  -20.7410 C.2   104  PHE104      0.2595
     60  O         42.1810  -11.3580  -19.9430 O.2   104  PHE104     -0.2718
     61  CB        40.2710  -10.5200  -22.5280 C.3   104  PHE104      0.0547
     62  CG        39.0040   -9.9620  -23.1410 C.ar  104  PHE104     -0.0202
     63  CD1       38.1310  -10.7820  -23.8560 C.ar  104  PHE104     -0.0042
     64  CD2       38.7070   -8.6080  -23.0410 C.ar  104  PHE104     -0.0042
     65  CE1       36.9770  -10.2690  -24.4400 C.ar  104  PHE104     -0.0003
     66  CE2       37.5530   -8.0840  -23.6130 C.ar  104  PHE104     -0.0003
     67  CZ        36.6870   -8.9170  -24.3180 C.ar  104  PHE104     -0.0000
     68  N         41.5950  -13.0460  -21.3100 N.am  105  GLU105     -0.1965
     69  CA        42.8950  -13.7090  -21.1840 C.3   105  GLU105      0.1733
     70  C         43.9540  -12.8410  -21.8750 C.2   105  GLU105      0.2616
     71  O         43.7320  -12.3180  -22.9790 O.2   105  GLU105     -0.2715
     72  CB        42.8700  -15.1400  -21.7400 C.3   105  GLU105      0.0429
     73  CG        42.8630  -15.2620  -23.2580 C.3   105  GLU105      0.1163
     74  CD        42.3880  -16.6200  -23.7470 C.2   105  GLU105      0.3649
     75  OE1       42.8030  -17.6460  -23.1710 O.co2 105  GLU105     -0.2457
     76  OE2       41.5960  -16.6610  -24.7140 O.co2 105  GLU105     -0.2457
     77  N         45.0790  -12.6610  -21.1960 N.am  106  MET106     -0.1963
     78  CA        46.1760  -11.8380  -21.6960 C.3   106  MET106      0.1736
     79  C         46.9530  -12.6060  -22.7580 C.2   106  MET106      0.2616
     80  O         47.3160  -13.7570  -22.5330 O.2   106  MET106     -0.2715
     81  CB        47.1030  -11.4850  -20.5400 C.3   106  MET106      0.0427
     82  CG        48.2530  -10.5610  -20.8900 C.3   106  MET106      0.0599
     83  SD        47.8920   -8.8230  -20.6250 S.3   106  MET106     -0.1393
     84  CE        49.5560   -8.1880  -20.7920 C.3   106  MET106      0.0692
     85  N         47.1850  -11.9610  -23.9040 N.am  107  LEU107     -0.1963
     86  CA        48.0270  -12.4880  -24.9850 C.3   107  LEU107      0.1728
     87  C         49.1370  -11.4800  -25.2650 C.2   107  LEU107      0.2617
     88  O         49.0640  -10.3390  -24.8080 O.2   107  LEU107     -0.2715
     89  CB        47.2030  -12.7420  -26.2570 C.3   107  LEU107      0.0311
     90  CG        46.3920  -14.0470  -26.2750 C.3   107  LEU107      0.0022
     91  CD1       45.0430  -13.8630  -25.6000 C.3   107  LEU107      0.0001
     92  CD2       46.1840  -14.5650  -27.6900 C.3   107  LEU107      0.0001
     93  N         50.1520  -11.8990  -26.0210 N.am  108  SER108     -0.1936
     94  CA        51.3800  -11.1040  -26.1740 C.3   108  SER108      0.2055
     95  C         51.1980   -9.8290  -26.9970 C.2   108  SER108      0.2643
     96  O         51.4590   -8.7440  -26.4970 O.2   108  SER108     -0.2714
     97  CB        52.5240  -11.9490  -26.7440 C.3   108  SER108      0.2130
     98  OG        52.8580  -12.9990  -25.8490 O.3   108  SER108     -0.2179
     99  N         50.7510   -9.9580  -28.2430 N.am  109  TYR109     -0.1959
    100  CA        50.6010   -8.7910  -29.1370 C.3   109  TYR109      0.1771
    101  C         49.7980   -9.0870  -30.4080 C.2   109  TYR109      0.2619
    102  O         49.5900  -10.2440  -30.7660 O.2   109  TYR109     -0.2715
    103  CB        51.9810   -8.2100  -29.5160 C.3   109  TYR109      0.0574
    104  CG        53.0350   -9.2410  -29.8940 C.ar  109  TYR109     -0.0198
    105  CD1       52.9020  -10.0170  -31.0480 C.ar  109  TYR109     -0.0009
    106  CD2       54.1880   -9.4220  -29.1080 C.ar  109  TYR109     -0.0009
    107  CE1       53.8660  -10.9500  -31.4040 C.ar  109  TYR109      0.0417
    108  CE2       55.1600  -10.3560  -29.4570 C.ar  109  TYR109      0.0417
    109  CZ        54.9910  -11.1180  -30.6050 C.ar  109  TYR109      0.1957
    110  OH        55.9300  -12.0490  -30.9740 O.3   109  TYR109     -0.2866
    111  N         49.3850   -8.0240  -31.0970 N.am  110  ASN110     -0.1972
    112  CA        48.6010   -8.1450  -32.3300 C.3   110  ASN110      0.1688
    113  C         49.4990   -8.3790  -33.5480 C.2   110  ASN110      0.2292
    114  O         50.6880   -8.0530  -33.5230 O.2   110  ASN110     -0.2864
    115  CB        47.6520   -6.9430  -32.5120 C.3   110  ASN110      0.1181
    116  CG        48.3530   -5.6690  -32.9930 C.2   110  ASN110      0.2629
    117  OD1       48.8510   -5.6060  -34.1170 O.2   110  ASN110     -0.2716
    118  ND2       48.3430   -4.6310  -32.1610 N.am  110  ASN110     -0.0877
    119  N         51.8690   -5.7890  -35.0300 N.3   113  ASP113     -0.1239
    120  CA        53.1520   -5.7390  -34.3210 C.3   113  ASP113      0.1674
    121  C         54.0810   -6.8190  -34.8520 C.2   113  ASP113      0.2266
    122  O         55.2570   -6.5550  -35.0810 O.2   113  ASP113     -0.2867
    123  CB        53.0030   -5.9120  -32.8060 C.3   113  ASP113      0.1410
    124  CG        52.1570   -4.8300  -32.1650 C.2   113  ASP113      0.3668
    125  OD1       51.8830   -3.7950  -32.8120 O.co2 113  ASP113     -0.2456
    126  OD2       51.7590   -5.0320  -31.0020 O.co2 113  ASP113     -0.2456
    127  N         55.3670   -5.5130  -38.0660 N.3   116  ARG116     -0.1245
    128  CA        56.3980   -4.4910  -37.8310 C.3   116  ARG116      0.1563
    129  C         57.6920   -5.1170  -37.3080 C.2   116  ARG116      0.2260
    130  O         58.7770   -4.7900  -37.7970 O.2   116  ARG116     -0.2867
    131  CB        55.9060   -3.4160  -36.8470 C.3   116  ARG116      0.0307
    132  CG        56.9500   -2.3450  -36.5130 C.3   116  ARG116      0.0489
    133  CD        56.4270   -1.2670  -35.5760 C.3   116  ARG116      0.2205
    134  NE        55.8130   -1.8210  -34.3680 N.pl3 116  ARG116     -0.0865
    135  CZ        56.4650   -2.2970  -33.3030 C.cat 116  ARG116      0.5346
    136  NH1       57.8020   -2.3170  -33.2420 N.pl3 116  ARG116      0.1354
    137  NH2       55.7630   -2.7690  -32.2740 N.pl3 116  ARG116      0.1354
    138  N         45.6670   -6.3190  -36.7630 N.3   157  GLU157     -0.1231
    139  CA        45.6420   -5.8680  -35.3630 C.3   157  GLU157      0.1699
    140  C         44.4680   -6.4130  -34.5200 C.2   157  GLU157      0.2592
    141  O         44.4760   -6.2580  -33.3000 O.2   157  GLU157     -0.2718
    142  CB        45.7720   -4.3380  -35.2390 C.3   157  GLU157      0.0402
    143  CG        44.5100   -3.5140  -35.4480 C.3   157  GLU157      0.1161
    144  CD        44.7000   -2.0570  -35.0470 C.2   157  GLU157      0.3649
    145  OE1       43.7990   -1.5030  -34.3760 O.co2 157  GLU157     -0.2457
    146  OE2       45.7540   -1.4660  -35.3910 O.co2 157  GLU157     -0.2457
    147  N         43.4860   -7.0520  -35.1650 N.am  158  ASN158     -0.1974
    148  CA        42.4550   -7.8360  -34.4620 C.3   158  ASN158      0.1688
    149  C         42.7150   -9.3520  -34.4490 C.2   158  ASN158      0.2292
    150  O         41.7980  -10.1430  -34.2120 O.2   158  ASN158     -0.2864
    151  CB        41.0590   -7.5200  -35.0360 C.3   158  ASN158      0.1181
    152  CG        40.5090   -6.1910  -34.5380 C.2   158  ASN158      0.2629
    153  OD1       40.8300   -5.7460  -33.4310 O.2   158  ASN158     -0.2716
    154  ND2       39.6650   -5.5580  -35.3460 N.am  158  ASN158     -0.0877
    155  N         45.5210  -11.8750  -32.4270 N.3   160  LEU160     -0.1245
    156  CA        46.5090  -11.8220  -31.3380 C.3   160  LEU160      0.1561
    157  C         47.4050  -13.0540  -31.2960 C.2   160  LEU160      0.2260
    158  O         46.9720  -14.1670  -31.6050 O.2   160  LEU160     -0.2867
    159  CB        45.8110  -11.6900  -29.9800 C.3   160  LEU160      0.0270
    160  CG        45.4530  -10.3010  -29.4410 C.3   160  LEU160      0.0019
    161  CD1       44.9830   -9.3570  -30.5360 C.3   160  LEU160      0.0001
    162  CD2       44.3960  -10.4330  -28.3490 C.3   160  LEU160      0.0001
    163  N         40.0890  -11.4840  -31.8060 N.3   172  VAL172     -0.1231
    164  CA        39.7830  -10.5410  -30.7310 C.3   172  VAL172      0.1692
    165  C         38.8690   -9.4010  -31.2150 C.2   172  VAL172      0.2592
    166  O         38.8090   -9.1020  -32.4080 O.2   172  VAL172     -0.2718
    167  CB        41.0980   -9.9670  -30.1280 C.3   172  VAL172      0.0266
    168  CG1       41.6120   -8.7580  -30.8970 C.3   172  VAL172      0.0020
    169  CG2       40.9410   -9.6010  -28.6670 C.3   172  VAL172      0.0020
    170  N         38.1690   -8.7870  -30.2610 N.am  173  ASP173     -0.1974
    171  CA        37.4440   -7.5280  -30.4380 C.3   173  ASP173      0.1709
    172  C         36.2300   -7.6960  -31.3530 C.2   173  ASP173      0.2293
    173  O         36.3010   -7.4320  -32.5620 O.2   173  ASP173     -0.2864
    174  CB        38.3740   -6.3910  -30.9190 C.3   173  ASP173      0.1436
    175  CG        37.6830   -5.0160  -30.9250 C.2   173  ASP173      0.3671
    176  OD1       36.4580   -4.9410  -30.6770 O.co2 173  ASP173     -0.2456
    177  OD2       38.3780   -4.0040  -31.1700 O.co2 173  ASP173     -0.2456
@<TRIPOS>BOND
     1   127   128    1
     2   128   129    1
     3   128   131    1
     4   130   129    2
     5   131   132    1
     6   138   139    1
     7   132   133    1
     8   133   134    1
     9   143   142    1
    10   143   144    1
    11   146   144   ar
    12   139   142    1
    13   139   140    1
    14   154   152   am
    15   147   140   am
    16   147   148    1
    17   122   121    2
    18   144   145   ar
    19   151   152    1
    20   151   148    1
    21   119   120    1
    22   121   120    1
    23   152   153    2
    24   140   141    2
    25   148   149    1
    26   149   150    2
    27   134   135    2
    28   120   123    1
    29   117   116    2
    30   113   114    2
    31   113   112    1
    32   135   136    1
    33   135   137    1
    34   116   115    1
    35   116   118   am
    36   125   124   ar
    37   123   124    1
    38   173   172    2
    39   115   112    1
    40   155   156    1
    41   166   165    2
    42   112   111    1
    43   124   126   ar
    44   163   164    1
    45   158   157    2
    46   107   105   ar
    47   107   109   ar
    48   172   171    1
    49   156   157    1
    50   156   159    1
    51   165   164    1
    52   165   170   am
    53   177   175   ar
    54   111   101   am
    55   105   104   ar
    56   110   109    1
    57   175   174    1
    58   175   176   ar
    59   174   171    1
    60   168   167    1
    61   102   101    2
    62   164   167    1
    63   109   108   ar
    64   161   160    1
    65   171   170    1
    66   101   100    1
    67   167   169    1
    68   159   160    1
    69   104   103    1
    70   104   106   ar
    71   103   100    1
    72   108   106   ar
    73   160   162    1
    74   100    99    1
    75    16    18   ar
    76    16    14   ar
    77    18    19   ar
    78    50    51    1
    79     9    10    1
    80    99    95   am
    81    92    90    1
    82    13    14    1
    83    13    10    1
    84    55    54    1
    85    14    15   ar
    86    19    17   ar
    87    10    11    1
    88    49    48    1
    89    54    51    1
    90    54    56    1
    91    51    52    1
    92    95    96    2
    93    95    94    1
    94    97    94    1
    95    97    98    1
    96    53    52    2
    97     4     3    2
    98    90    89    1
    99    90    91    1
   100    89    86    1
   101    48    47    1
   102    94    93    1
   103    15    17   ar
   104    93    87   am
   105    11    12    2
   106    87    86    1
   107    87    88    2
   108     3     2    1
   109    26    24    1
   110    86    85    1
   111    47    46    1
   112    76    74   ar
   113    65    67   ar
   114    65    63   ar
   115    67    66   ar
   116     2     5    1
   117     2     1    1
   118    85    79   am
   119    46    45    1
   120    24    25    1
   121    24    21    1
   122    63    62   ar
   123     5     6    1
   124     5     7    1
   125    74    73    1
   126    74    75   ar
   127    66    64   ar
   128     6     8    1
   129    73    72    1
   130    20    21    1
   131    62    64   ar
   132    62    61    1
   133    71    70    2
   134    79    80    2
   135    79    78    1
   136    21    22    1
   137    45    42    1
   138    61    58    1
   139    23    22    2
   140    70    77   am
   141    70    69    1
   142    40    37    1
   143    72    69    1
   144    78    77    1
   145    78    81    1
   146    42    43    1
   147    42    41    1
   148    68    69    1
   149    68    59   am
   150    58    59    1
   151    58    57    1
   152    82    83    1
   153    82    81    1
   154    84    83    1
   155    43    44    2
   156    59    60    2
   157    37    38    1
   158    37    36    1
   159    39    38    2
   160    27    28    1
   161    31    28    1
   162    31    32    1
   163    35    34    1
   164    33    32    1
   165    33    34    1
   166    28    29    1
   167    29    30    2
