@<TRIPOS>MOLECULE
tmp/6eirD00.pdb
 194 184 0 0 0
SMALL
GASTEIGER

@<TRIPOS>ATOM
      1  N         46.5440   84.7510  250.7100 N.3    32  ILE32      -0.1231
      2  CA        47.1060   85.4540  251.8820 C.3    32  ILE32       0.1692
      3  C         46.4060   85.1260  253.2100 C.2    32  ILE32       0.2593
      4  O         47.0540   85.1200  254.2580 O.2    32  ILE32      -0.2718
      5  CB        47.1620   86.9930  251.6730 C.3    32  ILE32       0.0266
      6  CG1       45.7920   87.5720  251.2840 C.3    32  ILE32       0.0019
      7  CG2       48.1980   87.3370  250.6090 C.3    32  ILE32       0.0020
      8  CD1       45.7120   89.0820  251.3720 C.3    32  ILE32       0.0001
      9  N         45.1000   84.8630  253.1640 N.am   33  GLY33      -0.1942
     10  CA        44.3350   84.4530  254.3440 C.3    33  GLY33       0.2014
     11  C         43.1280   83.6040  253.9840 C.2    33  GLY33       0.2639
     12  O         42.6840   83.5990  252.8330 O.2    33  GLY33      -0.2714
     13  N         42.6010   82.8880  254.9760 N.am   34  LYS34      -0.1963
     14  CA        41.4540   81.9980  254.7790 C.3    34  LYS34       0.1728
     15  C         40.6840   81.7920  256.0860 C.2    34  LYS34       0.2616
     16  O         41.2680   81.8190  257.1730 O.2    34  LYS34      -0.2715
     17  CB        41.9280   80.6530  254.2120 C.3    34  LYS34       0.0311
     18  CG        40.8170   79.7260  253.7270 C.3    34  LYS34       0.0038
     19  CD        40.5430   78.5840  254.6990 C.3    34  LYS34       0.0206
     20  CE        39.2400   77.8590  254.3860 C.3    34  LYS34       0.1093
     21  NZ        39.1030   77.4700  252.9530 N.3    34  LYS34      -0.1314
     22  N         39.3700   81.6060  255.9670 N.am   35  GLY35      -0.1955
     23  CA        38.5070   81.3430  257.1200 C.3    35  GLY35       0.1869
     24  C         37.1920   80.6910  256.7350 C.2    35  GLY35       0.2309
     25  O         36.9850   80.3210  255.5790 O.2    35  GLY35      -0.2863
     26  N         34.2260   82.0530  256.5400 N.3    37  PHE37      -0.1241
     27  CA        33.5550   82.9240  255.5570 C.3    37  PHE37       0.1605
     28  C         33.9320   82.6060  254.1020 C.2    37  PHE37       0.2264
     29  O         33.0820   82.6650  253.2090 O.2    37  PHE37      -0.2867
     30  CB        33.8150   84.4160  255.8580 C.3    37  PHE37       0.0534
     31  CG        35.2580   84.8440  255.7020 C.ar   37  PHE37      -0.0203
     32  CD1       35.7600   85.2320  254.4590 C.ar   37  PHE37      -0.0042
     33  CD2       36.1120   84.8830  256.8020 C.ar   37  PHE37      -0.0042
     34  CE1       37.0840   85.6240  254.3160 C.ar   37  PHE37      -0.0003
     35  CE2       37.4340   85.2770  256.6640 C.ar   37  PHE37      -0.0003
     36  CZ        37.9220   85.6500  255.4200 C.ar   37  PHE37      -0.0000
     37  N         40.5960   84.9760  251.0910 N.3    40  VAL40      -0.1245
     38  CA        41.0500   86.3230  250.7440 C.3    40  VAL40       0.1561
     39  C         42.3990   86.2340  250.0210 C.2    40  VAL40       0.2260
     40  O         43.3550   85.6680  250.5520 O.2    40  VAL40      -0.2867
     41  CB        41.1260   87.2710  251.9740 C.3    40  VAL40       0.0252
     42  CG1       39.7300   87.7340  252.3750 C.3    40  VAL40       0.0019
     43  CG2       41.8350   86.6280  253.1630 C.3    40  VAL40       0.0019
     44  N         45.5450   88.0560  247.3400 N.3    42  LYS42      -0.1245
     45  CA        46.1940   89.2550  246.8190 C.3    42  LYS42       0.1561
     46  C         46.0870   89.2100  245.2930 C.2    42  LYS42       0.2260
     47  O         46.4390   88.2040  244.6720 O.2    42  LYS42      -0.2867
     48  CB        47.6440   89.3920  247.3260 C.3    42  LYS42       0.0271
     49  CG        48.7550   88.8010  246.4650 C.3    42  LYS42       0.0035
     50  CD        50.1250   89.0010  247.1050 C.3    42  LYS42       0.0206
     51  CE        50.5870   90.4520  247.0390 C.3    42  LYS42       0.1093
     52  NZ        51.9940   90.6170  247.4920 N.3    42  LYS42      -0.1314
     53  N         43.1210   93.4830  247.6000 N.3    53  ALA53      -0.1245
     54  CA        42.7020   92.3390  248.4240 C.3    53  ALA53       0.1562
     55  C         41.2830   91.9150  248.0580 C.2    53  ALA53       0.2260
     56  O         40.3340   92.6400  248.3470 O.2    53  ALA53      -0.2867
     57  CB        42.7690   92.6970  249.9040 C.3    53  ALA53       0.0290
     58  N         38.2320   89.5100  248.7490 N.3    55  LYS55      -0.1245
     59  CA        37.5650   88.5570  249.6320 C.3    55  LYS55       0.1561
     60  C         36.5670   87.7480  248.8110 C.2    55  LYS55       0.2260
     61  O         35.5460   88.2800  248.3860 O.2    55  LYS55      -0.2867
     62  CB        36.8520   89.2820  250.7840 C.3    55  LYS55       0.0271
     63  CG        36.1530   88.3540  251.7720 C.3    55  LYS55       0.0035
     64  CD        35.4900   89.1120  252.9140 C.3    55  LYS55       0.0206
     65  CE        36.4810   89.5120  253.9940 C.3    55  LYS55       0.1093
     66  NZ        35.7990   90.1510  255.1580 N.3    55  LYS55      -0.1314
     67  N         39.7270  100.2110  256.5410 N.3    89  VAL89      -0.1245
     68  CA        40.1590   99.7190  255.2330 C.3    89  VAL89       0.1561
     69  C         39.0040   99.8730  254.2410 C.2    89  VAL89       0.2260
     70  O         37.8970   99.3790  254.4690 O.2    89  VAL89      -0.2867
     71  CB        40.6660   98.2600  255.3030 C.3    89  VAL89       0.0252
     72  CG1       40.9650   97.7090  253.9100 C.3    89  VAL89       0.0019
     73  CG2       41.9160   98.1820  256.1750 C.3    89  VAL89       0.0019
     74  N         39.2060   95.2330  248.3900 N.3   105  PHE105     -0.1227
     75  CA        39.6770   96.2230  249.3530 C.3   105  PHE105      0.1736
     76  C         41.0430   96.7300  248.9260 C.2   105  PHE105      0.2595
     77  O         41.7480   96.0610  248.1700 O.2   105  PHE105     -0.2718
     78  CB        39.8060   95.5990  250.7460 C.3   105  PHE105      0.0547
     79  CG        38.5130   95.0790  251.3110 C.ar  105  PHE105     -0.0202
     80  CD1       38.0760   93.7900  251.0140 C.ar  105  PHE105     -0.0042
     81  CD2       37.7390   95.8680  252.1560 C.ar  105  PHE105     -0.0042
     82  CE1       36.8860   93.3030  251.5420 C.ar  105  PHE105     -0.0003
     83  CE2       36.5470   95.3870  252.6840 C.ar  105  PHE105     -0.0003
     84  CZ        36.1200   94.1020  252.3770 C.ar  105  PHE105     -0.0000
     85  N         41.4120   97.9120  249.4160 N.am  106  GLU106     -0.1965
     86  CA        42.7710   98.4370  249.2360 C.3   106  GLU106      0.1733
     87  C         43.7910   97.5260  249.9250 C.2   106  GLU106      0.2616
     88  O         43.5410   97.0380  251.0260 O.2   106  GLU106     -0.2715
     89  CB        42.8920   99.8820  249.7500 C.3   106  GLU106      0.0429
     90  CG        42.6410  100.0810  251.2420 C.3   106  GLU106      0.1163
     91  CD        42.7550  101.5300  251.6690 C.2   106  GLU106      0.3649
     92  OE1       41.8040  102.0370  252.3020 O.co2 106  GLU106     -0.2457
     93  OE2       43.7910  102.1650  251.3800 O.co2 106  GLU106     -0.2457
     94  N         44.9210   97.2880  249.2610 N.am  107  MET107     -0.1963
     95  CA        45.9490   96.3720  249.7690 C.3   107  MET107      0.1736
     96  C         46.7780   97.0520  250.8520 C.2   107  MET107      0.2616
     97  O         47.4010   98.0860  250.6030 O.2   107  MET107     -0.2715
     98  CB        46.8650   95.8970  248.6270 C.3   107  MET107      0.0427
     99  CG        48.0720   95.0470  249.0340 C.3   107  MET107      0.0599
    100  SD        47.8640   93.2690  248.8250 S.3   107  MET107     -0.1393
    101  CE        46.4290   92.9570  249.8370 C.3   107  MET107      0.0692
    102  N         46.7800   96.4530  252.0430 N.am  108  LEU108     -0.1963
    103  CA        47.6690   96.8530  253.1360 C.3   108  LEU108      0.1728
    104  C         48.7120   95.7660  253.3860 C.2   108  LEU108      0.2617
    105  O         48.5710   94.6310  252.9260 O.2   108  LEU108     -0.2715
    106  CB        46.8730   97.1380  254.4180 C.3   108  LEU108      0.0311
    107  CG        46.2200   98.5260  254.4820 C.3   108  LEU108      0.0022
    108  CD1       44.9470   98.5700  253.6510 C.3   108  LEU108      0.0001
    109  CD2       45.9220   98.9540  255.9120 C.3   108  LEU108      0.0001
    110  N         49.7580   96.1360  254.1190 N.am  109  SER109     -0.1936
    111  CA        50.8450   95.2230  254.4730 C.3   109  SER109      0.2055
    112  C         50.4610   94.3320  255.6660 C.2   109  SER109      0.2643
    113  O         49.3090   94.3320  256.1120 O.2   109  SER109     -0.2714
    114  CB        52.1090   96.0330  254.7920 C.3   109  SER109      0.2130
    115  OG        53.2440   95.1930  254.9080 O.3   109  SER109     -0.2179
    116  N         51.4330   93.5600  256.1510 N.am  110  TYR110     -0.1959
    117  CA        51.2840   92.6750  257.3230 C.3   110  TYR110      0.1771
    118  C         50.5520   93.2840  258.5360 C.2   110  TYR110      0.2619
    119  O         50.6830   94.4770  258.8130 O.2   110  TYR110     -0.2715
    120  CB        52.6640   92.1480  257.7590 C.3   110  TYR110      0.0574
    121  CG        53.6670   93.2200  258.1580 C.ar  110  TYR110     -0.0198
    122  CD1       53.6880   93.7410  259.4530 C.ar  110  TYR110     -0.0009
    123  CD2       54.6110   93.6980  257.2450 C.ar  110  TYR110     -0.0009
    124  CE1       54.6060   94.7180  259.8210 C.ar  110  TYR110      0.0417
    125  CE2       55.5300   94.6760  257.6040 C.ar  110  TYR110      0.0417
    126  CZ        55.5240   95.1830  258.8930 C.ar  110  TYR110      0.1957
    127  OH        56.4330   96.1500  259.2570 O.3   110  TYR110     -0.2866
    128  N         49.7970   92.4470  259.2510 N.am  111  ASN111     -0.1972
    129  CA        48.9940   92.8860  260.4120 C.3   111  ASN111      0.1688
    130  C         49.8350   93.1210  261.6780 C.2   111  ASN111      0.2292
    131  O         51.0220   92.7970  261.7090 O.2   111  ASN111     -0.2864
    132  CB        47.8400   91.8980  260.6900 C.3   111  ASN111      0.1181
    133  CG        48.3170   90.4960  261.0500 C.2   111  ASN111      0.2629
    134  OD1       49.2680   90.3180  261.8090 O.2   111  ASN111     -0.2716
    135  ND2       47.6440   89.4900  260.5020 N.am  111  ASN111     -0.0877
    136  N         51.7440   90.1610  263.1630 N.3   114  ASP114     -0.1239
    137  CA        53.0180   89.9320  262.4690 C.3   114  ASP114      0.1674
    138  C         54.0940   90.9000  262.9620 C.2   114  ASP114      0.2266
    139  O         55.2570   90.5150  263.0800 O.2   114  ASP114     -0.2867
    140  CB        52.8640   90.0680  260.9490 C.3   114  ASP114      0.1410
    141  CG        51.8750   89.0720  260.3600 C.2   114  ASP114      0.3668
    142  OD1       51.7930   87.9260  260.8550 O.co2 114  ASP114     -0.2456
    143  OD2       51.1750   89.4360  259.3910 O.co2 114  ASP114     -0.2456
    144  N         55.2750   89.4980  266.1230 N.3   117  ARG117     -0.1245
    145  CA        56.1660   88.3820  265.7770 C.3   117  ARG117      0.1563
    146  C         57.5190   88.8520  265.2230 C.2   117  ARG117      0.2260
    147  O         58.5380   88.2080  265.4760 O.2   117  ARG117     -0.2867
    148  CB        55.4820   87.4320  264.7840 C.3   117  ARG117      0.0307
    149  CG        56.2900   86.1800  264.4520 C.3   117  ARG117      0.0489
    150  CD        55.4070   84.9500  264.3180 C.3   117  ARG117      0.2205
    151  NE        54.3750   85.1080  263.2920 N.pl3 117  ARG117     -0.0865
    152  CZ        53.3160   84.3090  263.1370 C.cat 117  ARG117      0.5346
    153  NH1       53.1070   83.2660  263.9430 N.pl3 117  ARG117      0.1354
    154  NH2       52.4440   84.5600  262.1610 N.pl3 117  ARG117      0.1354
    155  N         45.2010   90.8300  264.7290 N.3   158  GLU158     -0.1231
    156  CA        45.0530   90.2940  263.3670 C.3   158  GLU158      0.1699
    157  C         44.1100   91.1240  262.4820 C.2   158  GLU158      0.2592
    158  O         44.2300   91.0760  261.2570 O.2   158  GLU158     -0.2718
    159  CB        44.5660   88.8370  263.3880 C.3   158  GLU158      0.0402
    160  CG        45.4530   87.8660  264.1630 C.3   158  GLU158      0.1161
    161  CD        44.8840   87.4980  265.5230 C.2   158  GLU158      0.3649
    162  OE1       45.3920   88.0080  266.5440 O.co2 158  GLU158     -0.2457
    163  OE2       43.9150   86.7110  265.5670 O.co2 158  GLU158     -0.2457
    164  N         43.1790   91.8610  263.0970 N.am  159  ASN159     -0.1974
    165  CA        42.2430   92.7340  262.3700 C.3   159  ASN159      0.1688
    166  C         42.6500   94.2180  262.3650 C.2   159  ASN159      0.2292
    167  O         41.8120   95.0920  262.1230 O.2   159  ASN159     -0.2864
    168  CB        40.8190   92.5800  262.9370 C.3   159  ASN159      0.1181
    169  CG        40.1890   91.2410  262.6020 C.2   159  ASN159      0.2629
    170  OD1       40.5690   90.5740  261.6380 O.2   159  ASN159     -0.2716
    171  ND2       39.2010   90.8460  263.3990 N.am  159  ASN159     -0.0877
    172  N         45.6610   96.3620  260.4070 N.3   161  LEU161     -0.1245
    173  CA        46.6950   96.2260  259.3820 C.3   161  LEU161      0.1561
    174  C         47.5460   97.4850  259.2870 C.2   161  LEU161      0.2260
    175  O         47.0450   98.5920  259.4770 O.2   161  LEU161     -0.2867
    176  CB        46.0540   95.9420  258.0230 C.3   161  LEU161      0.0270
    177  CG        45.0040   94.8290  257.9650 C.3   161  LEU161      0.0019
    178  CD1       44.5280   94.6450  256.5330 C.3   161  LEU161      0.0001
    179  CD2       45.5400   93.5210  258.5270 C.3   161  LEU161      0.0001
    180  N         40.2240   96.3970  259.8520 N.3   173  VAL173     -0.1231
    181  CA        39.7520   95.4890  258.7970 C.3   173  VAL173      0.1692
    182  C         38.7700   94.4440  259.3470 C.2   173  VAL173      0.2592
    183  O         38.7220   94.2000  260.5560 O.2   173  VAL173     -0.2718
    184  CB        40.9500   94.8020  258.0840 C.3   173  VAL173      0.0266
    185  CG1       41.5020   93.6390  258.9030 C.3   173  VAL173      0.0020
    186  CG2       40.5780   94.3490  256.6740 C.3   173  VAL173      0.0020
    187  N         37.9870   93.8590  258.4400 N.am  174  ASP174     -0.1974
    188  CA        37.0640   92.7530  258.7260 C.3   174  ASP174      0.1709
    189  C         35.8950   93.2010  259.6100 C.2   174  ASP174      0.2293
    190  O         35.9600   93.1340  260.8420 O.2   174  ASP174     -0.2864
    191  CB        37.8000   91.5330  259.3200 C.3   174  ASP174      0.1436
    192  CG        36.9490   90.2540  259.3170 C.2   174  ASP174      0.3671
    193  OD1       35.7590   90.2820  258.9310 O.co2 174  ASP174     -0.2456
    194  OD2       37.4870   89.1990  259.7120 O.co2 174  ASP174     -0.2456
@<TRIPOS>BOND
     1    47    46    2
     2    46    45    1
     3    49    50    1
     4    49    48    1
     5    45    48    1
     6    45    44    1
     7    51    50    1
     8    51    52    1
     9    53    54    1
    10    55    56    2
    11    55    54    1
    12    77    76    2
    13    61    60    2
    14    74    75    1
    15    54    57    1
    16    98    99    1
    17    98    95    1
    18    58    59    1
    19    60    59    1
    20   100    99    1
    21   100   101    1
    22    76    75    1
    23    76    85   am
    24    86    85    1
    25    86    89    1
    26    86    87    1
    27    94    95    1
    28    94    87   am
    29    75    78    1
    30    59    62    1
    31    89    90    1
    32    95    96    1
    33    87    88    2
    34    39    40    2
    35    39    38    1
    36    97    96    2
    37     7     5    1
    38     1     2    1
    39    38    37    1
    40    38    41    1
    41    78    79    1
    42    62    63    1
    43    96   102   am
    44    80    79   ar
    45    80    82   ar
    46    90    91    1
    47     6     8    1
    48     6     5    1
    49    79    81   ar
    50    93    91   ar
    51    82    84   ar
    52    91    92   ar
    53     5     2    1
    54    63    64    1
    55     2     3    1
    56    41    42    1
    57    41    43    1
    58   102   103    1
    59    81    83   ar
    60    84    83   ar
    61    12    11    2
    62    64    65    1
    63   105   104    2
    64    21    20    1
    65   103   104    1
    66   103   106    1
    67     9     3   am
    68     9    10    1
    69    29    28    2
    70     3     4    2
    71   104   110   am
    72   108   107    1
    73    18    17    1
    74    18    19    1
    75    72    71    1
    76    11    10    1
    77    11    13   am
    78    65    66    1
    79    28    27    1
    80   110   111    1
    81    17    14    1
    82    69    70    2
    83    69    68    1
    84    34    32   ar
    85    34    36   ar
    86    20    19    1
    87   106   107    1
    88    32    31   ar
    89   111   114    1
    90   111   112    1
    91   107   109    1
    92    14    13    1
    93    14    15    1
    94   114   115    1
    95    68    71    1
    96    68    67    1
    97    71    73    1
    98    36    35   ar
    99    27    30    1
   100    27    26    1
   101    25    24    2
   102   112   113    2
   103   112   116   am
   104    31    30    1
   105    31    33   ar
   106    22    15   am
   107    22    23    1
   108    15    16    2
   109   116   117    1
   110   178   177    1
   111    35    33   ar
   112   186   184    1
   113    24    23    1
   114   123   125   ar
   115   123   121   ar
   116   117   120    1
   117   117   118    1
   118   125   126   ar
   119   120   121    1
   120   177   176    1
   121   177   179    1
   122   176   173    1
   123   184   181    1
   124   184   185    1
   125   121   122   ar
   126   187   188    1
   127   187   182   am
   128   118   119    2
   129   118   128   am
   130   188   191    1
   131   188   189    1
   132   181   182    1
   133   181   180    1
   134   126   127    1
   135   126   124   ar
   136   193   192   ar
   137   128   129    1
   138   174   173    1
   139   174   175    2
   140   192   191    1
   141   192   194   ar
   142   182   183    2
   143   173   172    1
   144   143   141   ar
   145   122   124   ar
   146   189   190    2
   147   141   142   ar
   148   141   140    1
   149   129   132    1
   150   129   130    1
   151   135   133   am
   152   132   133    1
   153   140   137    1
   154   133   134    2
   155   158   157    2
   156   170   169    2
   157   130   131    2
   158   167   166    2
   159   154   152    1
   160   166   165    1
   161   165   168    1
   162   165   164    1
   163   137   138    1
   164   137   136    1
   165   157   164   am
   166   157   156    1
   167   169   168    1
   168   169   171   am
   169   138   139    2
   170   152   151    2
   171   152   153    1
   172   151   150    1
   173   156   159    1
   174   156   155    1
   175   159   160    1
   176   160   161    1
   177   150   149    1
   178   149   148    1
   179   148   145    1
   180   146   147    2
   181   146   145    1
   182   161   163   ar
   183   161   162   ar
   184   145   144    1
