@<TRIPOS>MOLECULE
tmp/6eisD00.pdb
 180 169 0 0 0
SMALL
GASTEIGER

@<TRIPOS>ATOM
      1  N         24.9130   24.3290  -35.6220 N.3    32  ILE32      -0.1231
      2  CA        24.1710   24.7760  -34.4470 C.3    32  ILE32       0.1692
      3  C         24.9100   24.3980  -33.1690 C.2    32  ILE32       0.2593
      4  O         25.1300   25.2350  -32.2930 O.2    32  ILE32      -0.2718
      5  CB        22.7530   24.1760  -34.4040 C.3    32  ILE32       0.0266
      6  CG1       21.9370   24.6450  -35.6100 C.3    32  ILE32       0.0019
      7  CG2       22.0500   24.5610  -33.1120 C.3    32  ILE32       0.0020
      8  CD1       20.5190   24.1190  -35.6240 C.3    32  ILE32       0.0001
      9  N         25.2920   23.1300  -33.0740 N.am   33  GLY33      -0.1942
     10  CA        26.0050   22.6290  -31.9150 C.3    33  GLY33       0.2014
     11  C         26.5940   21.2580  -32.1780 C.2    33  GLY33       0.2638
     12  O         26.4200   20.6960  -33.2600 O.2    33  GLY33      -0.2714
     13  N         27.2880   20.7160  -31.1840 N.am   34  LYS34      -0.1977
     14  CA        27.9220   19.4120  -31.3200 C.3    34  LYS34       0.1596
     15  C         27.7990   18.6140  -30.0240 C.2    34  LYS34       0.2287
     16  O         27.6220   19.1840  -28.9480 O.2    34  LYS34      -0.2864
     17  CB        29.3930   19.5790  -31.7160 C.3    34  LYS34       0.0298
     18  CG        30.0720   18.3090  -32.2110 C.3    34  LYS34       0.0038
     19  CD        31.4500   18.5920  -32.7970 C.3    34  LYS34       0.0206
     20  CE        31.5380   19.9880  -33.3980 C.3    34  LYS34       0.1093
     21  NZ        32.5930   20.0690  -34.4450 N.3    34  LYS34      -0.1314
     22  N         27.0750   12.3600  -29.8790 N.3    37  PHE37      -0.1241
     23  CA        26.3140   11.7540  -30.9660 C.3    37  PHE37       0.1605
     24  C         26.8110   12.1820  -32.3440 C.2    37  PHE37       0.2264
     25  O         26.7220   11.4240  -33.3100 O.2    37  PHE37      -0.2867
     26  CB        24.8330   12.1140  -30.8260 C.3    37  PHE37       0.0534
     27  CG        24.5740   13.5950  -30.7600 C.ar   37  PHE37      -0.0203
     28  CD1       24.4230   14.3420  -31.9190 C.ar   37  PHE37      -0.0042
     29  CD2       24.4880   14.2420  -29.5390 C.ar   37  PHE37      -0.0042
     30  CE1       24.1900   15.7020  -31.8600 C.ar   37  PHE37      -0.0003
     31  CE2       24.2540   15.6030  -29.4740 C.ar   37  PHE37      -0.0003
     32  CZ        24.1050   16.3340  -30.6360 C.ar   37  PHE37      -0.0000
     33  N         24.6950   18.9230  -35.0900 N.3    40  VAL40      -0.1245
     34  CA        23.4080   19.4470  -35.5300 C.3    40  VAL40       0.1561
     35  C         23.6390   20.7020  -36.3620 C.2    40  VAL40       0.2260
     36  O         24.2930   21.6430  -35.9100 O.2    40  VAL40      -0.2867
     37  CB        22.4780   19.7840  -34.3480 C.3    40  VAL40       0.0252
     38  CG1       21.1450   20.3150  -34.8590 C.3    40  VAL40       0.0019
     39  CG2       22.2650   18.5650  -33.4650 C.3    40  VAL40       0.0019
     40  N         16.4470   21.6610  -38.7430 N.3    53  ALA53      -0.1245
     41  CA        17.6580   21.2930  -38.0270 C.3    53  ALA53       0.1562
     42  C         17.9750   19.8370  -38.3300 C.2    53  ALA53       0.2260
     43  O         17.1340   18.9590  -38.1310 O.2    53  ALA53      -0.2867
     44  CB        17.4960   21.5150  -36.5320 C.3    53  ALA53       0.0290
     45  N         20.2070   16.6260  -37.4850 N.3    55  LYS55      -0.1245
     46  CA        21.1000   15.9590  -36.5470 C.3    55  LYS55       0.1561
     47  C         21.9080   14.8830  -37.2620 C.2    55  LYS55       0.2260
     48  O         21.3920   13.8090  -37.5720 O.2    55  LYS55      -0.2867
     49  CB        20.3030   15.3520  -35.3910 C.3    55  LYS55       0.0271
     50  CG        21.1540   14.7130  -34.3060 C.3    55  LYS55       0.0035
     51  CD        20.2790   14.1450  -33.2010 C.3    55  LYS55       0.0206
     52  CE        21.1100   13.5300  -32.0880 C.3    55  LYS55       0.1093
     53  NZ        20.2700   13.0710  -30.9470 N.3    55  LYS55      -0.1314
     54  N         16.3540    6.7340  -30.5030 N.3    70  GLU70      -0.1245
     55  CA        15.6780    8.0260  -30.4670 C.3    70  GLU70       0.1567
     56  C         14.6360    8.1210  -31.5740 C.2    70  GLU70       0.2260
     57  O         13.5350    8.6250  -31.3580 O.2    70  GLU70      -0.2867
     58  CB        16.6870    9.1700  -30.5960 C.3    70  GLU70       0.0388
     59  CG        16.0560   10.5540  -30.5390 C.3    70  GLU70       0.1160
     60  CD        17.0740   11.6710  -30.6750 C.2    70  GLU70       0.3649
     61  OE1       18.2180   11.3890  -31.0890 O.co2  70  GLU70      -0.2457
     62  OE2       16.7270   12.8310  -30.3690 O.co2  70  GLU70      -0.2457
     63  N          9.6870   18.5250  -29.8400 N.3    89  VAL89      -0.1245
     64  CA        10.2690   18.8460  -31.1400 C.3    89  VAL89       0.1561
     65  C         10.0550   17.7110  -32.1320 C.2    89  VAL89       0.2260
     66  O         10.5140   16.5890  -31.9180 O.2    89  VAL89      -0.2867
     67  CB        11.7770   19.1410  -31.0300 C.3    89  VAL89       0.0252
     68  CG1       12.3490   19.4880  -32.3940 C.3    89  VAL89       0.0019
     69  CG2       12.0230   20.2710  -30.0460 C.3    89  VAL89       0.0019
     70  N         14.6470   17.7260  -37.9870 N.3   105  PHE105     -0.1227
     71  CA        13.6860   18.2820  -37.0450 C.3   105  PHE105      0.1736
     72  C         13.1670   19.6280  -37.5270 C.2   105  PHE105      0.2595
     73  O         13.7580   20.2520  -38.4090 O.2   105  PHE105     -0.2718
     74  CB        14.3190   18.4460  -35.6590 C.3   105  PHE105      0.0547
     75  CG        14.7630   17.1570  -35.0350 C.ar  105  PHE105     -0.0202
     76  CD1       13.9100   16.4410  -34.2130 C.ar  105  PHE105     -0.0042
     77  CD2       16.0370   16.6650  -35.2630 C.ar  105  PHE105     -0.0042
     78  CE1       14.3170   15.2550  -33.6330 C.ar  105  PHE105     -0.0003
     79  CE2       16.4500   15.4800  -34.6860 C.ar  105  PHE105     -0.0003
     80  CZ        15.5890   14.7740  -33.8700 C.ar  105  PHE105     -0.0000
     81  N         12.0580   20.0700  -36.9440 N.am  106  GLU106     -0.1979
     82  CA        11.5950   21.4360  -37.1380 C.3   106  GLU106      0.1602
     83  C         12.6410   22.3890  -36.5710 C.2   106  GLU106      0.2287
     84  O         13.3700   22.0350  -35.6430 O.2   106  GLU106     -0.2864
     85  CB        10.2370   21.6520  -36.4690 C.3   106  GLU106      0.0415
     86  CG        10.1500   21.0950  -35.0580 C.3   106  GLU106      0.1163
     87  CD         8.8070   21.3640  -34.4070 C.2   106  GLU106      0.3649
     88  OE1        8.2100   22.4250  -34.6880 O.co2 106  GLU106     -0.2457
     89  OE2        8.3470   20.5130  -33.6160 O.co2 106  GLU106     -0.2457
     90  N         14.0510   25.2650  -34.4760 N.3   108  LEU108     -0.1231
     91  CA        14.0150   26.2220  -33.3800 C.3   108  LEU108      0.1693
     92  C         15.4570   26.6650  -33.1680 C.2   108  LEU108      0.2593
     93  O         16.3760   26.0150  -33.6630 O.2   108  LEU108     -0.2718
     94  CB        13.4160   25.6110  -32.1100 C.3   108  LEU108      0.0284
     95  CG        11.9410   25.1870  -32.1490 C.3   108  LEU108      0.0019
     96  CD1       11.7490   23.8460  -32.8510 C.3   108  LEU108      0.0001
     97  CD2       11.3510   25.1440  -30.7480 C.3   108  LEU108      0.0001
     98  N         15.6720   27.7600  -32.4480 N.am  109  SER109     -0.1938
     99  CA        17.0040   28.3580  -32.4330 C.3   109  SER109      0.2055
    100  C         17.7420   28.3170  -31.0930 C.2   109  SER109      0.2643
    101  O         18.8610   27.8080  -31.0270 O.2   109  SER109     -0.2714
    102  CB        16.9190   29.8050  -32.9210 C.3   109  SER109      0.2130
    103  OG        16.5430   29.8550  -34.2860 O.3   109  SER109     -0.2179
    104  N         17.1450   28.8540  -30.0340 N.am  110  TYR110     -0.1959
    105  CA        17.8640   28.9560  -28.7630 C.3   110  TYR110      0.1771
    106  C         17.1500   28.2850  -27.5930 C.2   110  TYR110      0.2619
    107  O         15.9220   28.2990  -27.5040 O.2   110  TYR110     -0.2715
    108  CB        18.1400   30.4270  -28.4300 C.3   110  TYR110      0.0574
    109  CG        18.8090   31.1830  -29.5580 C.ar  110  TYR110     -0.0198
    110  CD1       20.1940   31.2090  -29.6760 C.ar  110  TYR110     -0.0009
    111  CD2       18.0590   31.8760  -30.4980 C.ar  110  TYR110     -0.0009
    112  CE1       20.8120   31.8950  -30.7070 C.ar  110  TYR110      0.0417
    113  CE2       18.6690   32.5650  -31.5330 C.ar  110  TYR110      0.0417
    114  CZ        20.0450   32.5720  -31.6300 C.ar  110  TYR110      0.1957
    115  OH        20.6590   33.2570  -32.6540 O.3   110  TYR110     -0.2866
    116  N         17.9380   27.6980  -26.6960 N.am  111  ASN111     -0.1972
    117  CA        17.3970   26.9790  -25.5490 C.3   111  ASN111      0.1688
    118  C         17.2450   27.8680  -24.3170 C.2   111  ASN111      0.2292
    119  O         17.6160   29.0410  -24.3380 O.2   111  ASN111     -0.2864
    120  CB        18.2750   25.7660  -25.2200 C.3   111  ASN111      0.1181
    121  CG        19.7400   26.1270  -25.0470 C.2   111  ASN111      0.2629
    122  OD1       20.0810   27.0930  -24.3660 O.2   111  ASN111     -0.2716
    123  ND2       20.6170   25.3390  -25.6590 N.am  111  ASN111     -0.0877
    124  N         20.3170   29.5840  -22.9850 N.3   114  ASP114     -0.1239
    125  CA        20.6380   30.7820  -23.7500 C.3   114  ASP114      0.1674
    126  C         19.8290   31.9630  -23.2310 C.2   114  ASP114      0.2266
    127  O         20.3240   33.0880  -23.1620 O.2   114  ASP114     -0.2867
    128  CB        20.3620   30.5700  -25.2420 C.3   114  ASP114      0.1410
    129  CG        21.2780   29.5350  -25.8650 C.2   114  ASP114      0.3668
    130  OD1       22.4700   29.4950  -25.4960 O.co2 114  ASP114     -0.2456
    131  OD2       20.8060   28.7620  -26.7260 O.co2 114  ASP114     -0.2456
    132  N         16.7610   19.3910  -18.8350 N.3   156  LYS156     -0.1245
    133  CA        17.6100   20.5030  -18.4260 C.3   156  LYS156      0.1561
    134  C         17.3310   21.6720  -19.3680 C.2   156  LYS156      0.2260
    135  O         16.7990   21.4590  -20.4590 O.2   156  LYS156     -0.2867
    136  CB        19.0910   20.1030  -18.4480 C.3   156  LYS156      0.0271
    137  CG        19.6030   19.5900  -19.7800 C.3   156  LYS156      0.0035
    138  CD        21.0600   19.1700  -19.6580 C.3   156  LYS156      0.0206
    139  CE        21.5550   18.4830  -20.9170 C.3   156  LYS156      0.1093
    140  NZ        22.9490   17.9860  -20.7530 N.3   156  LYS156     -0.1314
    141  N         19.0870   23.1880  -21.2970 N.3   158  GLU158     -0.1231
    142  CA        19.8110   23.0100  -22.5460 C.3   158  GLU158      0.1699
    143  C         19.0370   22.1420  -23.5400 C.2   158  GLU158      0.2592
    144  O         19.2860   22.1960  -24.7450 O.2   158  GLU158     -0.2718
    145  CB        21.1820   22.4010  -22.2520 C.3   158  GLU158      0.0402
    146  CG        21.7270   22.8210  -20.8900 C.3   158  GLU158      0.1161
    147  CD        23.2420   22.8160  -20.8190 C.2   158  GLU158      0.3649
    148  OE1       23.8700   21.9430  -21.4530 O.co2 158  GLU158     -0.2457
    149  OE2       23.8040   23.6910  -20.1270 O.co2 158  GLU158     -0.2457
    150  N         18.0960   21.3490  -23.0330 N.am  159  ASN159     -0.1974
    151  CA        17.2750   20.4920  -23.8840 C.3   159  ASN159      0.1688
    152  C         15.8460   21.0010  -24.0420 C.2   159  ASN159      0.2292
    153  O         14.9740   20.2780  -24.5220 O.2   159  ASN159     -0.2864
    154  CB        17.2470   19.0640  -23.3390 C.3   159  ASN159      0.1181
    155  CG        18.5600   18.3380  -23.5430 C.2   159  ASN159      0.2629
    156  OD1       19.3270   18.6640  -24.4480 O.2   159  ASN159     -0.2716
    157  ND2       18.8240   17.3430  -22.7040 N.am  159  ASN159     -0.0877
    158  N         13.7500   23.9910  -25.8960 N.3   161  LEU161     -0.1245
    159  CA        13.9230   24.9850  -26.9500 C.3   161  LEU161      0.1561
    160  C         12.7600   25.9650  -27.0510 C.2   161  LEU161      0.2260
    161  O         11.6050   25.6030  -26.8310 O.2   161  LEU161     -0.2867
    162  CB        14.1180   24.2910  -28.2990 C.3   161  LEU161      0.0270
    163  CG        15.2800   23.3020  -28.3960 C.3   161  LEU161      0.0019
    164  CD1       15.4060   22.7720  -29.8150 C.3   161  LEU161      0.0001
    165  CD2       16.5790   23.9490  -27.9450 C.3   161  LEU161      0.0001
    166  N         13.5660   18.7260  -26.4940 N.3   173  VAL173     -0.1231
    167  CA        14.4150   18.1380  -27.5220 C.3   173  VAL173      0.1692
    168  C         15.3690   17.0930  -26.9320 C.2   173  VAL173      0.2592
    169  O         15.5360   17.0140  -25.7130 O.2   173  VAL173     -0.2718
    170  CB        15.2230   19.2320  -28.2550 C.3   173  VAL173      0.0266
    171  CG1       16.4870   19.5810  -27.4800 C.3   173  VAL173      0.0020
    172  CG2       15.5510   18.7980  -29.6740 C.3   173  VAL173      0.0020
    173  N         15.9620   16.2840  -27.8120 N.am  174  ASP174     -0.1974
    174  CA        16.9840   15.2930  -27.4630 C.3   174  ASP174      0.1709
    175  C         16.4260   14.1360  -26.6370 C.2   174  ASP174      0.2293
    176  O         16.4570   14.1640  -25.4060 O.2   174  ASP174     -0.2864
    177  CB        18.1490   15.9550  -26.7140 C.3   174  ASP174      0.1436
    178  CG        19.3510   15.0360  -26.5610 C.2   174  ASP174      0.3671
    179  OD1       19.2930   13.8760  -27.0240 O.co2 174  ASP174     -0.2456
    180  OD2       20.3600   15.4760  -25.9700 O.co2 174  ASP174     -0.2456
@<TRIPOS>BOND
     1    40    41    1
     2    73    72    2
     3    42    43    2
     4    42    41    1
     5    41    44    1
     6    70    71    1
     7    48    47    2
     8    72    71    1
     9    72    81   am
    10    45    46    1
    11    47    46    1
    12    82    81    1
    13    82    83    1
    14    82    85    1
    15    71    74    1
    16    83    84    2
    17    46    49    1
    18    85    86    1
    19    35    36    2
    20    35    34    1
    21    74    75    1
    22     8     6    1
    23     1     2    1
    24     6     5    1
    25    34    33    1
    26    34    37    1
    27    49    50    1
    28    77    75   ar
    29    77    79   ar
    30    86    87    1
    31    75    76   ar
    32    38    37    1
    33    88    87   ar
    34    79    80   ar
    35    90    91    1
    36     2     5    1
    37     2     3    1
    38    21    20    1
    39    87    89   ar
    40     5     7    1
    41    37    39    1
    42    50    51    1
    43   103   102    1
    44    76    78   ar
    45    80    78   ar
    46    93    92    2
    47    20    19    1
    48    91    92    1
    49    91    94    1
    50    25    24    2
    51    12    11    2
    52    51    52    1
    53     3     9   am
    54     3     4    2
    55    92    98   am
    56     9    10    1
    57   102    99    1
    58    96    95    1
    59    19    18    1
    60   115   114    1
    61    98    99    1
    62    99   100    1
    63    68    67    1
    64    24    23    1
    65    18    17    1
    66    11    10    1
    67    11    13   am
    68    95    94    1
    69    95    97    1
    70    65    66    2
    71    65    64    1
    72    52    53    1
    73    28    30   ar
    74    28    27   ar
    75    30    32   ar
    76    17    14    1
    77   114   113   ar
    78   114   112   ar
    79    56    57    2
    80    56    55    1
    81   113   111   ar
    82    14    13    1
    83    14    15    1
    84    64    67    1
    85    64    63    1
    86   100   101    2
    87   100   104   am
    88    61    60   ar
    89    67    69    1
    90    23    26    1
    91    23    22    1
    92    26    27    1
    93    27    29   ar
    94   112   110   ar
    95    60    59    1
    96    60    62   ar
    97    32    31   ar
    98    58    59    1
    99    58    55    1
   100    54    55    1
   101   111   109   ar
   102   104   105    1
   103    15    16    2
   104   164   163    1
   105   110   109   ar
   106   172   170    1
   107   109   108    1
   108    29    31   ar
   109   105   108    1
   110   105   106    1
   111   163   162    1
   112   163   165    1
   113   162   159    1
   114   170   167    1
   115   170   171    1
   116   173   174    1
   117   173   168   am
   118   106   107    2
   119   106   116   am
   120   167   168    1
   121   167   166    1
   122   174   177    1
   123   174   175    1
   124   160   159    1
   125   160   161    2
   126   179   178   ar
   127   159   158    1
   128   168   169    2
   129   131   129   ar
   130   177   178    1
   131   116   117    1
   132   175   176    2
   133   178   180   ar
   134   129   130   ar
   135   129   128    1
   136   123   121   am
   137   117   120    1
   138   117   118    1
   139   128   125    1
   140   120   121    1
   141   121   122    2
   142   144   143    2
   143   153   152    2
   144   156   155    2
   145   119   118    2
   146   152   151    1
   147   151   154    1
   148   151   150    1
   149   125   126    1
   150   125   124    1
   151   155   154    1
   152   155   157   am
   153   143   150   am
   154   143   142    1
   155   126   127    2
   156   142   145    1
   157   142   141    1
   158   145   146    1
   159   148   147   ar
   160   139   140    1
   161   139   138    1
   162   146   147    1
   163   147   149   ar
   164   135   134    2
   165   137   138    1
   166   137   136    1
   167   134   133    1
   168   132   133    1
   169   136   133    1
