@<TRIPOS>MOLECULE
tmp/6eiuA00.pdb
 193 187 0 0 0
SMALL
GASTEIGER

@<TRIPOS>ATOM
      1  N         91.6560   52.5320   14.0950 N.3    62  ARG62      -0.1245
      2  CA        91.4990   52.6050   12.6480 C.3    62  ARG62       0.1563
      3  C         92.8330   52.9730   12.0110 C.2    62  ARG62       0.2260
      4  O         93.6880   53.6010   12.6410 O.2    62  ARG62      -0.2867
      5  CB        90.4340   53.6330   12.2550 C.3    62  ARG62       0.0307
      6  CG        89.0150   53.2820   12.6880 C.3    62  ARG62       0.0489
      7  CD        87.9690   54.0460   11.8680 C.3    62  ARG62       0.2205
      8  NE        88.1540   53.8910   10.4240 N.pl3  62  ARG62      -0.0865
      9  CZ        87.5670   54.6590    9.5080 C.cat  62  ARG62       0.5346
     10  NH1       86.7500   55.6440    9.8780 N.pl3  62  ARG62       0.1354
     11  NH2       87.7910   54.4450    8.2190 N.pl3  62  ARG62       0.1354
     12  N         84.2450   57.5840    5.3170 N.3    74  ARG74      -0.1231
     13  CA        84.1150   58.3840    6.5370 C.3    74  ARG74       0.1694
     14  C         83.9020   57.4970    7.7680 C.2    74  ARG74       0.2591
     15  O         84.5380   57.7050    8.8120 O.2    74  ARG74      -0.2718
     16  CB        82.9680   59.3860    6.4030 C.3    74  ARG74       0.0321
     17  CG        82.9260   60.4240    7.5330 C.3    74  ARG74       0.0489
     18  CD        81.9390   61.5690    7.1900 C.3    74  ARG74       0.2205
     19  NE        81.5310   62.3940    8.3590 N.pl3  74  ARG74      -0.0865
     20  CZ        82.2540   63.3560    8.8540 C.cat  74  ARG74       0.5346
     21  NH1       83.4530   63.5360    8.4230 N.pl3  74  ARG74       0.1354
     22  NH2       81.8080   63.9980    9.9530 N.pl3  74  ARG74       0.1354
     23  N         83.0130   56.5070    7.6700 N.am   75  VAL75      -0.1980
     24  CA        82.7890   55.5350    8.7370 C.3    75  VAL75       0.1595
     25  C         83.1720   54.1520    8.2250 C.2    75  VAL75       0.2287
     26  O         82.6740   53.7090    7.1850 O.2    75  VAL75      -0.2864
     27  CB        81.3330   55.5480    9.2450 C.3    75  VAL75       0.0276
     28  CG1       81.0630   56.7990   10.0700 C.3    75  VAL75       0.0022
     29  CG2       80.3340   55.4300    8.0980 C.3    75  VAL75       0.0022
     30  N         94.4080   55.8800   14.5710 N.3   128  TYR128     -0.1227
     31  CA        93.6890   56.8030   15.4500 C.3   128  TYR128      0.1736
     32  C         92.5260   56.0600   16.0990 C.2   128  TYR128      0.2596
     33  O         92.1730   54.9480   15.6970 O.2   128  TYR128     -0.2718
     34  CB        93.1910   58.0420   14.6770 C.3   128  TYR128      0.0548
     35  CG        92.2640   57.7110   13.5210 C.ar  128  TYR128     -0.0200
     36  CD1       92.7720   57.3940   12.2600 C.ar  128  TYR128     -0.0009
     37  CD2       90.8810   57.7040   13.6870 C.ar  128  TYR128     -0.0009
     38  CE1       91.9210   57.0710   11.1980 C.ar  128  TYR128      0.0417
     39  CE2       90.0270   57.3950   12.6240 C.ar  128  TYR128      0.0417
     40  CZ        90.5570   57.0780   11.3900 C.ar  128  TYR128      0.1957
     41  OH        89.7090   56.7630   10.3450 O.3   128  TYR128     -0.2866
     42  N         91.9240   56.6910   17.1030 N.am  129  GLY129     -0.1942
     43  CA        90.6860   56.1980   17.7030 C.3   129  GLY129      0.2014
     44  C         89.5360   57.1620   17.4600 C.2   129  GLY129      0.2638
     45  O         89.7260   58.3790   17.4830 O.2   129  GLY129     -0.2714
     46  N         88.3380   56.6100   17.2390 N.am  130  ALA130     -0.1977
     47  CA        87.1330   57.4160   17.0310 C.3   130  ALA130      0.1597
     48  C         85.9070   56.5770   17.3660 C.2   130  ALA130      0.2287
     49  O         85.6730   55.5510   16.7180 O.2   130  ALA130     -0.2864
     50  CB        87.0550   57.9260   15.5720 C.3   130  ALA130      0.0319
     51  N         81.2800   62.2770   20.1630 N.3   186  TRP186     -0.1241
     52  CA        82.3540   61.4150   19.6980 C.3   186  TRP186      0.1605
     53  C         83.6530   61.7520   20.4250 C.2   186  TRP186      0.2264
     54  O         83.9020   62.9110   20.7700 O.2   186  TRP186     -0.2867
     55  CB        82.5620   61.5750   18.1890 C.3   186  TRP186      0.0550
     56  CG        81.4650   60.9370   17.3960 C.ar  186  TRP186      0.0003
     57  CD1       80.1810   61.3780   17.2610 C.ar  186  TRP186      0.0946
     58  CD2       81.5630   59.7320   16.6340 C.ar  186  TRP186      0.0152
     59  NE1       79.4690   60.5170   16.4560 N.ar  186  TRP186     -0.2442
     60  CE2       80.2960   59.4950   16.0620 C.ar  186  TRP186      0.0810
     61  CE3       82.6010   58.8240   16.3880 C.ar  186  TRP186      0.0012
     62  CZ2       80.0380   58.3890   15.2500 C.ar  186  TRP186      0.0191
     63  CZ3       82.3450   57.7210   15.5790 C.ar  186  TRP186      0.0001
     64  CH2       81.0710   57.5170   15.0200 C.ar  186  TRP186      0.0015
     65  N         87.8690   61.4200   20.0700 N.3   188  TYR188     -0.1227
     66  CA        88.9200   61.3010   19.0490 C.3   188  TYR188      0.1736
     67  C         90.2920   61.2240   19.7180 C.2   188  TYR188      0.2595
     68  O         90.7100   62.1760   20.3850 O.2   188  TYR188     -0.2718
     69  CB        88.8790   62.4990   18.0870 C.3   188  TYR188      0.0548
     70  CG        87.5670   62.6990   17.3240 C.ar  188  TYR188     -0.0200
     71  CD1       86.9560   61.6430   16.6420 C.ar  188  TYR188     -0.0009
     72  CD2       86.9610   63.9520   17.2610 C.ar  188  TYR188     -0.0009
     73  CE1       85.7600   61.8350   15.9300 C.ar  188  TYR188      0.0417
     74  CE2       85.7730   64.1510   16.5620 C.ar  188  TYR188      0.0417
     75  CZ        85.1810   63.0900   15.8970 C.ar  188  TYR188      0.1957
     76  OH        84.0060   63.2870   15.2140 O.3   188  TYR188     -0.2866
     77  N         90.9950   60.1050   19.5390 N.am  189  VAL189     -0.1980
     78  CA        92.3610   59.9410   20.0320 C.3   189  VAL189      0.1595
     79  C         93.3110   60.0540   18.8320 C.2   189  VAL189      0.2287
     80  O         93.3100   59.1990   17.9340 O.2   189  VAL189     -0.2864
     81  CB        92.5450   58.6080   20.7710 C.3   189  VAL189      0.0276
     82  CG1       93.9990   58.4500   21.2190 C.3   189  VAL189      0.0022
     83  CG2       91.5830   58.5160   21.9670 C.3   189  VAL189      0.0022
     84  N         97.5140   62.0810   11.7490 N.3   194  SER194     -0.1202
     85  CA        96.1560   61.5750   11.5820 C.3   194  SER194      0.2020
     86  C         95.2550   62.7460   11.1960 C.2   194  SER194      0.2619
     87  O         95.3720   63.8440   11.7440 O.2   194  SER194     -0.2717
     88  CB        95.6480   60.8590   12.8520 C.3   194  SER194      0.2103
     89  OG        95.6770   61.6780   14.0170 O.3   194  SER194     -0.2182
     90  N         94.3690   62.5230   10.2300 N.am  195  SER195     -0.1937
     91  CA        93.7100   63.6480    9.5870 C.3   195  SER195      0.2055
     92  C         92.2370   63.3650    9.3400 C.2   195  SER195      0.2643
     93  O         91.8520   62.2350    9.0220 O.2   195  SER195     -0.2714
     94  CB        94.4050   63.9810    8.2630 C.3   195  SER195      0.2130
     95  OG        94.7450   62.7910    7.5850 O.3   195  SER195     -0.2179
     96  N         91.4190   64.4030    9.4810 N.am  196  PHE196     -0.1959
     97  CA        90.0020   64.3300    9.1430 C.3   196  PHE196      0.1771
     98  C         89.8000   64.9830    7.7770 C.2   196  PHE196      0.2619
     99  O         90.1500   66.1550    7.5850 O.2   196  PHE196     -0.2715
    100  CB        89.0780   64.9210   10.2280 C.3   196  PHE196      0.0574
    101  CG        89.4840   66.2860   10.8070 C.ar  196  PHE196     -0.0200
    102  CD1       90.5230   66.3980   11.7430 C.ar  196  PHE196     -0.0042
    103  CD2       88.7410   67.4320   10.4970 C.ar  196  PHE196     -0.0042
    104  CE1       90.8600   67.6400   12.3170 C.ar  196  PHE196     -0.0003
    105  CE2       89.0620   68.6830   11.0670 C.ar  196  PHE196     -0.0003
    106  CZ        90.1220   68.7800   11.9830 C.ar  196  PHE196     -0.0000
    107  N         89.2680   64.2050    6.8230 N.am  197  CYS197     -0.1968
    108  CA        89.0400   64.6630    5.4550 C.3   197  CYS197      0.1712
    109  C         87.9260   65.7130    5.4020 C.2   197  CYS197      0.2296
    110  O         87.1070   65.8300    6.3150 O.2   197  CYS197     -0.2864
    111  CB        88.6670   63.4860    4.5440 C.3   197  CYS197      0.0983
    112  SG        89.9270   62.1770    4.3650 S.3   197  CYS197     -0.0798
    113  N         84.6690   67.6480    5.0120 N.3   199  HIS199     -0.1241
    114  CA        83.2720   67.2390    5.1640 C.3   199  HIS199      0.1621
    115  C         82.4460   68.3830    5.7360 C.2   199  HIS199      0.2264
    116  O         82.9780   69.3400    6.3110 O.2   199  HIS199     -0.2867
    117  CB        83.1260   66.0230    6.0950 C.3   199  HIS199      0.0745
    118  CG        83.5280   66.2960    7.5160 C.ar  199  HIS199      0.0817
    119  ND1       84.8420   66.4410    7.9090 N.ar  199  HIS199     -0.2268
    120  CD2       82.7780   66.5130    8.6270 C.ar  199  HIS199      0.1154
    121  CE1       84.8840   66.7060    9.2070 C.ar  199  HIS199      0.1986
    122  NE2       83.6450   66.7580    9.6670 N.ar  199  HIS199     -0.2212
    123  N         78.6470   68.5010    8.3010 N.3   201  GLU201     -0.1245
    124  CA        77.9050   67.6570    9.2360 C.3   201  GLU201      0.1567
    125  C         76.5640   67.2090    8.6470 C.2   201  GLU201      0.2260
    126  O         75.9840   67.8710    7.7820 O.2   201  GLU201     -0.2867
    127  CB        77.6530   68.3880   10.5570 C.3   201  GLU201      0.0388
    128  CG        78.9240   68.9230   11.2400 C.3   201  GLU201      0.1160
    129  CD        80.0230   67.8680   11.4060 C.2   201  GLU201      0.3649
    130  OE1       79.7310   66.6940   11.7110 O.co2 201  GLU201     -0.2457
    131  OE2       81.2040   68.2180   11.2140 O.co2 201  GLU201     -0.2457
    132  N         78.6550   72.0810   14.7720 N.3   207  SER207     -0.1217
    133  CA        79.3880   71.1950   15.6730 C.3   207  SER207      0.1889
    134  C         80.2920   72.0130   16.5970 C.2   207  SER207      0.2288
    135  O         80.6470   73.1590   16.3040 O.2   207  SER207     -0.2866
    136  CB        80.1910   70.1300   14.9070 C.3   207  SER207      0.2089
    137  OG        81.3620   70.6770   14.3150 O.3   207  SER207     -0.2183
    138  N         83.7970   71.3280   19.3170 N.3   209  ASN209     -0.1240
    139  CA        84.8750   70.3690   19.5750 C.3   209  ASN209      0.1653
    140  C         85.7550   70.9370   20.6860 C.2   209  ASN209      0.2266
    141  O         86.1460   72.1110   20.6280 O.2   209  ASN209     -0.2867
    142  CB        85.6790   70.1210   18.2640 C.3   209  ASN209      0.1155
    143  CG        86.8900   69.1640   18.4220 C.2   209  ASN209      0.2627
    144  OD1       87.7570   69.3230   19.2770 O.2   209  ASN209     -0.2716
    145  ND2       86.8980   68.1110   17.5790 N.am  209  ASN209     -0.0877
    146  N         95.5790   70.5630   17.5290 N.3   217  LYS217     -0.1245
    147  CA        94.8090   70.0890   16.3760 C.3   217  LYS217      0.1561
    148  C         94.7380   71.2450   15.3780 C.2   217  LYS217      0.2260
    149  O         94.3150   72.3510   15.7430 O.2   217  LYS217     -0.2867
    150  CB        93.4090   69.6170   16.8210 C.3   217  LYS217      0.0271
    151  CG        92.4920   69.1220   15.6720 C.3   217  LYS217      0.0035
    152  CD        91.0460   68.6140   16.0900 C.3   217  LYS217      0.0206
    153  CE        91.0590   67.7710   17.3620 C.3   217  LYS217      0.1093
    154  NZ        91.3760   66.3530   16.9670 N.3   217  LYS217     -0.1314
    155  N         93.2550   73.0520   12.0400 N.3   219  TRP219     -0.1241
    156  CA        91.9950   73.0860   11.2920 C.3   219  TRP219      0.1605
    157  C         92.0660   73.9700   10.0510 C.2   219  TRP219      0.2264
    158  O         92.7450   75.0030   10.0480 O.2   219  TRP219     -0.2867
    159  CB        90.8520   73.6560   12.1490 C.3   219  TRP219      0.0550
    160  CG        90.4480   72.8870   13.3800 C.ar  219  TRP219      0.0003
    161  CD1       91.1710   72.7160   14.5420 C.ar  219  TRP219      0.0946
    162  CD2       89.1880   72.2410   13.5900 C.ar  219  TRP219      0.0152
    163  NE1       90.4380   71.9730   15.4440 N.ar  219  TRP219     -0.2442
    164  CE2       89.2150   71.6780   14.8840 C.ar  219  TRP219      0.0810
    165  CE3       88.0440   72.0630   12.7900 C.ar  219  TRP219      0.0012
    166  CZ2       88.1320   70.9540   15.4110 C.ar  219  TRP219      0.0191
    167  CZ3       86.9640   71.3530   13.3150 C.ar  219  TRP219      0.0001
    168  CH2       87.0190   70.8010   14.6100 C.ar  219  TRP219      0.0015
    169  N         85.2270   60.5960    1.1730 N.3   253  VAL253     -0.1245
    170  CA        85.8150   61.8920    1.5210 C.3   253  VAL253      0.1561
    171  C         87.3010   61.8710    1.1610 C.2   253  VAL253      0.2260
    172  O         87.8700   60.8160    0.8720 O.2   253  VAL253     -0.2867
    173  CB        85.6170   62.2150    3.0170 C.3   253  VAL253      0.0252
    174  CG1       84.1280   62.4290    3.3230 C.3   253  VAL253      0.0019
    175  CG2       86.1820   61.0860    3.8660 C.3   253  VAL253      0.0019
    176  N         85.0480   71.5930    6.5630 N.3   287  HIS287     -0.1241
    177  CA        86.2560   71.6600    7.3830 C.3   287  HIS287      0.1621
    178  C         87.0680   70.3780    7.2390 C.2   287  HIS287      0.2264
    179  O         86.5350   69.3210    6.8850 O.2   287  HIS287     -0.2867
    180  CB        85.9470   71.9410    8.8700 C.3   287  HIS287      0.0745
    181  CG        84.9080   71.0390    9.4820 C.ar  287  HIS287      0.0817
    182  ND1       83.5580   71.1860    9.2450 N.ar  287  HIS287     -0.2268
    183  CD2       85.0250   70.0020   10.3510 C.ar  287  HIS287      0.1154
    184  CE1       82.8870   70.2700    9.9230 C.ar  287  HIS287      0.1986
    185  NE2       83.7510   69.5430   10.6100 N.ar  287  HIS287     -0.2212
    186  N         96.0590   66.1770   13.2790 N.3   291  ASN291     -0.1240
    187  CA        96.5970   66.2720   14.6290 C.3   291  ASN291      0.1653
    188  C         98.1230   66.4160   14.6090 C.2   291  ASN291      0.2266
    189  O         98.8170   65.7560   13.8260 O.2   291  ASN291     -0.2867
    190  CB        96.1570   65.0360   15.4180 C.3   291  ASN291      0.1155
    191  CG        94.6540   65.0220   15.6450 C.2   291  ASN291      0.2627
    192  OD1       94.1110   65.9460   16.2650 O.2   291  ASN291     -0.2716
    193  ND2       93.9630   64.0060   15.0980 N.am  291  ASN291     -0.0877
@<TRIPOS>BOND
     1   172   171    2
     2   171   170    1
     3   169   170    1
     4   170   173    1
     5   173   174    1
     6   173   175    1
     7   112   111    1
     8   111   108    1
     9   113   114    1
    10   114   115    1
    11   114   117    1
    12    12    13    1
    13   109   108    1
    14   109   110    2
    15   108   107    1
    16   115   116    2
    17   117   118    1
    18    16    13    1
    19    16    17    1
    20    13    14    1
    21   176   177    1
    22   107    98   am
    23   179   178    2
    24    26    25    2
    25    18    17    1
    26    18    19    1
    27   178   177    1
    28   177   180    1
    29   118   119   ar
    30   118   120   ar
    31    95    94    1
    32    99    98    2
    33    23    14   am
    34    23    24    1
    35    14    15    2
    36    98    97    1
    37   126   125    2
    38   119   121   ar
    39    29    27    1
    40    11     9    1
    41    25    24    1
    42    94    91    1
    43   123   124    1
    44    19    20    2
    45    21    20    1
    46   120   122   ar
    47   125   124    1
    48    24    27    1
    49    20    22    1
    50   180   181    1
    51    93    92    2
    52    97    96    1
    53    97   100    1
    54   121   122   ar
    55   124   127    1
    56    27    28    1
    57   182   181   ar
    58   182   184   ar
    59    92    96   am
    60    92    91    1
    61   181   183   ar
    62     9    10    1
    63     9     8    2
    64    91    90    1
    65   184   185   ar
    66   158   157    2
    67   157   156    1
    68   100   101    1
    69    90    86   am
    70    41    40    1
    71   183   185   ar
    72     8     7    1
    73   103   101   ar
    74   103   105   ar
    75   127   128    1
    76   101   102   ar
    77   105   106   ar
    78    86    85    1
    79    86    87    2
    80    38    40   ar
    81    38    36   ar
    82   131   129   ar
    83   128   129    1
    84   156   155    1
    85   156   159    1
    86    40    39   ar
    87   129   130   ar
    88    85    84    1
    89    85    88    1
    90   102   104   ar
    91     7     6    1
    92   106   104   ar
    93     3     4    2
    94     3     2    1
    95   159   160    1
    96     5     2    1
    97     5     6    1
    98    36    35   ar
    99    39    37   ar
   100     2     1    1
   101   165   167   ar
   102   165   162   ar
   103    88    89    1
   104   186   187    1
   105   167   168   ar
   106   160   162   ar
   107   160   161   ar
   108    35    37   ar
   109    35    34    1
   110   162   164   ar
   111   189   188    2
   112   137   136    1
   113   161   163   ar
   114    30    31    1
   115   188   187    1
   116   168   166   ar
   117   187   190    1
   118    34    31    1
   119   132   133    1
   120   164   166   ar
   121   164   163   ar
   122   136   133    1
   123    64    62   ar
   124    64    63   ar
   125   193   191   am
   126    76    75    1
   127    62    60   ar
   128   148   149    2
   129   148   147    1
   130   190   191    1
   131    31    32    1
   132    50    47    1
   133    63    61   ar
   134   191   192    2
   135   151   152    1
   136   151   150    1
   137   133   134    1
   138    33    32    2
   139    75    73   ar
   140    75    74   ar
   141    73    71   ar
   142    60    59   ar
   143    60    58   ar
   144   152   153    1
   145    32    42   am
   146   135   134    2
   147   147   150    1
   148   147   146    1
   149    61    58   ar
   150    59    57   ar
   151    74    72   ar
   152    58    56   ar
   153    71    70   ar
   154    49    48    2
   155   154   153    1
   156    47    46    1
   157    47    48    1
   158    42    43    1
   159    46    44   am
   160    57    56   ar
   161    72    70   ar
   162    70    69    1
   163    56    55    1
   164    44    45    2
   165    44    43    1
   166   145   143   am
   167    80    79    2
   168    69    66    1
   169    55    52    1
   170   142   143    1
   171   142   139    1
   172   143   144    2
   173    79    78    1
   174    66    67    1
   175    66    65    1
   176   138   139    1
   177    77    67   am
   178    77    78    1
   179   139   140    1
   180    52    51    1
   181    52    53    1
   182    67    68    2
   183    78    81    1
   184    53    54    2
   185   141   140    2
   186    81    82    1
   187    81    83    1
