@<TRIPOS>MOLECULE
tmp/6eivB00.pdb
 181 172 0 0 0
SMALL
GASTEIGER

@<TRIPOS>ATOM
      1  N        -15.1250  -17.9250  -41.9340 N.3    33  ILE33      -0.1231
      2  CA       -14.5420  -18.3870  -43.1920 C.3    33  ILE33       0.1692
      3  C        -13.2390  -19.1620  -43.0070 C.2    33  ILE33       0.2593
      4  O        -12.7260  -19.7580  -43.9540 O.2    33  ILE33      -0.2718
      5  CB       -14.2740  -17.2090  -44.1490 C.3    33  ILE33       0.0266
      6  CG1      -13.0620  -16.4010  -43.6800 C.3    33  ILE33       0.0019
      7  CG2      -15.5090  -16.3280  -44.2730 C.3    33  ILE33       0.0020
      8  CD1      -12.7160  -15.2350  -44.5810 C.3    33  ILE33       0.0001
      9  N        -12.7020  -19.1570  -41.7920 N.am   34  GLY34      -0.1942
     10  CA       -11.4530  -19.8490  -41.5320 C.3    34  GLY34       0.2014
     11  C        -11.1860  -20.1340  -40.0690 C.2    34  GLY34       0.2638
     12  O        -11.7010  -19.4490  -39.1870 O.2    34  GLY34      -0.2714
     13  N        -10.3750  -21.1570  -39.8160 N.am   35  LYS35      -0.1977
     14  CA        -9.9850  -21.5150  -38.4570 C.3    35  LYS35       0.1596
     15  C         -8.5890  -22.1300  -38.4330 C.2    35  LYS35       0.2287
     16  O         -8.2810  -23.0380  -39.2070 O.2    35  LYS35      -0.2864
     17  CB       -10.9970  -22.4830  -37.8350 C.3    35  LYS35       0.0298
     18  CG       -10.6260  -22.9460  -36.4310 C.3    35  LYS35       0.0038
     19  CD       -11.6430  -23.9360  -35.8800 C.3    35  LYS35       0.0206
     20  CE       -12.9760  -23.2640  -35.5950 C.3    35  LYS35       0.1093
     21  NZ       -12.8690  -22.2850  -34.4800 N.3    35  LYS35      -0.1314
     22  N         -3.8110  -20.2660  -34.7090 N.3    38  PHE38      -0.1241
     23  CA        -3.6370  -18.8560  -34.3810 C.3    38  PHE38       0.1605
     24  C         -4.9370  -18.2460  -33.8590 C.2    38  PHE38       0.2264
     25  O         -4.9200  -17.3530  -33.0120 O.2    38  PHE38      -0.2867
     26  CB        -3.1460  -18.0790  -35.6080 C.3    38  PHE38       0.0534
     27  CG        -4.1090  -18.0950  -36.7660 C.ar   38  PHE38      -0.0203
     28  CD1       -5.0970  -17.1280  -36.8780 C.ar   38  PHE38      -0.0042
     29  CD2       -4.0260  -19.0740  -37.7430 C.ar   38  PHE38      -0.0042
     30  CE1       -5.9840  -17.1400  -37.9360 C.ar   38  PHE38      -0.0003
     31  CE2       -4.9100  -19.0900  -38.8070 C.ar   38  PHE38      -0.0003
     32  CZ        -5.8900  -18.1210  -38.9030 C.ar   38  PHE38      -0.0000
     33  N        -10.7380  -16.7520  -38.7550 N.3    41  VAL41      -0.1245
     34  CA       -10.8540  -15.7890  -39.8460 C.3    41  VAL41       0.1561
     35  C        -12.3190  -15.6180  -40.2340 C.2    41  VAL41       0.2260
     36  O        -13.0220  -16.5990  -40.4760 O.2    41  VAL41      -0.2867
     37  CB       -10.0520  -16.2170  -41.0860 C.3    41  VAL41       0.0252
     38  CG1       -9.9320  -15.0550  -42.0560 C.3    41  VAL41       0.0019
     39  CG2       -8.6770  -16.7140  -40.6900 C.3    41  VAL41       0.0019
     40  N        -11.7140   -9.1330  -44.5450 N.3    54  ALA54      -0.1245
     41  CA       -11.5300  -10.4080  -43.8660 C.3    54  ALA54       0.1562
     42  C        -10.7400  -10.1750  -42.5880 C.2    54  ALA54       0.2260
     43  O         -9.6040   -9.7070  -42.6340 O.2    54  ALA54      -0.2867
     44  CB       -10.8210  -11.4050  -44.7650 C.3    54  ALA54       0.0290
     45  N         -8.8370  -11.3290  -39.1220 N.3    56  LYS56      -0.1245
     46  CA        -8.0970  -12.4010  -38.4690 C.3    56  LYS56       0.1561
     47  C         -8.0600  -12.1690  -36.9630 C.2    56  LYS56       0.2260
     48  O         -7.2780  -11.3530  -36.4690 O.2    56  LYS56      -0.2867
     49  CB        -6.6780  -12.4840  -39.0350 C.3    56  LYS56       0.0271
     50  CG        -5.8340  -13.6380  -38.5220 C.3    56  LYS56       0.0035
     51  CD        -4.4030  -13.4840  -39.0180 C.3    56  LYS56       0.0206
     52  CE        -3.5920  -14.7540  -38.8440 C.3    56  LYS56       0.1093
     53  NZ        -2.2280  -14.6220  -39.4250 N.3    56  LYS56      -0.1314
     54  N         -0.6460   -9.7010  -49.6550 N.3    90  VAL90      -0.1245
     55  CA        -1.9230   -9.4130  -49.0050 C.3    90  VAL90       0.1561
     56  C         -1.8020   -8.1590  -48.1350 C.2    90  VAL90       0.2260
     57  O         -0.7920   -7.9500  -47.4600 O.2    90  VAL90      -0.2867
     58  CB        -2.4190  -10.6110  -48.1570 C.3    90  VAL90       0.0252
     59  CG1       -1.4890  -10.8800  -46.9800 C.3    90  VAL90       0.0019
     60  CG2       -3.8430  -10.3730  -47.6770 C.3    90  VAL90       0.0019
     61  N         -7.6330   -7.6290  -43.0680 N.3   106  PHE106     -0.1227
     62  CA        -7.0870   -7.8170  -44.4070 C.3   106  PHE106      0.1736
     63  C         -8.1330   -7.5620  -45.4800 C.2   106  PHE106      0.2595
     64  O         -9.3340   -7.6200  -45.2160 O.2   106  PHE106     -0.2718
     65  CB        -6.5310   -9.2320  -44.5770 C.3   106  PHE106      0.0547
     66  CG        -5.3270   -9.5190  -43.7350 C.ar  106  PHE106     -0.0202
     67  CD1       -4.0710   -9.0970  -44.1360 C.ar  106  PHE106     -0.0042
     68  CD2       -5.4470  -10.2230  -42.5490 C.ar  106  PHE106     -0.0042
     69  CE1       -2.9590   -9.3640  -43.3650 C.ar  106  PHE106     -0.0003
     70  CE2       -4.3390  -10.4940  -41.7730 C.ar  106  PHE106     -0.0003
     71  CZ        -3.0930  -10.0650  -42.1820 C.ar  106  PHE106     -0.0000
     72  N         -7.6650   -7.2860  -46.6920 N.am  107  GLU107     -0.1965
     73  CA        -8.5420   -7.1730  -47.8480 C.3   107  GLU107      0.1733
     74  C         -9.1560   -8.5310  -48.1570 C.2   107  GLU107      0.2616
     75  O         -8.5100   -9.5650  -47.9850 O.2   107  GLU107     -0.2715
     76  CB        -7.7720   -6.6450  -49.0570 C.3   107  GLU107      0.0429
     77  CG        -6.5110   -7.4320  -49.3740 C.3   107  GLU107      0.1163
     78  CD        -5.7870   -6.9090  -50.5990 C.2   107  GLU107      0.3649
     79  OE1       -6.2920   -5.9520  -51.2240 O.co2 107  GLU107     -0.2457
     80  OE2       -4.7160   -7.4560  -50.9370 O.co2 107  GLU107     -0.2457
     81  N        -10.4060   -8.5310  -48.6090 N.am  108  MET108     -0.1963
     82  CA       -11.1110   -9.7800  -48.8770 C.3   108  MET108      0.1736
     83  C        -10.6880  -10.3940  -50.2090 C.2   108  MET108      0.2616
     84  O        -10.7260   -9.7360  -51.2490 O.2   108  MET108     -0.2715
     85  CB       -12.6230   -9.5530  -48.8620 C.3   108  MET108      0.0427
     86  CG       -13.4420  -10.8260  -48.9910 C.3   108  MET108      0.0599
     87  SD       -13.1420  -11.9780  -47.6370 S.3   108  MET108     -0.1393
     88  CE       -14.3170  -13.2720  -48.0220 C.3   108  MET108      0.0692
     89  N        -10.2900  -11.6610  -50.1670 N.am  109  LEU109     -0.1963
     90  CA        -9.8620  -12.3780  -51.3640 C.3   109  LEU109      0.1728
     91  C        -10.7370  -13.6050  -51.6080 C.2   109  LEU109      0.2617
     92  O        -11.5210  -14.0010  -50.7450 O.2   109  LEU109     -0.2715
     93  CB        -8.3930  -12.7910  -51.2450 C.3   109  LEU109      0.0311
     94  CG        -7.4010  -11.6620  -50.9610 C.3   109  LEU109      0.0022
     95  CD1       -5.9890  -12.2080  -50.8440 C.3   109  LEU109      0.0001
     96  CD2       -7.4810  -10.5950  -52.0390 C.3   109  LEU109      0.0001
     97  N        -10.5980  -14.2040  -52.7860 N.am  110  SER110     -0.1936
     98  CA       -11.4030  -15.3640  -53.1500 C.3   110  SER110      0.2055
     99  C        -10.7570  -16.6670  -52.6880 C.2   110  SER110      0.2643
    100  O         -9.8690  -16.6620  -51.8360 O.2   110  SER110     -0.2714
    101  CB       -11.6330  -15.4030  -54.6620 C.3   110  SER110      0.2130
    102  OG       -12.4170  -16.5250  -55.0240 O.3   110  SER110     -0.2179
    103  N        -11.2090  -17.7790  -53.2620 N.am  111  TYR111     -0.1959
    104  CA       -10.7370  -19.1010  -52.8630 C.3   111  TYR111      0.1771
    105  C         -9.2560  -19.2990  -53.1690 C.2   111  TYR111      0.2619
    106  O         -8.6940  -18.6300  -54.0340 O.2   111  TYR111     -0.2715
    107  CB       -11.5680  -20.1970  -53.5450 C.3   111  TYR111      0.0574
    108  CG       -11.5040  -20.2030  -55.0600 C.ar  111  TYR111     -0.0198
    109  CD1      -10.5380  -20.9400  -55.7330 C.ar  111  TYR111     -0.0009
    110  CD2      -12.4240  -19.4880  -55.8180 C.ar  111  TYR111     -0.0009
    111  CE1      -10.4790  -20.9540  -57.1170 C.ar  111  TYR111      0.0417
    112  CE2      -12.3710  -19.4940  -57.2040 C.ar  111  TYR111      0.0417
    113  CZ       -11.3970  -20.2300  -57.8470 C.ar  111  TYR111      0.1957
    114  OH       -11.3420  -20.2430  -59.2230 O.3   111  TYR111     -0.2866
    115  N         -8.6320  -20.2230  -52.4440 N.am  112  ASN112     -0.1972
    116  CA        -7.2170  -20.5200  -52.6250 C.3   112  ASN112      0.1688
    117  C         -6.9750  -21.4440  -53.8130 C.2   112  ASN112      0.2292
    118  O         -7.9200  -21.8910  -54.4590 O.2   112  ASN112     -0.2864
    119  CB        -6.6340  -21.1370  -51.3530 C.3   112  ASN112      0.1181
    120  CG        -7.4990  -22.2460  -50.7940 C.2   112  ASN112      0.2629
    121  OD1       -7.4070  -23.3960  -51.2210 O.2   112  ASN112     -0.2716
    122  ND2       -8.3490  -21.9050  -49.8300 N.am  112  ASN112     -0.0877
    123  N         -8.4890  -25.0030  -53.7870 N.3   115  ASP115     -0.1239
    124  CA        -9.8970  -25.0270  -54.1640 C.3   115  ASP115      0.1674
    125  C        -10.0150  -25.0910  -55.6820 C.2   115  ASP115      0.2266
    126  O        -10.8470  -25.8220  -56.2260 O.2   115  ASP115     -0.2867
    127  CB       -10.6310  -23.8020  -53.6180 C.3   115  ASP115      0.1410
    128  CG       -10.6630  -23.7700  -52.1030 C.2   115  ASP115      0.3668
    129  OD1      -10.2920  -24.7850  -51.4780 O.co2 115  ASP115     -0.2456
    130  OD2      -11.0700  -22.7330  -51.5360 O.co2 115  ASP115     -0.2456
    131  N         -9.2390  -28.3580  -56.7600 N.3   118  ARG118     -0.1245
    132  CA       -10.3700  -29.2150  -56.4300 C.3   118  ARG118      0.1563
    133  C        -11.4640  -29.0590  -57.4780 C.2   118  ARG118      0.2260
    134  O        -12.2940  -29.9500  -57.6610 O.2   118  ARG118     -0.2867
    135  CB       -10.9170  -28.8880  -55.0370 C.3   118  ARG118      0.0307
    136  CG       -11.6490  -30.0460  -54.3700 C.3   118  ARG118      0.0489
    137  CD       -12.4520  -29.6000  -53.1490 C.3   118  ARG118      0.2205
    138  NE       -11.6420  -28.9040  -52.1500 N.pl3 118  ARG118     -0.0865
    139  CZ       -11.6310  -27.5850  -51.9840 C.cat 118  ARG118      0.5346
    140  NH1      -12.3870  -26.8120  -52.7530 N.pl3 118  ARG118      0.1354
    141  NH2      -10.8660  -27.0370  -51.0490 N.pl3 118  ARG118      0.1354
    142  N         -2.6620  -23.6740  -50.2190 N.3   159  GLU159     -0.1231
    143  CA        -3.6570  -23.1260  -49.3030 C.3   159  GLU159      0.1699
    144  C         -3.3400  -21.6790  -48.9250 C.2   159  GLU159      0.2592
    145  O         -4.2220  -20.9370  -48.4940 O.2   159  GLU159     -0.2718
    146  CB        -3.7620  -23.9810  -48.0370 C.3   159  GLU159      0.0402
    147  CG        -4.5280  -25.2860  -48.2110 C.3   159  GLU159      0.1161
    148  CD        -3.6440  -26.4410  -48.6480 C.2   159  GLU159      0.3649
    149  OE1       -2.5580  -26.1880  -49.2100 O.co2 159  GLU159     -0.2457
    150  OE2       -4.0350  -27.6060  -48.4190 O.co2 159  GLU159     -0.2457
    151  N         -2.0820  -21.2810  -49.0910 N.am  160  ASN160     -0.1974
    152  CA        -1.6590  -19.9310  -48.7310 C.3   160  ASN160      0.1688
    153  C         -1.6100  -18.9860  -49.9290 C.2   160  ASN160      0.2292
    154  O         -1.0760  -17.8820  -49.8360 O.2   160  ASN160     -0.2864
    155  CB        -0.2900  -19.9690  -48.0470 C.3   160  ASN160      0.1181
    156  CG        -0.3500  -20.5750  -46.6600 C.2   160  ASN160      0.2629
    157  OD1       -1.3460  -20.4340  -45.9510 O.2   160  ASN160     -0.2716
    158  ND2        0.7200  -21.2550  -46.2660 N.am  160  ASN160     -0.0877
    159  N         -4.1340  -17.1250  -52.6040 N.3   162  LEU162     -0.1245
    160  CA        -5.5430  -16.8140  -52.8350 C.3   162  LEU162      0.1561
    161  C         -5.7770  -15.9370  -54.0630 C.2   162  LEU162      0.2260
    162  O         -5.1190  -14.9160  -54.2400 O.2   162  LEU162     -0.2867
    163  CB        -6.1340  -16.1160  -51.6090 C.3   162  LEU162      0.0270
    164  CG        -6.6820  -16.9320  -50.4380 C.3   162  LEU162      0.0019
    165  CD1       -5.6600  -17.9060  -49.8730 C.3   162  LEU162      0.0001
    166  CD2       -7.1340  -15.9730  -49.3650 C.3   162  LEU162      0.0001
    167  N         -0.8910  -15.1600  -48.5110 N.3   174  VAL174     -0.1231
    168  CA        -1.4820  -14.8320  -47.2170 C.3   174  VAL174      0.1692
    169  C         -0.8070  -15.5680  -46.0630 C.2   174  VAL174      0.2592
    170  O          0.0520  -16.4240  -46.2770 O.2   174  VAL174     -0.2718
    171  CB        -2.9880  -15.1580  -47.1920 C.3   174  VAL174      0.0266
    172  CG1       -3.7230  -14.3610  -48.2560 C.3   174  VAL174      0.0020
    173  CG2       -3.2080  -16.6510  -47.3860 C.3   174  VAL174      0.0020
    174  N         -1.2140  -15.2180  -44.8440 N.am  175  ASP175     -0.1974
    175  CA        -0.7260  -15.8470  -43.6160 C.3   175  ASP175      0.1709
    176  C          0.7960  -15.8340  -43.4950 C.2   175  ASP175      0.2293
    177  O          1.4710  -16.7910  -43.8760 O.2   175  ASP175     -0.2864
    178  CB        -1.2410  -17.2860  -43.5140 C.3   175  ASP175      0.1436
    179  CG        -0.7610  -17.9880  -42.2580 C.2   175  ASP175      0.3671
    180  OD1       -1.3220  -17.7240  -41.1730 O.co2 175  ASP175     -0.2456
    181  OD2        0.1780  -18.8050  -42.3570 O.co2 175  ASP175     -0.2456
@<TRIPOS>BOND
     1   114   113    1
     2   113   112   ar
     3   113   111   ar
     4   134   133    2
     5   133   132    1
     6   112   110   ar
     7   111   109   ar
     8   131   132    1
     9   132   135    1
    10   126   125    2
    11   110   108   ar
    12   109   108   ar
    13   125   124    1
    14   108   107    1
    15   135   136    1
    16   102   101    1
    17   101    98    1
    18   118   117    2
    19   136   137    1
    20   162   161    2
    21   124   123    1
    22   124   127    1
    23   161   160    1
    24   106   105    2
    25   117   116    1
    26   127   128    1
    27   107   104    1
    28   103   104    1
    29   103    99   am
    30   105   104    1
    31   105   115   am
    32    98    97    1
    33    98    99    1
    34   137   138    1
    35   160   159    1
    36   160   163    1
    37    97    91   am
    38   140   139    1
    39    99   100    2
    40   116   115    1
    41   116   119    1
    42   138   139    2
    43   128   130   ar
    44   128   129   ar
    45    96    94    1
    46   139   141    1
    47   163   164    1
    48    91    90    1
    49    91    92    2
    50    90    93    1
    51    90    89    1
    52   119   120    1
    53    84    83    2
    54    93    94    1
    55    79    78   ar
    56   121   120    2
    57    94    95    1
    58    80    78   ar
    59   120   122   am
    60    78    77    1
    61   164   165    1
    62   164   166    1
    63   142   143    1
    64    83    89   am
    65    83    82    1
    66   153   154    2
    67   153   152    1
    68    54    55    1
    69    77    76    1
    70   143   144    1
    71   143   146    1
    72   149   148   ar
    73   151   144   am
    74   151   152    1
    75    76    73    1
    76    55    58    1
    77    55    56    1
    78    86    85    1
    79    86    87    1
    80   144   145    2
    81    82    85    1
    82    82    81    1
    83   152   155    1
    84   148   150   ar
    85   148   147    1
    86    81    74   am
    87   167   168    1
    88   172   171    1
    89   147   146    1
    90    74    75    2
    91    74    73    1
    92    58    60    1
    93    58    59    1
    94    56    57    2
    95   155   156    1
    96    88    87    1
    97    73    72    1
    98   173   171    1
    99   168   171    1
   100   168   169    1
   101    72    63   am
   102   156   158   am
   103   156   157    2
   104   170   169    2
   105   169   174   am
   106    63    64    2
   107    63    62    1
   108   174   175    1
   109    44    41    1
   110     8     6    1
   111    65    62    1
   112    65    66    1
   113    40    41    1
   114    62    61    1
   115     7     5    1
   116     5     6    1
   117     5     2    1
   118    67    66   ar
   119    67    69   ar
   120     4     3    2
   121   177   176    2
   122    41    42    1
   123    66    68   ar
   124   175   178    1
   125   175   176    1
   126   178   179    1
   127    69    71   ar
   128     2     3    1
   129     2     1    1
   130     3     9   am
   131    43    42    2
   132    68    70   ar
   133   181   179   ar
   134   179   180   ar
   135    71    70   ar
   136    38    37    1
   137     9    10    1
   138    10    11    1
   139    37    39    1
   140    37    34    1
   141    36    35    2
   142    35    34    1
   143    11    13   am
   144    11    12    2
   145    34    33    1
   146    13    14    1
   147    53    52    1
   148    16    15    2
   149    45    46    1
   150    49    50    1
   151    49    46    1
   152    51    52    1
   153    51    50    1
   154    32    31   ar
   155    32    30   ar
   156    31    29   ar
   157    46    47    1
   158    14    15    1
   159    14    17    1
   160    30    28   ar
   161    17    18    1
   162    29    27   ar
   163    47    48    2
   164    28    27   ar
   165    27    26    1
   166    18    19    1
   167    19    20    1
   168    26    23    1
   169    20    21    1
   170    22    23    1
   171    23    24    1
   172    24    25    2
