@<TRIPOS>MOLECULE
tmp/6eiyA00.pdb
 207 201 0 0 0
SMALL
GASTEIGER

@<TRIPOS>ATOM
      1  N         93.9160   54.0720    8.4910 N.3    64  GLN64      -0.1245
      2  CA        93.6870   55.1280    7.5080 C.3    64  GLN64       0.1566
      3  C         94.9240   55.2770    6.6350 C.2    64  GLN64       0.2260
      4  O         96.0270   55.4720    7.1530 O.2    64  GLN64      -0.2867
      5  CB        93.3720   56.4430    8.2220 C.3    64  GLN64       0.0367
      6  CG        93.1870   57.6360    7.3250 C.3    64  GLN64       0.0905
      7  CD        92.6580   58.8210    8.1060 C.2    64  GLN64       0.2608
      8  OE1       93.2920   59.2910    9.0570 O.2    64  GLN64      -0.2717
      9  NE2       91.4830   59.3020    7.7190 N.am   64  GLN64      -0.0878
     10  N         87.3360   57.5980    0.8380 N.3    72  GLN72      -0.1231
     11  CA        87.2100   57.0350    2.1720 C.3    72  GLN72       0.1698
     12  C         85.7360   57.0860    2.5280 C.2    72  GLN72       0.2593
     13  O         84.9640   57.8070    1.8910 O.2    72  GLN72      -0.2718
     14  CB        88.0600   57.7950    3.2210 C.3    72  GLN72       0.0381
     15  CG        89.5490   57.8330    2.9310 C.3    72  GLN72       0.0905
     16  CD        90.3540   58.5190    4.0460 C.2    72  GLN72       0.2608
     17  OE1       90.2020   58.2090    5.2430 O.2    72  GLN72      -0.2717
     18  NE2       91.2040   59.4700    3.6520 N.am   72  GLN72      -0.0878
     19  N         85.3500   56.3200    3.5510 N.am   73  THR73      -0.1939
     20  CA        83.9730   56.2350    4.0300 C.3    73  THR73       0.2028
     21  C         83.8230   56.9070    5.3960 C.2    73  THR73       0.2642
     22  O         84.8010   57.3030    6.0370 O.2    73  THR73      -0.2714
     23  CB        83.5260   54.7730    4.1480 C.3    73  THR73       0.1808
     24  OG1       84.2750   54.1430    5.2000 O.3    73  THR73      -0.2208
     25  CG2       83.7730   54.0350    2.8440 C.3    73  THR73       0.0379
     26  N         82.5680   57.0510    5.8290 N.am   74  ARG74      -0.1963
     27  CA        82.2770   57.2770    7.2390 C.3    74  ARG74       0.1729
     28  C         82.4540   55.9700    8.0030 C.2    74  ARG74       0.2616
     29  O         82.2910   54.8790    7.4510 O.2    74  ARG74      -0.2715
     30  CB        80.8510   57.7890    7.4570 C.3    74  ARG74       0.0348
     31  CG        80.3290   58.7560    6.4140 C.3    74  ARG74       0.0492
     32  CD        80.7100   60.1890    6.7450 C.3    74  ARG74       0.2205
     33  NE        80.1410   61.1330    5.7850 N.pl3  74  ARG74      -0.0865
     34  CZ        79.4960   62.2480    6.1220 C.cat  74  ARG74       0.5346
     35  NH1       79.0190   63.0430    5.1690 N.pl3  74  ARG74       0.1354
     36  NH2       79.3430   62.5740    7.4070 N.pl3  74  ARG74       0.1354
     37  N         82.7940   56.0850    9.2660 N.am   75  VAL75      -0.1977
     38  CA        83.0190   54.9170   10.1120 C.3    75  VAL75       0.1596
     39  C         81.6850   54.4400   10.6640 C.2    75  VAL75       0.2287
     40  O         80.7290   55.2210   10.8120 O.2    75  VAL75      -0.2864
     41  CB        84.0170   55.2280   11.2520 C.3    75  VAL75       0.0276
     42  CG1       85.2910   55.8540   10.6960 C.3    75  VAL75       0.0022
     43  CG2       83.3640   56.1350   12.3120 C.3    75  VAL75       0.0022
     44  N         93.5450   55.4970   14.4390 N.3   128  TYR128     -0.1227
     45  CA        92.8200   56.4710   15.2420 C.3   128  TYR128      0.1736
     46  C         91.6420   55.7740   15.8950 C.2   128  TYR128      0.2596
     47  O         91.2880   54.6480   15.5400 O.2   128  TYR128     -0.2718
     48  CB        92.3430   57.6560   14.3940 C.3   128  TYR128      0.0548
     49  CG        91.3590   57.2480   13.3340 C.ar  128  TYR128     -0.0200
     50  CD1       91.7950   56.6610   12.1420 C.ar  128  TYR128     -0.0009
     51  CD2       89.9880   57.4100   13.5290 C.ar  128  TYR128     -0.0009
     52  CE1       90.8750   56.2650   11.1620 C.ar  128  TYR128      0.0417
     53  CE2       89.0720   57.0200   12.5580 C.ar  128  TYR128      0.0417
     54  CZ        89.5210   56.4500   11.3840 C.ar  128  TYR128      0.1957
     55  OH        88.5880   56.0660   10.4490 O.3   128  TYR128     -0.2866
     56  N         91.0340   56.4580   16.8540 N.am  129  GLY129     -0.1942
     57  CA        89.7940   55.9980   17.4740 C.3   129  GLY129      0.2014
     58  C         88.6570   56.9220   17.0830 C.2   129  GLY129      0.2638
     59  O         88.8190   58.1410   17.0680 O.2   129  GLY129     -0.2714
     60  N         87.5030   56.3350   16.7800 N.am  130  ALA130     -0.1977
     61  CA        86.3010   57.1230   16.5270 C.3   130  ALA130      0.1597
     62  C         85.1160   56.2530   16.9200 C.2   130  ALA130      0.2287
     63  O         84.8920   55.2080   16.3080 O.2   130  ALA130     -0.2864
     64  CB        86.2190   57.5610   15.0580 C.3   130  ALA130      0.0319
     65  N         80.5360   61.9980   19.7850 N.3   188  TRP188     -0.1241
     66  CA        81.5950   61.1120   19.3170 C.3   188  TRP188      0.1605
     67  C         82.8910   61.3970   20.0670 C.2   188  TRP188      0.2264
     68  O         83.2040   62.5570   20.3720 O.2   188  TRP188     -0.2867
     69  CB        81.8110   61.2760   17.8090 C.3   188  TRP188      0.0550
     70  CG        80.7020   60.6330   17.0300 C.ar  188  TRP188      0.0003
     71  CD1       79.3890   61.0240   16.9840 C.ar  188  TRP188      0.0946
     72  CD2       80.7970   59.4490   16.2320 C.ar  188  TRP188      0.0152
     73  NE1       78.6720   60.1750   16.1850 N.ar  188  TRP188     -0.2442
     74  CE2       79.5040   59.1930   15.7150 C.ar  188  TRP188      0.0810
     75  CE3       81.8480   58.5850   15.8980 C.ar  188  TRP188      0.0012
     76  CZ2       79.2360   58.1140   14.8740 C.ar  188  TRP188      0.0191
     77  CZ3       81.5790   57.5040   15.0630 C.ar  188  TRP188      0.0001
     78  CH2       80.2790   57.2840   14.5590 C.ar  188  TRP188      0.0015
     79  N         87.0460   61.0230   19.7780 N.3   190  TYR190     -0.1227
     80  CA        88.0740   60.9770   18.7340 C.3   190  TYR190      0.1736
     81  C         89.4320   60.8910   19.4100 C.2   190  TYR190      0.2595
     82  O         89.8440   61.8230   20.0950 O.2   190  TYR190     -0.2718
     83  CB        88.0070   62.2140   17.8440 C.3   190  TYR190      0.0548
     84  CG        86.7670   62.2990   16.9770 C.ar  190  TYR190     -0.0200
     85  CD1       86.4560   61.2800   16.0750 C.ar  190  TYR190     -0.0009
     86  CD2       85.9430   63.4140   17.0110 C.ar  190  TYR190     -0.0009
     87  CE1       85.3440   61.3500   15.2630 C.ar  190  TYR190      0.0417
     88  CE2       84.8230   63.4940   16.1940 C.ar  190  TYR190      0.0417
     89  CZ        84.5250   62.4560   15.3400 C.ar  190  TYR190      0.1957
     90  OH        83.4000   62.5890   14.5560 O.3   190  TYR190     -0.2866
     91  N         90.1170   59.7740   19.2250 N.am  191  VAL191     -0.1980
     92  CA        91.4840   59.6410   19.7190 C.3   191  VAL191      0.1595
     93  C         92.4070   59.7960   18.5040 C.2   191  VAL191      0.2287
     94  O         92.3750   58.9690   17.5860 O.2   191  VAL191     -0.2864
     95  CB        91.6950   58.2940   20.4300 C.3   191  VAL191      0.0276
     96  CG1       93.1470   58.1340   20.9070 C.3   191  VAL191      0.0022
     97  CG2       90.7710   58.1940   21.6530 C.3   191  VAL191      0.0022
     98  N         96.5620   61.6450   11.4620 N.3   196  SER196     -0.1202
     99  CA        95.2220   61.0820   11.3510 C.3   196  SER196      0.2020
    100  C         94.2590   62.2030   10.9760 C.2   196  SER196      0.2619
    101  O         94.3990   63.3470   11.4290 O.2   196  SER196     -0.2717
    102  CB        94.8030   60.3820   12.6630 C.3   196  SER196      0.2103
    103  OG        94.6960   61.2730   13.7760 O.3   196  SER196     -0.2182
    104  N         93.2900   61.8890   10.1210 N.am  197  SER197     -0.1937
    105  CA        92.6700   62.9520    9.3530 C.3   197  SER197      0.2055
    106  C         91.1740   62.7560    9.1980 C.2   197  SER197      0.2643
    107  O         90.6970   61.6210    9.0810 O.2   197  SER197     -0.2714
    108  CB        93.3480   63.0290    7.9630 C.3   197  SER197      0.2130
    109  OG        92.7590   64.0770    7.2320 O.3   197  SER197     -0.2179
    110  N         90.4290   63.8620    9.2020 N.am  198  PHE198     -0.1959
    111  CA        89.0130   63.8210    8.8660 C.3   198  PHE198      0.1771
    112  C         88.8100   64.5050    7.5190 C.2   198  PHE198      0.2619
    113  O         89.3290   65.6060    7.2880 O.2   198  PHE198     -0.2715
    114  CB        88.1120   64.4150    9.9740 C.3   198  PHE198      0.0574
    115  CG        88.5620   65.7510   10.5840 C.ar  198  PHE198     -0.0200
    116  CD1       89.6110   65.8200   11.4830 C.ar  198  PHE198     -0.0042
    117  CD2       87.8380   66.9200   10.3220 C.ar  198  PHE198     -0.0042
    118  CE1       89.9850   67.0450   12.0760 C.ar  198  PHE198     -0.0003
    119  CE2       88.1870   68.1510   10.9170 C.ar  198  PHE198     -0.0003
    120  CZ        89.2700   68.2100   11.7880 C.ar  198  PHE198     -0.0000
    121  N         88.1280   63.8040    6.6110 N.am  199  CYS199     -0.1968
    122  CA        87.9390   64.2450    5.2330 C.3   199  CYS199      0.1712
    123  C         86.8850   65.3430    5.1590 C.2   199  CYS199      0.2296
    124  O         86.1050   65.5460    6.0880 O.2   199  CYS199     -0.2864
    125  CB        87.5240   63.0670    4.3480 C.3   199  CYS199      0.0983
    126  SG        88.6650   61.6440    4.4310 S.3   199  CYS199     -0.0798
    127  N         83.6510   67.2200    4.8040 N.3   201  HIS201     -0.1241
    128  CA        82.2590   66.7980    4.9620 C.3   201  HIS201      0.1621
    129  C         81.4470   67.9210    5.5820 C.2   201  HIS201      0.2264
    130  O         81.9900   68.8590    6.1750 O.2   201  HIS201     -0.2867
    131  CB        82.1460   65.5440    5.8470 C.3   201  HIS201      0.0745
    132  CG        82.5080   65.7900    7.2800 C.ar  201  HIS201      0.0817
    133  ND1       83.8200   65.8510    7.7020 N.ar  201  HIS201     -0.2268
    134  CD2       81.7460   66.0100    8.3840 C.ar  201  HIS201      0.1154
    135  CE1       83.8530   66.0980    9.0050 C.ar  201  HIS201      0.1986
    136  NE2       82.6110   66.1910    9.4440 N.ar  201  HIS201     -0.2212
    137  N         77.7720   68.0270    8.1760 N.3   203  GLU203     -0.1245
    138  CA        77.0570   67.1280    9.0760 C.3   203  GLU203      0.1567
    139  C         75.7160   66.7080    8.4700 C.2   203  GLU203      0.2260
    140  O         75.1500   67.3940    7.6060 O.2   203  GLU203     -0.2867
    141  CB        76.8360   67.7840   10.4500 C.3   203  GLU203      0.0388
    142  CG        78.1290   68.2940   11.1170 C.3   203  GLU203      0.1160
    143  CD        79.2600   67.2620   11.1190 C.2   203  GLU203      0.3649
    144  OE1       80.4280   67.6650   10.9730 O.co2 203  GLU203     -0.2457
    145  OE2       78.9930   66.0510   11.2540 O.co2 203  GLU203     -0.2457
    146  N         77.8500   71.5680   14.4820 N.3   209  SER209     -0.1217
    147  CA        78.6140   70.6790   15.3570 C.3   209  SER209      0.1889
    148  C         79.4820   71.5150   16.2860 C.2   209  SER209      0.2288
    149  O         79.7990   72.6760   16.0050 O.2   209  SER209     -0.2866
    150  CB        79.4730   69.6630   14.5850 C.3   209  SER209      0.2089
    151  OG        80.6220   70.2400   13.9760 O.3   209  SER209     -0.2183
    152  N         82.9620   70.8300   18.9770 N.3   211  ASN211     -0.1240
    153  CA        84.0670   69.9180   19.2020 C.3   211  ASN211      0.1653
    154  C         84.9310   70.4870   20.3190 C.2   211  ASN211      0.2266
    155  O         85.3250   71.6600   20.2710 O.2   211  ASN211     -0.2867
    156  CB        84.8990   69.7540   17.9090 C.3   211  ASN211      0.1155
    157  CG        86.0090   68.7260   18.0610 C.2   211  ASN211      0.2627
    158  OD1       86.8990   68.8630   18.9240 O.2   211  ASN211     -0.2716
    159  ND2       85.9530   67.6740   17.2410 N.am  211  ASN211     -0.0877
    160  N         94.5680   70.0920   17.1590 N.3   219  LYS219     -0.1245
    161  CA        93.8250   69.5850   16.0090 C.3   219  LYS219      0.1561
    162  C         93.7640   70.7110   14.9920 C.2   219  LYS219      0.2260
    163  O         93.3170   71.8150   15.3280 O.2   219  LYS219     -0.2867
    164  CB        92.4140   69.1360   16.4250 C.3   219  LYS219      0.0271
    165  CG        91.6320   68.4050   15.3220 C.3   219  LYS219      0.0035
    166  CD        90.1400   68.2100   15.6990 C.3   219  LYS219      0.0206
    167  CE        89.9600   67.2490   16.8810 C.3   219  LYS219      0.1093
    168  NZ        90.5450   65.8860   16.6370 N.3   219  LYS219     -0.1314
    169  N         92.2670   72.4650   11.6830 N.3   221  TRP221     -0.1241
    170  CA        90.9970   72.5060   10.9680 C.3   221  TRP221      0.1605
    171  C         91.0610   73.3750    9.7190 C.2   221  TRP221      0.2264
    172  O         91.7330   74.4070    9.7000 O.2   221  TRP221     -0.2867
    173  CB        89.8950   73.1040   11.8290 C.3   221  TRP221      0.0550
    174  CG        89.5110   72.3540   13.0430 C.ar  221  TRP221      0.0003
    175  CD1       90.2290   72.2240   14.1890 C.ar  221  TRP221      0.0946
    176  CD2       88.2650   71.7010   13.2720 C.ar  221  TRP221      0.0152
    177  NE1       89.5130   71.5020   15.1200 N.ar  221  TRP221     -0.2442
    178  CE2       88.3030   71.1690   14.5760 C.ar  221  TRP221      0.0810
    179  CE3       87.1190   71.5000   12.4900 C.ar  221  TRP221      0.0012
    180  CZ2       87.2340   70.4420   15.1240 C.ar  221  TRP221      0.0191
    181  CZ3       86.0560   70.7710   13.0340 C.ar  221  TRP221      0.0001
    182  CH2       86.1240   70.2560   14.3370 C.ar  221  TRP221      0.0015
    183  N         84.0290   60.2520    0.8290 N.3   255  VAL255     -0.1245
    184  CA        84.6300   61.5380    1.1920 C.3   255  VAL255      0.1561
    185  C         86.1310   61.4520    0.9290 C.2   255  VAL255      0.2260
    186  O         86.6680   60.3870    0.6300 O.2   255  VAL255     -0.2867
    187  CB        84.3600   61.9450    2.6610 C.3   255  VAL255      0.0252
    188  CG1       82.9030   62.3270    2.8690 C.3   255  VAL255      0.0019
    189  CG2       84.7910   60.8360    3.6520 C.3   255  VAL255      0.0019
    190  N         84.1010   71.0430    6.3890 N.3   289  HIS289     -0.1241
    191  CA        85.3130   71.1070    7.1890 C.3   289  HIS289      0.1621
    192  C         86.0850   69.8100    7.0280 C.2   289  HIS289      0.2264
    193  O         85.5100   68.7660    6.7200 O.2   289  HIS289     -0.2867
    194  CB        85.0180   71.3830    8.6830 C.3   289  HIS289      0.0745
    195  CG        83.9970   70.4690    9.3050 C.ar  289  HIS289      0.0817
    196  ND1       82.6370   70.6350    9.1210 N.ar  289  HIS289     -0.2268
    197  CD2       84.1310   69.4260   10.1660 C.ar  289  HIS289      0.1154
    198  CE1       81.9820   69.7180    9.8140 C.ar  289  HIS289      0.1986
    199  NE2       82.8610   68.9680   10.4560 N.ar  289  HIS289     -0.2212
    200  N         95.1350   65.7260   12.9590 N.3   293  ASN293     -0.1240
    201  CA        95.6660   65.8530   14.3020 C.3   293  ASN293      0.1653
    202  C         97.1820   66.0260   14.2720 C.2   293  ASN293      0.2266
    203  O         97.8850   65.3430   13.5170 O.2   293  ASN293     -0.2867
    204  CB        95.2620   64.6300   15.1080 C.3   293  ASN293      0.1155
    205  CG        93.7800   64.6230   15.3750 C.2   293  ASN293      0.2627
    206  OD1       93.2540   65.5710   15.9640 O.2   293  ASN293     -0.2716
    207  ND2       93.0800   63.5850   14.8900 N.am  293  ASN293     -0.0877
@<TRIPOS>BOND
     1   186   185    2
     2   183   184    1
     3    10    11    1
     4   185   184    1
     5   184   187    1
     6    13    12    2
     7    11    12    1
     8    11    14    1
     9    12    19   am
    10   187   188    1
    11   187   189    1
    12    25    23    1
    13    15    14    1
    14    15    16    1
    15    19    20    1
    16    18    16   am
    17    20    23    1
    18    20    21    1
    19    16    17    2
    20    23    24    1
    21   125   126    1
    22   125   122    1
    23   127   128    1
    24   128   129    1
    25   128   131    1
    26   123   122    1
    27   123   124    2
    28    35    34    1
    29   122   121    1
    30    21    26   am
    31    21    22    2
    32   129   130    2
    33    33    34    2
    34    33    32    1
    35    26    27    1
    36   131   132    1
    37    34    36    1
    38   190   191    1
    39    31    32    1
    40    31    30    1
    41   121   112   am
    42     3     4    2
    43     3     2    1
    44   193   192    2
    45   192   191    1
    46   191   194    1
    47   109   108    1
    48    27    30    1
    49    27    28    1
    50   132   133   ar
    51   132   134   ar
    52   113   112    2
    53     6     7    1
    54     6     5    1
    55    29    28    2
    56     2     5    1
    57     2     1    1
    58   112   111    1
    59   140   139    2
    60   133   135   ar
    61     9     7   am
    62   108   105    1
    63    28    37   am
    64     7     8    2
    65   137   138    1
    66   134   136   ar
    67   139   138    1
    68   194   195    1
    69   111   110    1
    70   111   114    1
    71   135   136   ar
    72   138   141    1
    73   107   106    2
    74   196   195   ar
    75   196   198   ar
    76   106   110   am
    77   106   105    1
    78    37    38    1
    79   195   197   ar
    80   105   104    1
    81   172   171    2
    82   171   170    1
    83   198   199   ar
    84   114   115    1
    85    38    39    1
    86    38    41    1
    87   104   100   am
    88   197   199   ar
    89   117   115   ar
    90   117   119   ar
    91    55    54    1
    92   141   142    1
    93   115   116   ar
    94    39    40    2
    95    42    41    1
    96   119   120   ar
    97   170   169    1
    98   170   173    1
    99   144   143   ar
   100   100    99    1
   101   100   101    2
   102   142   143    1
   103   143   145   ar
   104    52    54   ar
   105    52    50   ar
   106    41    43    1
   107    99    98    1
   108    99   102    1
   109    54    53   ar
   110   116   118   ar
   111   120   118   ar
   112   173   174    1
   113    50    49   ar
   114   179   181   ar
   115   179   176   ar
   116    53    51   ar
   117   102   103    1
   118   200   201    1
   119   181   182   ar
   120   174   176   ar
   121   174   175   ar
   122   176   178   ar
   123    49    51   ar
   124    49    48    1
   125   203   202    2
   126   151   150    1
   127   175   177   ar
   128   202   201    1
   129   201   204    1
   130   182   180   ar
   131    48    45    1
   132    44    45    1
   133   146   147    1
   134    90    89    1
   135    78    76   ar
   136    78    77   ar
   137   178   177   ar
   138   178   180   ar
   139   150   147    1
   140    76    74   ar
   141   207   205   am
   142   162   163    2
   143   162   161    1
   144    64    61    1
   145    77    75   ar
   146   204   205    1
   147    45    46    1
   148    87    89   ar
   149    87    85   ar
   150   165   166    1
   151   165   164    1
   152    89    88   ar
   153   147   148    1
   154   205   206    2
   155    47    46    2
   156   166   167    1
   157    74    73   ar
   158    74    72   ar
   159    46    56   am
   160    75    72   ar
   161   149   148    2
   162   161   164    1
   163   161   160    1
   164    85    84   ar
   165    73    71   ar
   166    88    86   ar
   167    72    70   ar
   168    63    62    2
   169    61    60    1
   170    61    62    1
   171   168   167    1
   172    60    58   am
   173    56    57    1
   174    84    86   ar
   175    84    83    1
   176    71    70   ar
   177    70    69    1
   178    59    58    2
   179    58    57    1
   180   159   157   am
   181    94    93    2
   182    69    66    1
   183    83    80    1
   184   156   157    1
   185   156   153    1
   186   157   158    2
   187    93    92    1
   188    80    81    1
   189    80    79    1
   190   152   153    1
   191   153   154    1
   192    91    81   am
   193    91    92    1
   194    66    65    1
   195    66    67    1
   196    81    82    2
   197    92    95    1
   198    67    68    2
   199   155   154    2
   200    95    96    1
   201    95    97    1
