@<TRIPOS>MOLECULE
tmp/6ej1A00.pdb
 212 204 0 0 0
SMALL
GASTEIGER

@<TRIPOS>ATOM
      1  N         91.5880   52.5460   14.0860 N.3    62  ARG62      -0.1245
      2  CA        91.4350   52.6670   12.6410 C.3    62  ARG62       0.1563
      3  C         92.7720   53.0270   11.9970 C.2    62  ARG62       0.2260
      4  O         93.6370   53.6470   12.6250 O.2    62  ARG62      -0.2867
      5  CB        90.3770   53.7120   12.3020 C.3    62  ARG62       0.0307
      6  CG        89.0040   53.3160   12.8230 C.3    62  ARG62       0.0489
      7  CD        88.0760   54.4900   12.9320 C.3    62  ARG62       0.2205
      8  NE        86.9600   54.1960   13.8250 N.pl3  62  ARG62      -0.0865
      9  CZ        85.6860   54.2010   13.4510 C.cat  62  ARG62       0.5346
     10  NH1       85.3690   54.4820   12.1940 N.pl3  62  ARG62       0.1354
     11  NH2       84.7300   53.9220   14.3270 N.pl3  62  ARG62       0.1354
     12  N         86.7360   55.9490    3.2770 N.3    73  THR73      -0.1203
     13  CA        85.3500   55.6940    3.6500 C.3    73  THR73       0.1994
     14  C         84.9990   56.3640    4.9800 C.2    73  THR73       0.2617
     15  O         85.8430   56.5050    5.8670 O.2    73  THR73      -0.2717
     16  CB        85.0850   54.1860    3.7440 C.3    73  THR73       0.1784
     17  OG1       85.7940   53.6480    4.8670 O.3    73  THR73      -0.2211
     18  CG2       85.5410   53.4700    2.4750 C.3    73  THR73       0.0376
     19  N         83.7310   56.7590    5.1210 N.am   74  ARG74      -0.1979
     20  CA        83.2630   57.4460    6.3360 C.3    74  ARG74       0.1597
     21  C         82.9580   56.4910    7.5020 C.2    74  ARG74       0.2287
     22  O         82.7930   55.2830    7.3180 O.2    74  ARG74      -0.2864
     23  CB        82.0160   58.2870    6.0300 C.3    74  ARG74       0.0334
     24  CG        81.6330   59.1550    7.2050 C.3    74  ARG74       0.0492
     25  CD        80.6210   60.1460    6.7580 C.3    74  ARG74       0.2205
     26  NE        80.2150   60.9570    7.8990 N.pl3  74  ARG74      -0.0865
     27  CZ        79.3880   61.9920    7.8090 C.cat  74  ARG74       0.5346
     28  NH1       78.8340   62.3410    6.6170 N.pl3  74  ARG74       0.1354
     29  NH2       79.1130   62.6700    8.9330 N.pl3  74  ARG74       0.1354
     30  N         94.4250   55.8150   14.5770 N.3   125  TYR125     -0.1227
     31  CA        93.7470   56.7570   15.4540 C.3   125  TYR125      0.1736
     32  C         92.5200   56.0660   16.0220 C.2   125  TYR125      0.2596
     33  O         92.1220   54.9920   15.5650 O.2   125  TYR125     -0.2718
     34  CB        93.3450   58.0360   14.7060 C.3   125  TYR125      0.0548
     35  CG        92.4050   57.7730   13.5520 C.ar  125  TYR125     -0.0200
     36  CD1       92.8980   57.3710   12.3150 C.ar  125  TYR125     -0.0009
     37  CD2       91.0310   57.9040   13.7020 C.ar  125  TYR125     -0.0009
     38  CE1       92.0380   57.1020   11.2590 C.ar  125  TYR125      0.0417
     39  CE2       90.1680   57.6580   12.6410 C.ar  125  TYR125      0.0417
     40  CZ        90.6790   57.2540   11.4280 C.ar  125  TYR125      0.1957
     41  OH        89.8220   57.0060   10.3730 O.3   125  TYR125     -0.2866
     42  N         91.9120   56.7040   17.0110 N.am  126  GLY126     -0.1942
     43  CA        90.6580   56.2370   17.5800 C.3   126  GLY126      0.2014
     44  C         89.5290   57.2090   17.2930 C.2   126  GLY126      0.2638
     45  O         89.7080   58.4220   17.4020 O.2   126  GLY126     -0.2714
     46  N         88.3580   56.6680   16.9480 N.am  127  ALA127     -0.1977
     47  CA        87.1610   57.4870   16.7610 C.3   127  ALA127      0.1597
     48  C         85.9270   56.6340   17.0370 C.2   127  ALA127      0.2287
     49  O         85.6830   55.6750   16.3010 O.2   127  ALA127     -0.2864
     50  CB        87.1200   58.0690   15.3340 C.3   127  ALA127      0.0319
     51  N         73.9980   58.8650   16.5660 N.3   180  GLY180     -0.1225
     52  CA        75.0300   59.6350   15.8920 C.3   180  GLY180      0.1811
     53  C         74.9960   61.1290   16.1570 C.2   180  GLY180      0.2280
     54  O         76.0030   61.8040   15.9210 O.2   180  GLY180     -0.2866
     55  N         81.2650   62.1550   20.2720 N.3   185  TRP185     -0.1241
     56  CA        82.3110   61.2980   19.7440 C.3   185  TRP185      0.1605
     57  C         83.6120   61.6200   20.4630 C.2   185  TRP185      0.2264
     58  O         83.8580   62.7710   20.8270 O.2   185  TRP185     -0.2867
     59  CB        82.4840   61.5190   18.2390 C.3   185  TRP185      0.0550
     60  CG        81.4060   60.8780   17.4120 C.ar  185  TRP185      0.0003
     61  CD1       80.0990   61.2730   17.3010 C.ar  185  TRP185      0.0946
     62  CD2       81.5530   59.7350   16.5690 C.ar  185  TRP185      0.0152
     63  NE1       79.4300   60.4430   16.4380 N.ar  185  TRP185     -0.2442
     64  CE2       80.2980   59.4850   15.9830 C.ar  185  TRP185      0.0810
     65  CE3       82.6260   58.8910   16.2600 C.ar  185  TRP185      0.0012
     66  CZ2       80.0880   58.4270   15.1060 C.ar  185  TRP185      0.0191
     67  CZ3       82.4180   57.8430   15.3890 C.ar  185  TRP185      0.0001
     68  CH2       81.1580   57.6180   14.8220 C.ar  185  TRP185      0.0015
     69  N         87.8720   61.2110   20.1890 N.3   187  TYR187     -0.1227
     70  CA        88.8940   61.1620   19.1360 C.3   187  TYR187      0.1736
     71  C         90.2860   61.1110   19.7560 C.2   187  TYR187      0.2595
     72  O         90.7250   62.0860   20.3770 O.2   187  TYR187     -0.2718
     73  CB        88.7890   62.3840   18.2340 C.3   187  TYR187      0.0548
     74  CG        87.5080   62.5160   17.4250 C.ar  187  TYR187     -0.0200
     75  CD1       87.0970   61.5110   16.5500 C.ar  187  TYR187     -0.0009
     76  CD2       86.7470   63.6780   17.4910 C.ar  187  TYR187     -0.0009
     77  CE1       85.9440   61.6510   15.7860 C.ar  187  TYR187      0.0417
     78  CE2       85.5870   63.8270   16.7290 C.ar  187  TYR187      0.0417
     79  CZ        85.1890   62.8060   15.8870 C.ar  187  TYR187      0.1957
     80  OH        84.0360   62.9530   15.1530 O.3   187  TYR187     -0.2866
     81  N         90.9920   60.0020   19.5720 N.am  188  VAL188     -0.1966
     82  CA        92.3510   59.8470   20.0790 C.3   188  VAL188      0.1727
     83  C         93.3050   60.0100   18.8970 C.2   188  VAL188      0.2616
     84  O         93.3230   59.1750   17.9820 O.2   188  VAL188     -0.2715
     85  CB        92.5360   58.4930   20.7770 C.3   188  VAL188      0.0290
     86  CG1       93.9710   58.3370   21.2730 C.3   188  VAL188      0.0023
     87  CG2       91.5410   58.3540   21.9300 C.3   188  VAL188      0.0023
     88  N         94.0910   61.1010   18.8820 N.am  189  GLY189     -0.1955
     89  CA        94.9190   61.4240   17.7310 C.3   189  GLY189      0.1869
     90  C         96.3910   61.1050   17.9200 C.2   189  GLY189      0.2309
     91  O         96.8800   60.9480   19.0440 O.2   189  GLY189     -0.2863
     92  N         97.4830   62.0220   11.8710 N.3   193  SER193     -0.1202
     93  CA        96.1580   61.4430   11.6930 C.3   193  SER193      0.2020
     94  C         95.2090   62.5810   11.3190 C.2   193  SER193      0.2619
     95  O         95.2930   63.6720   11.8830 O.2   193  SER193     -0.2717
     96  CB        95.6920   60.7040   12.9650 C.3   193  SER193      0.2103
     97  OG        95.5510   61.5740   14.1000 O.3   193  SER193     -0.2182
     98  N         94.3350   62.3610   10.3290 N.am  194  SER194     -0.1937
     99  CA        93.6050   63.4950    9.7660 C.3   194  SER194      0.2055
    100  C         92.1340   63.1840    9.5380 C.2   194  SER194      0.2643
    101  O         91.7310   62.0280    9.3480 O.2   194  SER194     -0.2714
    102  CB        94.2180   63.9470    8.4230 C.3   194  SER194      0.2130
    103  OG        94.5890   62.8260    7.6950 O.3   194  SER194     -0.2179
    104  N         91.3230   64.2430    9.5380 N.am  195  PHE195     -0.1973
    105  CA        89.9170   64.1410    9.1630 C.3   195  PHE195      0.1639
    106  C         89.7160   64.7940    7.7990 C.2   195  PHE195      0.2290
    107  O         90.1610   65.9270    7.5770 O.2   195  PHE195     -0.2864
    108  CB        88.9630   64.7450   10.2200 C.3   195  PHE195      0.0560
    109  CG        89.3920   66.0790   10.8300 C.ar  195  PHE195     -0.0200
    110  CD1       90.4720   66.1590   11.7310 C.ar  195  PHE195     -0.0042
    111  CD2       88.6430   67.2350   10.5900 C.ar  195  PHE195     -0.0042
    112  CE1       90.8350   67.3730   12.3310 C.ar  195  PHE195     -0.0003
    113  CE2       89.0000   68.4670   11.1990 C.ar  195  PHE195     -0.0003
    114  CZ        90.1000   68.5280   12.0610 C.ar  195  PHE195     -0.0000
    115  N         84.5610   67.5040    4.9960 N.3   198  HIS198     -0.1241
    116  CA        83.1590   67.1070    5.1350 C.3   198  HIS198      0.1621
    117  C         82.3380   68.2480    5.7300 C.2   198  HIS198      0.2264
    118  O         82.8720   69.2070    6.3000 O.2   198  HIS198     -0.2867
    119  CB        83.0160   65.8690    6.0340 C.3   198  HIS198      0.0745
    120  CG        83.3110   66.1460    7.4790 C.ar  198  HIS198      0.0817
    121  ND1       84.5980   66.2960    7.9540 N.ar  198  HIS198     -0.2268
    122  CD2       82.4940   66.3070    8.5510 C.ar  198  HIS198      0.1154
    123  CE1       84.5590   66.5410    9.2550 C.ar  198  HIS198      0.1986
    124  NE2       83.2940   66.5660    9.6390 N.ar  198  HIS198     -0.2212
    125  N         78.5700   68.3730    8.3300 N.3   200  GLU200     -0.1231
    126  CA        77.8670   67.4780    9.2610 C.3   200  GLU200      0.1699
    127  C         76.5060   67.0540    8.7030 C.2   200  GLU200      0.2592
    128  O         75.9290   67.7140    7.8340 O.2   200  GLU200     -0.2718
    129  CB        77.6600   68.1260   10.6340 C.3   200  GLU200      0.0402
    130  CG        78.9010   68.7920   11.1350 C.3   200  GLU200      0.1161
    131  CD        79.9980   67.7860   11.4130 C.2   200  GLU200      0.3649
    132  OE1       81.1740   68.1180   11.2400 O.co2 200  GLU200     -0.2457
    133  OE2       79.6850   66.6500   11.8010 O.co2 200  GLU200     -0.2457
    134  N         76.0140   65.9140    9.1910 N.am  201  ASP201     -0.1974
    135  CA        74.7070   65.4240    8.7580 C.3   201  ASP201      0.1709
    136  C         73.6430   66.4860    9.0160 C.2   201  ASP201      0.2293
    137  O         73.6660   67.1740   10.0430 O.2   201  ASP201     -0.2864
    138  CB        74.3440   64.1340    9.5000 C.3   201  ASP201      0.1436
    139  CG        75.1580   62.9300    9.0300 C.2   201  ASP201      0.3671
    140  OD1       75.6260   62.9450    7.8750 O.co2 201  ASP201     -0.2456
    141  OD2       75.3290   61.9720    9.8230 O.co2 201  ASP201     -0.2456
    142  N         78.5860   71.9210   14.7760 N.3   206  SER206     -0.1217
    143  CA        79.3250   71.0340   15.6680 C.3   206  SER206      0.1889
    144  C         80.2280   71.8500   16.5940 C.2   206  SER206      0.2288
    145  O         80.6170   72.9820   16.2870 O.2   206  SER206     -0.2866
    146  CB        80.1610   69.9840   14.9110 C.3   206  SER206      0.2089
    147  OG        81.3440   70.5470   14.3390 O.3   206  SER206     -0.2183
    148  N         83.7010   71.1590   19.2080 N.3   208  ASN208     -0.1240
    149  CA        84.7890   70.2300   19.5010 C.3   208  ASN208      0.1653
    150  C         85.6150   70.8060   20.6450 C.2   208  ASN208      0.2266
    151  O         85.9850   71.9870   20.6240 O.2   208  ASN208     -0.2867
    152  CB        85.6660   69.9890   18.2350 C.3   208  ASN208      0.1155
    153  CG        86.8330   68.9760   18.4650 C.2   208  ASN208      0.2627
    154  OD1       87.7290   69.1960   19.2840 O.2   208  ASN208     -0.2716
    155  ND2       86.8430   67.8970   17.6740 N.am  208  ASN208     -0.0877
    156  N         95.5240   70.4400   17.5740 N.3   216  LYS216     -0.1245
    157  CA        94.7790   69.9470   16.4170 C.3   216  LYS216      0.1561
    158  C         94.6600   71.0910   15.4120 C.2   216  LYS216      0.2260
    159  O         94.1810   72.1750   15.7620 O.2   216  LYS216     -0.2867
    160  CB        93.3830   69.4250   16.8410 C.3   216  LYS216      0.0271
    161  CG        92.5080   68.9470   15.6480 C.3   216  LYS216      0.0035
    162  CD        91.0360   68.5430   16.0420 C.3   216  LYS216      0.0206
    163  CE        90.9890   67.7050   17.3100 C.3   216  LYS216      0.1093
    164  NZ        91.3150   66.2750   16.9990 N.3   216  LYS216     -0.1314
    165  N         93.1980   72.9160   12.0550 N.3   218  TRP218     -0.1241
    166  CA        91.9330   72.9390   11.3140 C.3   218  TRP218      0.1605
    167  C         91.9930   73.8410   10.0850 C.2   218  TRP218      0.2264
    168  O         92.6790   74.8810   10.0810 O.2   218  TRP218     -0.2867
    169  CB        90.7660   73.4730   12.1700 C.3   218  TRP218      0.0550
    170  CG        90.3460   72.6930   13.3780 C.ar  218  TRP218      0.0003
    171  CD1       91.0350   72.5560   14.5610 C.ar  218  TRP218      0.0946
    172  CD2       89.0830   72.0320   13.5730 C.ar  218  TRP218      0.0152
    173  NE1       90.3050   71.8060   15.4470 N.ar  218  TRP218     -0.2442
    174  CE2       89.0980   71.4840   14.8720 C.ar  218  TRP218      0.0810
    175  CE3       87.9550   71.8130   12.7450 C.ar  218  TRP218      0.0012
    176  CZ2       88.0280   70.7450   15.3880 C.ar  218  TRP218      0.0191
    177  CZ3       86.8720   71.0870   13.2670 C.ar  218  TRP218      0.0001
    178  CH2       86.9200   70.5610   14.5720 C.ar  218  TRP218      0.0015
    179  N         76.5640   54.5540    5.2940 N.3   248  LEU248     -0.1245
    180  CA        77.8460   54.0710    5.7900 C.3   248  LEU248      0.1561
    181  C         78.8640   53.8730    4.6710 C.2   248  LEU248      0.2260
    182  O         79.9380   53.3120    4.9150 O.2   248  LEU248     -0.2867
    183  CB        77.6520   52.7570    6.5560 C.3   248  LEU248      0.0270
    184  CG        76.9470   52.8560    7.9080 C.3   248  LEU248      0.0019
    185  CD1       76.7200   51.4600    8.4380 C.3   248  LEU248      0.0001
    186  CD2       77.7530   53.6400    8.9110 C.3   248  LEU248      0.0001
    187  N         84.9670   71.4560    6.5800 N.3   286  HIS286     -0.1241
    188  CA        86.1810   71.5200    7.3930 C.3   286  HIS286      0.1621
    189  C         86.9800   70.2260    7.2690 C.2   286  HIS286      0.2264
    190  O         86.4420   69.1710    6.9270 O.2   286  HIS286     -0.2867
    191  CB        85.8780   71.8030    8.8880 C.3   286  HIS286      0.0745
    192  CG        84.8350   70.9070    9.4900 C.ar  286  HIS286      0.0817
    193  ND1       83.4880   71.0540    9.2290 N.ar  286  HIS286     -0.2268
    194  CD2       84.9370   69.8850   10.3770 C.ar  286  HIS286      0.1154
    195  CE1       82.8060   70.1530    9.9150 C.ar  286  HIS286      0.1986
    196  NE2       83.6580   69.4370   10.6280 N.ar  286  HIS286     -0.2212
    197  N         96.0080   66.1020   13.3260 N.3   290  ASN290     -0.1240
    198  CA        96.5140   66.1850   14.6760 C.3   290  ASN290      0.1653
    199  C         98.0330   66.3670   14.6450 C.2   290  ASN290      0.2266
    200  O         98.7180   65.7570   13.8200 O.2   290  ASN290     -0.2867
    201  CB        96.1020   64.9080   15.4150 C.3   290  ASN290      0.1155
    202  CG        94.6060   64.8480   15.6350 C.2   290  ASN290      0.2627
    203  OD1       94.0350   65.7630   16.2310 O.2   290  ASN290     -0.2716
    204  ND2       93.9580   63.8070   15.1230 N.am  290  ASN290     -0.0877
    205  N         77.3580   67.1500   17.6940 N.3   300  ASN300     -0.1240
    206  CA        76.5210   67.9530   16.8070 C.3   300  ASN300      0.1653
    207  C         75.4690   68.6870   17.6190 C.2   300  ASN300      0.2266
    208  O         75.0860   68.2400   18.6950 O.2   300  ASN300     -0.2867
    209  CB        75.8240   67.0710   15.7720 C.3   300  ASN300      0.1155
    210  CG        76.7900   66.4820   14.7800 C.2   300  ASN300      0.2627
    211  OD1       77.5470   67.2060   14.1320 O.2   300  ASN300     -0.2716
    212  ND2       76.7990   65.1700   14.6750 N.am  300  ASN300     -0.0877
@<TRIPOS>BOND
     1    18    16    1
     2    12    13    1
     3    13    16    1
     4    13    14    1
     5    16    17    1
     6   181   182    2
     7   181   180    1
     8    14    19   am
     9    14    15    2
    10   115   116    1
    11    19    20    1
    12   116   117    1
    13   116   119    1
    14   179   180    1
    15   117   118    2
    16   180   183    1
    17    23    20    1
    18    23    24    1
    19   119   120    1
    20    20    21    1
    21   183   184    1
    22   187   188    1
    23    28    27    1
    24    25    24    1
    25    25    26    1
    26   190   189    2
    27   189   188    1
    28    22    21    2
    29   188   191    1
    30   120   121   ar
    31   120   122   ar
    32   107   106    2
    33   103   102    1
    34   106   105    1
    35    27    26    2
    36    27    29    1
    37   128   127    2
    38   140   139   ar
    39   184   185    1
    40   184   186    1
    41   121   123   ar
    42   125   126    1
    43   102    99    1
    44   122   124   ar
    45   127   134   am
    46   127   126    1
    47   135   136    1
    48   135   134    1
    49   135   138    1
    50   191   192    1
    51   136   137    2
    52   139   138    1
    53   139   141   ar
    54   105   104    1
    55   105   108    1
    56   193   192   ar
    57   193   195   ar
    58   123   124   ar
    59   126   129    1
    60   101   100    2
    61   192   194   ar
    62   100   104   am
    63   100    99    1
    64    99    98    1
    65   195   196   ar
    66   168   167    2
    67   167   166    1
    68   108   109    1
    69    98    94   am
    70    41    40    1
    71   194   196   ar
    72   111   109   ar
    73   111   113   ar
    74   129   130    1
    75   109   110   ar
    76   130   131    1
    77   113   114   ar
    78   132   131   ar
    79    38    40   ar
    80    38    36   ar
    81   166   165    1
    82   166   169    1
    83    94    93    1
    84    94    95    2
    85   131   133   ar
    86    40    39   ar
    87    93    92    1
    88    93    96    1
    89   110   112   ar
    90     3     4    2
    91     3     2    1
    92   114   112   ar
    93   169   170    1
    94    10     9    1
    95     5     2    1
    96     5     6    1
    97    36    35   ar
    98    39    37   ar
    99     2     1    1
   100   175   177   ar
   101   175   172   ar
   102     6     7    1
   103     7     8    1
   104    96    97    1
   105   177   178   ar
   106   197   198    1
   107   170   172   ar
   108   170   171   ar
   109     9     8    2
   110     9    11    1
   111    35    37   ar
   112    35    34    1
   113   172   174   ar
   114   200   199    2
   115   211   210    2
   116   147   146    1
   117   171   173   ar
   118   178   176   ar
   119    30    31    1
   120   199   198    1
   121   212   210   am
   122   198   201    1
   123    34    31    1
   124   142   143    1
   125   210   209    1
   126    68    66   ar
   127    68    67   ar
   128   174   176   ar
   129   174   173   ar
   130   146   143    1
   131    66    64   ar
   132   204   202   am
   133    80    79    1
   134    50    47    1
   135    67    65   ar
   136   158   159    2
   137   158   157    1
   138   201   202    1
   139    31    32    1
   140    33    32    2
   141   202   203    2
   142   161   162    1
   143   161   160    1
   144   143   144    1
   145   209   206    1
   146    77    79   ar
   147    77    75   ar
   148    79    78   ar
   149    52    53    1
   150    52    51    1
   151    54    53    2
   152    64    63   ar
   153    64    62   ar
   154    32    42   am
   155   162   163    1
   156    65    62   ar
   157   145   144    2
   158    49    48    2
   159   157   160    1
   160   157   156    1
   161    63    61   ar
   162    75    74   ar
   163    62    60   ar
   164    78    76   ar
   165    47    46    1
   166    47    48    1
   167   206   207    1
   168   206   205    1
   169    46    44   am
   170   164   163    1
   171    42    43    1
   172    44    45    2
   173    44    43    1
   174    61    60   ar
   175    60    59    1
   176    74    76   ar
   177    74    73    1
   178   207   208    2
   179   155   153   am
   180    89    90    1
   181    89    88    1
   182    90    91    2
   183    84    83    2
   184    73    70    1
   185   152   153    1
   186   152   149    1
   187    59    56    1
   188   153   154    2
   189    88    83   am
   190    83    82    1
   191    70    71    1
   192    70    69    1
   193   148   149    1
   194   149   150    1
   195    81    71   am
   196    81    82    1
   197    56    55    1
   198    56    57    1
   199    71    72    2
   200    82    85    1
   201    57    58    2
   202   151   150    2
   203    85    86    1
   204    85    87    1
