@<TRIPOS>MOLECULE
tmp/6ej2A00.pdb
 212 203 0 0 0
SMALL
GASTEIGER

@<TRIPOS>ATOM
      1  N        -26.0700  -45.2780    0.1490 N.3    16  GLY16      -0.1210
      2  CA       -25.5270  -45.3310   -1.2060 C.3    16  GLY16       0.1956
      3  C        -25.5760  -44.0320   -1.9920 C.2    16  GLY16       0.2612
      4  O        -25.0810  -43.9860   -3.1240 O.2    16  GLY16      -0.2717
      5  N        -26.1480  -42.9630   -1.4020 N.am   17  GLN17      -0.1965
      6  CA       -26.2860  -41.6660   -2.0750 C.3    17  GLN17       0.1733
      7  C        -25.2750  -40.6000   -1.6150 C.2    17  GLN17       0.2616
      8  O        -25.4000  -39.4320   -1.9930 O.2    17  GLN17      -0.2715
      9  CB       -27.7220  -41.1450   -1.9570 C.3    17  GLN17       0.0408
     10  CG       -28.7470  -42.0590   -2.6300 C.3    17  GLN17       0.0908
     11  CD       -30.1520  -41.5140   -2.6090 C.2    17  GLN17       0.2608
     12  OE1      -30.4720  -40.5400   -1.9160 O.2    17  GLN17      -0.2717
     13  NE2      -31.0370  -42.1610   -3.3530 N.am   17  GLN17      -0.0878
     14  N        -24.2830  -41.0200   -0.8350 N.am   18  GLY18      -0.1955
     15  CA       -23.2330  -40.1430   -0.3280 C.3    18  GLY18       0.1869
     16  C        -23.6560  -39.2720    0.8420 C.2    18  GLY18       0.2309
     17  O        -24.8100  -39.3110    1.2850 O.2    18  GLY18      -0.2863
     18  N        -22.7940  -32.6010   -1.8100 N.3    35  LEU35      -0.1245
     19  CA       -22.0620  -33.8540   -1.5860 C.3    35  LEU35       0.1561
     20  C        -20.5930  -33.5600   -1.2700 C.2    35  LEU35       0.2260
     21  O        -19.9410  -32.8010   -1.9900 O.2    35  LEU35      -0.2867
     22  CB       -22.1400  -34.7330   -2.8500 C.3    35  LEU35       0.0270
     23  CG       -21.5110  -36.1230   -2.7670 C.3    35  LEU35       0.0019
     24  CD1      -22.5280  -37.1450   -2.3350 C.3    35  LEU35       0.0001
     25  CD2      -20.9610  -36.5540   -4.1240 C.3    35  LEU35       0.0001
     26  N        -16.9850  -34.6260   -1.3560 N.3    37  ASP37      -0.1239
     27  CA       -16.2510  -35.5410   -2.2120 C.3    37  ASP37       0.1674
     28  C        -14.7600  -35.3330   -2.1980 C.2    37  ASP37       0.2266
     29  O        -14.2520  -34.4500   -2.8830 O.2    37  ASP37      -0.2867
     30  CB       -16.7940  -35.4290   -3.6480 C.3    37  ASP37       0.1410
     31  CG       -16.2330  -36.4060   -4.6690 C.2    37  ASP37       0.3668
     32  OD1      -15.6060  -37.4140   -4.2540 O.co2  37  ASP37      -0.2456
     33  OD2      -16.4830  -36.2030   -5.8820 O.co2  37  ASP37      -0.2456
     34  N        -12.7310  -37.2450   -3.6200 N.3    39  GLY39      -0.1210
     35  CA       -12.2160  -37.8380   -4.8510 C.3    39  GLY39       0.1956
     36  C        -12.2480  -36.9500   -6.0810 C.2    39  GLY39       0.2613
     37  O        -11.9460  -37.4230   -7.1810 O.2    39  GLY39      -0.2717
     38  N        -12.6210  -35.6630   -5.9140 N.am   40  SER40      -0.1938
     39  CA       -12.6900  -34.6780   -7.0010 C.3    40  SER40       0.2055
     40  C        -12.3260  -33.2820   -6.4670 C.2    40  SER40       0.2644
     41  O        -12.1860  -33.1270   -5.2440 O.2    40  SER40      -0.2714
     42  CB       -14.0570  -34.7000   -7.6820 C.3    40  SER40       0.2130
     43  OG       -15.0460  -34.1290   -6.8450 O.3    40  SER40      -0.2179
     44  N        -12.1910  -32.2720   -7.3670 N.am   41  SER41      -0.1935
     45  CA       -11.6900  -30.9510   -6.9900 C.3    41  SER41       0.2055
     46  C        -12.5020  -29.7290   -7.4550 C.2    41  SER41       0.2643
     47  O        -12.0560  -28.5880   -7.2550 O.2    41  SER41      -0.2714
     48  CB       -10.2470  -30.8200   -7.4590 C.3    41  SER41       0.2130
     49  OG        -9.5170  -31.8710   -6.8410 O.3    41  SER41      -0.2179
     50  N        -13.6950  -29.9530   -8.0200 N.am   42  ASN42      -0.1971
     51  CA       -14.5530  -28.8580   -8.4500 C.3    42  ASN42       0.1688
     52  C        -15.6940  -28.6480   -7.4720 C.2    42  ASN42       0.2292
     53  O        -16.2220  -29.6200   -6.9100 O.2    42  ASN42      -0.2864
     54  CB       -15.1520  -29.1540   -9.8200 C.3    42  ASN42       0.1181
     55  CG       -14.1910  -28.9420  -10.9540 C.2    42  ASN42       0.2629
     56  OD1      -13.4100  -29.8250  -11.3030 O.2    42  ASN42      -0.2716
     57  ND2      -14.2400  -27.7640  -11.5660 N.am   42  ASN42      -0.0877
     58  N        -19.1520  -27.8280   -7.9600 N.3    44  ALA44      -0.1245
     59  CA       -20.0890  -27.8720   -9.0870 C.3    44  ALA44       0.1562
     60  C        -21.4970  -27.9900   -8.5310 C.2    44  ALA44       0.2260
     61  O        -21.7570  -28.8980   -7.7380 O.2    44  ALA44      -0.2867
     62  CB       -19.7570  -29.0610   -9.9730 C.3    44  ALA44       0.0290
     63  N        -17.4690  -32.1830  -18.7440 N.3    74  VAL74      -0.1245
     64  CA       -16.8050  -33.1750  -17.9110 C.3    74  VAL74       0.1561
     65  C        -17.3800  -34.5910  -18.0740 C.2    74  VAL74       0.2260
     66  O        -18.3310  -34.9630  -17.3810 O.2    74  VAL74      -0.2867
     67  CB       -16.7710  -32.7200  -16.4130 C.3    74  VAL74       0.0252
     68  CG1      -16.0000  -33.7080  -15.5320 C.3    74  VAL74       0.0019
     69  CG2      -16.1930  -31.3150  -16.2770 C.3    74  VAL74       0.0019
     70  N        -17.1730  -38.6840  -17.4320 N.3    76  TYR76      -0.1227
     71  CA       -16.5920  -39.5830  -16.4170 C.3    76  TYR76       0.1736
     72  C        -17.1870  -40.9770  -16.5640 C.2    76  TYR76       0.2596
     73  O        -18.1090  -41.1620  -17.3580 O.2    76  TYR76      -0.2718
     74  CB       -16.7300  -39.0380  -14.9720 C.3    76  TYR76       0.0548
     75  CG       -18.1560  -38.7800  -14.5340 C.ar   76  TYR76      -0.0200
     76  CD1      -18.7590  -37.5450  -14.7470 C.ar   76  TYR76      -0.0009
     77  CD2      -18.8930  -39.7610  -13.8760 C.ar   76  TYR76      -0.0009
     78  CE1      -20.0660  -37.2990  -14.3360 C.ar   76  TYR76       0.0417
     79  CE2      -20.2100  -39.5340  -13.4840 C.ar   76  TYR76       0.0417
     80  CZ       -20.7880  -38.2980  -13.7080 C.ar   76  TYR76       0.1957
     81  OH       -22.0790  -38.0660  -13.3160 O.3    76  TYR76      -0.2866
     82  N        -16.6540  -41.9630  -15.8240 N.am   77  THR77      -0.1939
     83  CA       -17.1930  -43.3190  -15.8830 C.3    77  THR77       0.2028
     84  C        -18.4130  -43.3360  -14.9980 C.2    77  THR77       0.2642
     85  O        -18.2900  -43.1990  -13.7750 O.2    77  THR77      -0.2714
     86  CB       -16.1450  -44.3810  -15.5200 C.3    77  THR77       0.1808
     87  OG1      -15.5310  -44.0360  -14.2760 O.3    77  THR77      -0.2208
     88  CG2      -15.0970  -44.5620  -16.6100 C.3    77  THR77       0.0379
     89  N        -19.5930  -43.3900  -15.6500 N.am   78  GLN78      -0.1976
     90  CA       -20.9700  -43.4190  -15.1380 C.3    78  GLN78       0.1601
     91  C        -21.8380  -42.2810  -15.7120 C.2    78  GLN78       0.2287
     92  O        -23.0560  -42.3860  -15.6270 O.2    78  GLN78      -0.2864
     93  CB       -21.0870  -43.5020  -13.5930 C.3    78  GLN78       0.0394
     94  CG       -20.9570  -44.9320  -13.0640 C.3    78  GLN78       0.0908
     95  CD       -20.7890  -45.0250  -11.5730 C.2    78  GLN78       0.2608
     96  OE1      -19.6880  -44.8590  -11.0370 O.2    78  GLN78      -0.2717
     97  NE2      -21.8600  -45.3760  -10.8780 N.am   78  GLN78      -0.0878
     98  N        -21.2450  -34.1290  -16.9060 N.3    81  TRP81      -0.1241
     99  CA       -21.7980  -32.8440  -16.4920 C.3    81  TRP81       0.1605
    100  C        -21.1690  -31.7280  -17.2760 C.2    81  TRP81       0.2264
    101  O        -20.0050  -31.8250  -17.6620 O.2    81  TRP81      -0.2867
    102  CB       -21.7750  -32.5930  -14.9790 C.3    81  TRP81       0.0550
    103  CG       -20.4200  -32.3880  -14.3700 C.ar   81  TRP81       0.0003
    104  CD1      -19.6450  -33.3350  -13.7620 C.ar   81  TRP81       0.0946
    105  CD2      -19.7550  -31.1340  -14.1630 C.ar   81  TRP81       0.0152
    106  NE1      -18.5240  -32.7540  -13.2180 N.ar   81  TRP81      -0.2442
    107  CE2      -18.5670  -31.4020  -13.4440 C.ar   81  TRP81       0.0810
    108  CE3      -20.0390  -29.8070  -14.5300 C.ar   81  TRP81       0.0012
    109  CZ2      -17.6580  -30.3950  -13.0950 C.ar   81  TRP81       0.0191
    110  CZ3      -19.1390  -28.8080  -14.1820 C.ar   81  TRP81       0.0001
    111  CH2      -17.9490  -29.1080  -13.5000 C.ar   81  TRP81       0.0015
    112  N        -26.6880  -38.9210  -15.7040 N.3   112  LYS112     -0.1231
    113  CA       -26.3440  -39.8500  -14.6210 C.3   112  LYS112      0.1693
    114  C        -25.4190  -39.1850  -13.5690 C.2   112  LYS112      0.2592
    115  O        -24.5090  -39.8150  -13.0220 O.2   112  LYS112     -0.2718
    116  CB       -25.7630  -41.1630  -15.1890 C.3   112  LYS112      0.0285
    117  CG       -26.6560  -41.8230  -16.2450 C.3   112  LYS112      0.0035
    118  CD       -26.1810  -43.2210  -16.6160 C.3   112  LYS112      0.0206
    119  CE       -26.9600  -43.8000  -17.7770 C.3   112  LYS112      0.1093
    120  NZ       -28.3940  -44.0440  -17.4480 N.3   112  LYS112     -0.1314
    121  N        -25.6670  -37.8910  -13.3050 N.am  113  PHE113     -0.1976
    122  CA       -24.9230  -37.1080  -12.3250 C.3   113  PHE113      0.1639
    123  C        -25.7630  -37.0030  -11.0510 C.2   113  PHE113      0.2290
    124  O        -25.3660  -37.5240  -10.0080 O.2   113  PHE113     -0.2864
    125  CB       -24.5580  -35.7280  -12.8910 C.3   113  PHE113      0.0560
    126  CG       -23.7430  -34.8650  -11.9560 C.ar  113  PHE113     -0.0200
    127  CD1      -22.3590  -34.9930  -11.8900 C.ar  113  PHE113     -0.0042
    128  CD2      -24.3560  -33.9030  -11.1610 C.ar  113  PHE113     -0.0042
    129  CE1      -21.6020  -34.1710  -11.0460 C.ar  113  PHE113     -0.0003
    130  CE2      -23.6010  -33.0960  -10.3030 C.ar  113  PHE113     -0.0003
    131  CZ       -22.2290  -33.2150  -10.2720 C.ar  113  PHE113     -0.0000
    132  N        -28.9320  -37.8550   -8.5840 N.3   115  ILE115     -0.1245
    133  CA       -29.6260  -39.1000   -8.2400 C.3   115  ILE115      0.1561
    134  C        -31.1220  -38.8380   -8.0590 C.2   115  ILE115      0.2260
    135  O        -31.4880  -37.9160   -7.3260 O.2   115  ILE115     -0.2867
    136  CB       -28.9900  -39.7580   -6.9680 C.3   115  ILE115      0.0252
    137  CG1      -27.5010  -40.1450   -7.1970 C.3   115  ILE115      0.0019
    138  CG2      -29.8100  -40.9730   -6.4840 C.3   115  ILE115      0.0019
    139  CD1      -26.6820  -40.3460   -5.9070 C.3   115  ILE115      0.0001
    140  N        -29.3020  -33.8740   -2.3680 N.3   120  TRP120     -0.1241
    141  CA       -28.1780  -32.9750   -2.6510 C.3   120  TRP120      0.1605
    142  C        -28.2860  -32.4210   -4.0660 C.2   120  TRP120      0.2264
    143  O        -28.8800  -33.0720   -4.9240 O.2   120  TRP120     -0.2867
    144  CB       -26.8100  -33.6010   -2.3770 C.3   120  TRP120      0.0550
    145  CG       -26.5150  -34.8920   -3.0830 C.ar  120  TRP120      0.0003
    146  CD1      -26.5730  -36.1440   -2.5440 C.ar  120  TRP120      0.0946
    147  CD2      -25.9360  -35.0460   -4.3940 C.ar  120  TRP120      0.0152
    148  NE1      -26.1080  -37.0740   -3.4510 N.ar  120  TRP120     -0.2442
    149  CE2      -25.7230  -36.4290   -4.5980 C.ar  120  TRP120      0.0810
    150  CE3      -25.5870  -34.1500   -5.4180 C.ar  120  TRP120      0.0012
    151  CZ2      -25.1910  -36.9400   -5.7910 C.ar  120  TRP120      0.0191
    152  CZ3      -25.0880  -34.6590   -6.6140 C.ar  120  TRP120      0.0001
    153  CH2      -24.8660  -36.0350   -6.7800 C.ar  120  TRP120      0.0015
    154  N        -21.7810  -30.7840   -5.7300 N.3   123  ILE123     -0.1245
    155  CA       -20.6510  -31.5570   -5.2310 C.3   123  ILE123      0.1561
    156  C        -19.5470  -30.6090   -4.8240 C.2   123  ILE123      0.2260
    157  O        -19.2450  -29.6590   -5.5620 O.2   123  ILE123     -0.2867
    158  CB       -20.1770  -32.5990   -6.2850 C.3   123  ILE123      0.0252
    159  CG1      -21.3040  -33.6520   -6.5880 C.3   123  ILE123      0.0019
    160  CG2      -18.8340  -33.2750   -5.8730 C.3   123  ILE123      0.0019
    161  CD1      -20.9140  -34.8690   -7.5400 C.3   123  ILE123      0.0001
    162  N         -6.2630  -32.1270  -10.3880 N.3   131  ILE131     -0.1245
    163  CA        -7.3840  -32.8260  -11.0180 C.3   131  ILE131      0.1561
    164  C         -8.6260  -31.9110  -11.2040 C.2   131  ILE131      0.2260
    165  O         -9.6900  -32.4150  -11.5450 O.2   131  ILE131     -0.2867
    166  CB        -7.7190  -34.1680  -10.2970 C.3   131  ILE131      0.0252
    167  CG1       -8.2370  -33.9350   -8.8630 C.3   131  ILE131      0.0019
    168  CG2       -6.5180  -35.1420  -10.3450 C.3   131  ILE131      0.0019
    169  CD1       -8.7970  -35.1350   -8.1580 C.3   131  ILE131      0.0001
    170  N        -11.2160  -29.4760  -13.1010 N.3   133  ARG133     -0.1245
    171  CA       -11.6380  -29.3190  -14.4980 C.3   133  ARG133      0.1563
    172  C        -11.9510  -27.8410  -14.7310 C.2   133  ARG133      0.2260
    173  O        -12.6180  -27.2410  -13.8820 O.2   133  ARG133     -0.2867
    174  CB       -12.8680  -30.1960  -14.8420 C.3   133  ARG133      0.0307
    175  CG       -12.8570  -31.6450  -14.3100 C.3   133  ARG133      0.0489
    176  CD       -11.7340  -32.5190  -14.8430 C.3   133  ARG133      0.2205
    177  NE       -12.0950  -33.9420  -14.8470 N.pl3 133  ARG133     -0.0865
    178  CZ       -11.6840  -34.8420  -13.9570 C.cat 133  ARG133      0.5346
    179  NH1      -10.8930  -34.4810  -12.9540 N.pl3 133  ARG133      0.1354
    180  NH2      -12.0600  -36.1100  -14.0630 N.pl3 133  ARG133      0.1354
    181  N        -11.4460  -41.7640   -0.9490 N.3   223  ASP223     -0.1225
    182  CA       -12.5460  -41.1030   -1.6690 C.3   223  ASP223      0.1805
    183  C        -13.9120  -41.2060   -0.9940 C.2   223  ASP223      0.2598
    184  O        -14.5910  -42.2350   -1.1150 O.2   223  ASP223     -0.2718
    185  CB       -12.6190  -41.6680   -3.0960 C.3   223  ASP223      0.1424
    186  CG       -13.6190  -40.9860   -4.0180 C.2   223  ASP223      0.3668
    187  OD1      -14.2130  -39.9590   -3.6020 O.co2 223  ASP223     -0.2456
    188  OD2      -13.7700  -41.4460   -5.1690 O.co2 223  ASP223     -0.2456
    189  N        -14.3600  -40.0990   -0.3720 N.am  224  SER224     -0.1938
    190  CA       -15.6700  -40.0590    0.2850 C.3   224  SER224      0.2055
    191  C        -16.8300  -40.1190   -0.7180 C.2   224  SER224      0.2644
    192  O        -17.9660  -40.3940   -0.3140 O.2   224  SER224     -0.2714
    193  CB       -15.8000  -38.8170    1.1610 C.3   224  SER224      0.2130
    194  OG       -15.7070  -37.6380    0.3790 O.3   224  SER224     -0.2179
    195  N        -16.5370  -39.8650   -2.0000 N.am  225  GLY225     -0.1939
    196  CA       -17.5490  -39.8660   -3.0570 C.3   225  GLY225      0.2014
    197  C        -17.7530  -41.1940   -3.7620 C.2   225  GLY225      0.2640
    198  O        -18.4160  -41.2490   -4.8060 O.2   225  GLY225     -0.2714
    199  N        -17.1520  -42.2690   -3.2110 N.am  226  THR226     -0.1936
    200  CA       -17.2530  -43.6490   -3.7020 C.3   226  THR226      0.2028
    201  C        -17.7920  -44.5030   -2.5540 C.2   226  THR226      0.2642
    202  O        -17.2910  -44.4150   -1.4290 O.2   226  THR226     -0.2714
    203  CB       -15.8720  -44.1700   -4.1840 C.3   226  THR226      0.1808
    204  OG1      -15.5080  -43.5040   -5.3860 O.3   226  THR226     -0.2208
    205  CG2      -15.8510  -45.6870   -4.4330 C.3   226  THR226      0.0379
    206  N        -18.7700  -45.3740   -2.8530 N.am  227  THR227     -0.1950
    207  CA       -19.3420  -46.2380   -1.8280 C.3   227  THR227      0.1897
    208  C        -18.4050  -47.3990   -1.4410 C.2   227  THR227      0.2313
    209  O        -18.0710  -47.5570   -0.2630 O.2   227  THR227     -0.2863
    210  CB       -20.7250  -46.7500   -2.2730 C.3   227  THR227      0.1794
    211  OG1      -21.5630  -45.6290   -2.5520 O.3   227  THR227     -0.2208
    212  CG2      -21.3780  -47.6500   -1.2280 C.3   227  THR227      0.0378
@<TRIPOS>BOND
     1    63    64    1
     2    65    64    1
     3    65    66    2
     4    64    67    1
     5   119   120    1
     6   119   118    1
     7   101   100    2
     8    70    71    1
     9    73    72    2
    10   100    99    1
    11    98    99    1
    12   118   117    1
    13    88    86    1
    14    72    71    1
    15    72    82   am
    16    99   102    1
    17    71    74    1
    18    67    69    1
    19    67    68    1
    20   117   116    1
    21    83    82    1
    22    83    86    1
    23    83    84    1
    24    91    92    2
    25    91    90    1
    26   112   113    1
    27    89    90    1
    28    89    84   am
    29    86    87    1
    30   116   113    1
    31    90    93    1
    32    84    85    2
    33   102   103    1
    34    74    75    1
    35   177   176    1
    36   177   178    2
    37   176   175    1
    38   174   171    1
    39   174   175    1
    40    76    75   ar
    41    76    78   ar
    42   172   171    1
    43   172   173    2
    44   113   114    1
    45    75    77   ar
    46   108   110   ar
    47   108   105   ar
    48   171   170    1
    49   103   105   ar
    50   103   104   ar
    51    78    80   ar
    52   110   111   ar
    53   105   107   ar
    54   180   178    1
    55   178   179    1
    56    77    79   ar
    57   104   106   ar
    58    80    79   ar
    59    80    81    1
    60    93    94    1
    61   114   121   am
    62   114   115    2
    63   111   109   ar
    64   107   106   ar
    65   107   109   ar
    66   121   122    1
    67    94    95    1
    68   125   122    1
    69   125   126    1
    70   122   123    1
    71   126   127   ar
    72   126   128   ar
    73   127   129   ar
    74    95    96    2
    75    95    97   am
    76    57    55   am
    77   165   164    2
    78    56    55    2
    79   164   163    1
    80   128   130   ar
    81   123   124    2
    82   129   131   ar
    83   163   162    1
    84   163   166    1
    85    55    54    1
    86   168   166    1
    87   130   131   ar
    88   166   167    1
    89    62    59    1
    90    54    51    1
    91    59    60    1
    92    59    58    1
    93   167   169    1
    94   132   133    1
    95    60    61    2
    96    51    50    1
    97    51    52    1
    98   133   134    1
    99   133   136    1
   100   134   135    2
   101    50    46   am
   102    42    39    1
   103    42    43    1
   104   161   159    1
   105    52    53    2
   106    48    45    1
   107    48    49    1
   108    46    47    2
   109    46    45    1
   110    44    45    1
   111    44    40   am
   112   137   136    1
   113   137   139    1
   114    37    36    2
   115    39    40    1
   116    39    38    1
   117   136   138    1
   118   153   152   ar
   119   153   151   ar
   120   152   150   ar
   121   159   158    1
   122    40    41    2
   123   158   160    1
   124   158   155    1
   125    36    38   am
   126    36    35    1
   127    33    31   ar
   128   151   149   ar
   129   154   155    1
   130   157   156    2
   131   150   147   ar
   132   204   203    1
   133   155   156    1
   134   188   186   ar
   135   143   142    2
   136    35    34    1
   137   198   197    2
   138    31    32   ar
   139    31    30    1
   140   149   147   ar
   141   149   148   ar
   142   205   203    1
   143   147   145   ar
   144   203   200    1
   145    25    23    1
   146   142   141    1
   147   186   187   ar
   148   186   185    1
   149   197   199   am
   150   197   196    1
   151   200   199    1
   152   200   201    1
   153    30    27    1
   154   148   146   ar
   155    13    11   am
   156     4     3    2
   157   185   182    1
   158   145   146   ar
   159   145   144    1
   160   196   195    1
   161    29    28    2
   162   206   201   am
   163   206   207    1
   164    22    23    1
   165    22    19    1
   166    23    24    1
   167   141   144    1
   168   141   140    1
   169    10    11    1
   170    10     9    1
   171    11    12    2
   172   201   202    2
   173   211   210    1
   174   210   207    1
   175   210   212    1
   176    27    28    1
   177    27    26    1
   178     6     9    1
   179     6     7    1
   180     6     5    1
   181   195   191   am
   182     8     7    2
   183     3     5   am
   184     3     2    1
   185    21    20    2
   186   207   208    1
   187    18    19    1
   188   182   183    1
   189   182   181    1
   190     7    14   am
   191    19    20    1
   192   208   209    2
   193     2     1    1
   194   184   183    2
   195   183   189   am
   196    14    15    1
   197   191   192    2
   198   191   190    1
   199   189   190    1
   200    15    16    1
   201   190   193    1
   202   194   193    1
   203    16    17    2
