@<TRIPOS>MOLECULE
tmp/6ej3A00.pdb
 210 199 0 0 0
SMALL
GASTEIGER

@<TRIPOS>ATOM
      1  N        -25.1220  -46.3360    0.3590 N.3    11  GLY11      -0.1210
      2  CA       -24.6920  -46.4290   -1.0340 C.3    11  GLY11       0.1956
      3  C        -24.9170  -45.1750   -1.8530 C.2    11  GLY11       0.2612
      4  O        -24.6220  -45.1630   -3.0500 O.2    11  GLY11      -0.2717
      5  N        -25.4410  -44.1070   -1.2220 N.am   12  GLN12      -0.1965
      6  CA       -25.7140  -42.8310   -1.8780 C.3    12  GLN12       0.1733
      7  C        -24.7450  -41.7280   -1.4180 C.2    12  GLN12       0.2616
      8  O        -24.8770  -40.5760   -1.8330 O.2    12  GLN12      -0.2715
      9  CB       -27.1790  -42.4230   -1.6780 C.3    12  GLN12       0.0408
     10  CG       -28.1530  -43.2820   -2.4820 C.3    12  GLN12       0.0908
     11  CD       -29.5590  -42.7370   -2.5110 C.2    12  GLN12       0.2608
     12  OE1      -29.8550  -41.6630   -1.9820 O.2    12  GLN12      -0.2717
     13  NE2      -30.4650  -43.4730   -3.1420 N.am   12  GLN12      -0.0878
     14  N        -23.7680  -42.1000   -0.5950 N.am   13  GLY13      -0.1955
     15  CA       -22.7600  -41.1750   -0.1030 C.3    13  GLY13       0.1869
     16  C        -23.1680  -40.3020    1.0650 C.2    13  GLY13       0.2309
     17  O        -24.2550  -40.4460    1.6230 O.2    13  GLY13      -0.2863
     18  N        -22.5880  -33.4640   -1.6980 N.3    30  LEU30      -0.1245
     19  CA       -21.8730  -34.7070   -1.4920 C.3    30  LEU30       0.1561
     20  C        -20.3710  -34.4500   -1.2420 C.2    30  LEU30       0.2260
     21  O        -19.7410  -33.6940   -1.9770 O.2    30  LEU30      -0.2867
     22  CB       -22.1240  -35.6380   -2.7040 C.3    30  LEU30       0.0270
     23  CG       -21.4550  -37.0090   -2.6630 C.3    30  LEU30       0.0019
     24  CD1      -22.3850  -38.0500   -2.0720 C.3    30  LEU30       0.0001
     25  CD2      -21.0270  -37.4330   -4.0680 C.3    30  LEU30       0.0001
     26  N        -16.6780  -35.5390   -1.3580 N.3    32  ASP32      -0.1239
     27  CA       -15.9120  -36.4340   -2.2020 C.3    32  ASP32       0.1674
     28  C        -14.3880  -36.1870   -2.1700 C.2    32  ASP32       0.2266
     29  O        -13.8860  -35.2410   -2.7980 O.2    32  ASP32      -0.2867
     30  CB       -16.4870  -36.3560   -3.6350 C.3    32  ASP32       0.1410
     31  CG       -15.8590  -37.2830   -4.6510 C.2    32  ASP32       0.3668
     32  OD1      -15.1840  -38.2440   -4.2420 O.co2  32  ASP32      -0.2456
     33  OD2      -16.0670  -37.0640   -5.8510 O.co2  32  ASP32      -0.2456
     34  N        -12.2400  -38.0090   -3.6550 N.3    34  GLY34      -0.1210
     35  CA       -11.6990  -38.5240   -4.9100 C.3    34  GLY34       0.1956
     36  C        -11.8590  -37.6430   -6.1270 C.2    34  GLY34       0.2613
     37  O        -11.6550  -38.1130   -7.2410 O.2    34  GLY34      -0.2717
     38  N        -12.2240  -36.3740   -5.9490 N.am   35  SER35      -0.1938
     39  CA       -12.3890  -35.4300   -7.0780 C.3    35  SER35       0.2055
     40  C        -12.0650  -34.0160   -6.5820 C.2    35  SER35       0.2644
     41  O        -11.8470  -33.8690   -5.3830 O.2    35  SER35      -0.2714
     42  CB       -13.7800  -35.5450   -7.7070 C.3    35  SER35       0.2130
     43  OG       -14.8000  -34.9920   -6.8870 O.3    35  SER35      -0.2179
     44  N        -11.9830  -33.0010   -7.4710 N.am   36  SER36      -0.1935
     45  CA       -11.5260  -31.6760   -7.0430 C.3    36  SER36       0.2055
     46  C        -12.3630  -30.4670   -7.4890 C.2    36  SER36       0.2643
     47  O        -11.9530  -29.3290   -7.2740 O.2    36  SER36      -0.2714
     48  CB       -10.0780  -31.4720   -7.4730 C.3    36  SER36       0.2130
     49  OG        -9.2700  -32.4960   -6.9240 O.3    36  SER36      -0.2179
     50  N        -13.5420  -30.7000   -8.0290 N.am   37  ASN37      -0.1971
     51  CA       -14.4140  -29.6130   -8.4340 C.3    37  ASN37       0.1688
     52  C        -15.5370  -29.4480   -7.4630 C.2    37  ASN37       0.2292
     53  O        -16.0040  -30.4200   -6.8670 O.2    37  ASN37      -0.2864
     54  CB       -15.0080  -29.8840   -9.8330 C.3    37  ASN37       0.1181
     55  CG       -14.0330  -29.6880  -10.9530 C.2    37  ASN37       0.2629
     56  OD1      -13.1970  -30.5410  -11.2420 O.2    37  ASN37      -0.2716
     57  ND2      -14.0890  -28.5270  -11.5760 N.am   37  ASN37      -0.0877
     58  N        -19.0530  -28.6650   -7.9960 N.3    39  ALA39      -0.1245
     59  CA       -20.0330  -28.6880   -9.0980 C.3    39  ALA39       0.1562
     60  C        -21.4470  -28.8670   -8.5610 C.2    39  ALA39       0.2260
     61  O        -21.7080  -29.8320   -7.8510 O.2    39  ALA39      -0.2867
     62  CB       -19.6900  -29.7930  -10.1010 C.3    39  ALA39       0.0290
     63  N        -17.3270  -33.0160  -18.6220 N.3    69  VAL69      -0.1245
     64  CA       -16.6690  -34.0490  -17.8340 C.3    69  VAL69       0.1561
     65  C        -17.2770  -35.4470  -18.0100 C.2    69  VAL69       0.2260
     66  O        -18.2060  -35.8360  -17.2970 O.2    69  VAL69      -0.2867
     67  CB       -16.5460  -33.6560  -16.3210 C.3    69  VAL69       0.0252
     68  CG1      -15.6050  -34.5960  -15.5750 C.3    69  VAL69       0.0019
     69  CG2      -16.0800  -32.2100  -16.1600 C.3    69  VAL69       0.0019
     70  N        -16.9220  -39.4860  -17.4000 N.3    71  TYR71      -0.1241
     71  CA       -16.3150  -40.3080  -16.4000 C.3    71  TYR71       0.1605
     72  C        -16.8860  -41.6850  -16.5900 C.2    71  TYR71       0.2264
     73  O        -17.7760  -41.8730  -17.3810 O.2    71  TYR71      -0.2867
     74  CB       -16.5180  -39.7460  -14.9990 C.3    71  TYR71       0.0534
     75  CG       -17.9300  -39.5280  -14.5770 C.ar   71  TYR71      -0.0201
     76  CD1      -18.5900  -38.3530  -14.8690 C.ar   71  TYR71      -0.0009
     77  CD2      -18.5940  -40.4890  -13.8610 C.ar   71  TYR71      -0.0009
     78  CE1      -19.8870  -38.1570  -14.4780 C.ar   71  TYR71       0.0417
     79  CE2      -19.8900  -40.3080  -13.4730 C.ar   71  TYR71       0.0417
     80  CZ       -20.5320  -39.1390  -13.7830 C.ar   71  TYR71       0.1957
     81  OH       -21.8080  -38.9830  -13.3840 O.3    71  TYR71      -0.2866
     82  N        -18.6860  -43.8450  -15.3370 N.3    73  GLN73      -0.1245
     83  CA       -20.0720  -44.1500  -15.0440 C.3    73  GLN73       0.1566
     84  C        -21.0890  -43.1370  -15.5330 C.2    73  GLN73       0.2260
     85  O        -22.2450  -43.2410  -15.2180 O.2    73  GLN73      -0.2867
     86  CB       -20.2420  -44.2570  -13.5390 C.3    73  GLN73       0.0367
     87  CG       -19.4980  -45.3970  -12.8880 C.3    73  GLN73       0.0905
     88  CD       -20.3790  -46.5980  -12.6260 C.2    73  GLN73       0.2608
     89  OE1      -21.4250  -46.4930  -11.9890 O.2    73  GLN73      -0.2717
     90  NE2      -19.9580  -47.7520  -13.1190 N.am   73  GLN73      -0.0878
     91  N        -21.1160  -35.1300  -16.8430 N.3    76  TRP76      -0.1241
     92  CA       -21.6480  -33.8360  -16.4220 C.3    76  TRP76       0.1605
     93  C        -20.9950  -32.7060  -17.2020 C.2    76  TRP76       0.2264
     94  O        -19.8270  -32.7820  -17.5760 O.2    76  TRP76      -0.2867
     95  CB       -21.6290  -33.6020  -14.8990 C.3    76  TRP76       0.0550
     96  CG       -20.2790  -33.3500  -14.3040 C.ar   76  TRP76       0.0003
     97  CD1      -19.4330  -34.2760  -13.7670 C.ar   76  TRP76       0.0946
     98  CD2      -19.6480  -32.0740  -14.1260 C.ar   76  TRP76       0.0152
     99  NE1      -18.3110  -33.6600  -13.2670 N.ar   76  TRP76      -0.2442
    100  CE2      -18.4180  -32.3050  -13.4640 C.ar   76  TRP76       0.0810
    101  CE3      -20.0140  -30.7500  -14.4490 C.ar   76  TRP76       0.0012
    102  CZ2      -17.5440  -31.2620  -13.1210 C.ar   76  TRP76       0.0191
    103  CZ3      -19.1460  -29.7260  -14.1230 C.ar   76  TRP76       0.0001
    104  CH2      -17.9160  -29.9830  -13.4810 C.ar   76  TRP76       0.0015
    105  N        -26.5820  -39.8100  -15.6010 N.3   107  LYS107     -0.1231
    106  CA       -26.2460  -40.7610  -14.5140 C.3   107  LYS107      0.1693
    107  C        -25.3820  -40.1130  -13.4090 C.2   107  LYS107      0.2592
    108  O        -24.5710  -40.7760  -12.7540 O.2   107  LYS107     -0.2718
    109  CB       -25.6020  -42.0610  -15.0710 C.3   107  LYS107      0.0285
    110  CG       -26.4870  -42.8040  -16.0520 C.3   107  LYS107      0.0035
    111  CD       -25.9770  -44.2190  -16.2900 C.3   107  LYS107      0.0206
    112  CE       -25.6480  -44.4840  -17.7370 C.3   107  LYS107      0.1093
    113  NZ       -24.3600  -43.8530  -18.1370 N.3   107  LYS107     -0.1314
    114  N        -25.5360  -38.7950  -13.2570 N.am  108  PHE108     -0.1976
    115  CA       -24.8400  -37.9730  -12.2790 C.3   108  PHE108      0.1639
    116  C        -25.6730  -37.8640  -10.9890 C.2   108  PHE108      0.2290
    117  O        -25.2190  -38.2690   -9.9210 O.2   108  PHE108     -0.2864
    118  CB       -24.5040  -36.5910  -12.8840 C.3   108  PHE108      0.0560
    119  CG       -23.6550  -35.7390  -11.9750 C.ar  108  PHE108     -0.0200
    120  CD1      -22.2790  -35.9340  -11.8940 C.ar  108  PHE108     -0.0042
    121  CD2      -24.2320  -34.7640  -11.1720 C.ar  108  PHE108     -0.0042
    122  CE1      -21.4960  -35.1680  -11.0270 C.ar  108  PHE108     -0.0003
    123  CE2      -23.4520  -34.0170  -10.2900 C.ar  108  PHE108     -0.0003
    124  CZ       -22.0820  -34.2000  -10.2440 C.ar  108  PHE108     -0.0000
    125  N        -28.9110  -38.7940   -8.4610 N.3   110  ILE110     -0.1245
    126  CA       -29.5890  -40.0600   -8.1450 C.3   110  ILE110      0.1561
    127  C        -31.0640  -39.8050   -7.8830 C.2   110  ILE110      0.2260
    128  O        -31.3980  -38.8650   -7.1620 O.2   110  ILE110     -0.2867
    129  CB       -28.9070  -40.8050   -6.9380 C.3   110  ILE110      0.0252
    130  CG1      -27.4100  -41.0860   -7.1960 C.3   110  ILE110      0.0019
    131  CG2      -29.6810  -42.0870   -6.5450 C.3   110  ILE110      0.0019
    132  CD1      -26.5530  -41.4480   -5.8890 C.3   110  ILE110      0.0001
    133  N        -28.9870  -34.9520   -2.2450 N.3   115  TRP115     -0.1241
    134  CA       -27.8990  -34.0280   -2.5870 C.3   115  TRP115      0.1605
    135  C        -28.0660  -33.4910   -4.0190 C.2   115  TRP115      0.2264
    136  O        -28.6890  -34.1360   -4.8610 O.2   115  TRP115     -0.2867
    137  CB       -26.4820  -34.5770   -2.2980 C.3   115  TRP115      0.0550
    138  CG       -26.1760  -35.9110   -2.9170 C.ar  115  TRP115      0.0003
    139  CD1      -26.2670  -37.1390   -2.3180 C.ar  115  TRP115      0.0946
    140  CD2      -25.6860  -36.1460   -4.2460 C.ar  115  TRP115      0.0152
    141  NE1      -25.8510  -38.1220   -3.1900 N.ar  115  TRP115     -0.2442
    142  CE2      -25.4940  -37.5400   -4.3830 C.ar  115  TRP115      0.0810
    143  CE3      -25.4050  -35.3100   -5.3460 C.ar  115  TRP115      0.0012
    144  CZ2      -25.0430  -38.1190   -5.5810 C.ar  115  TRP115      0.0191
    145  CZ3      -24.9030  -35.8760   -6.5030 C.ar  115  TRP115      0.0001
    146  CH2      -24.7510  -37.2660   -6.6240 C.ar  115  TRP115      0.0015
    147  N        -21.6380  -31.7080   -5.6610 N.3   118  ILE118     -0.1245
    148  CA       -20.4440  -32.4530   -5.2150 C.3   118  ILE118      0.1561
    149  C        -19.3470  -31.4930   -4.8280 C.2   118  ILE118      0.2260
    150  O        -19.0420  -30.5760   -5.5760 O.2   118  ILE118     -0.2867
    151  CB       -19.9340  -33.4700   -6.2910 C.3   118  ILE118      0.0252
    152  CG1      -21.0030  -34.5530   -6.5960 C.3   118  ILE118      0.0019
    153  CG2      -18.5440  -34.1020   -5.8990 C.3   118  ILE118      0.0019
    154  CD1      -20.5480  -35.6940   -7.5230 C.3   118  ILE118      0.0001
    155  N         -6.0420  -32.7940  -10.4400 N.3   126  ILE126     -0.1245
    156  CA        -7.1690  -33.4980  -10.9960 C.3   126  ILE126      0.1561
    157  C         -8.4260  -32.6550  -11.2010 C.2   126  ILE126      0.2260
    158  O         -9.4260  -33.1740  -11.5840 O.2   126  ILE126     -0.2867
    159  CB        -7.4880  -34.8140  -10.2500 C.3   126  ILE126      0.0252
    160  CG1       -7.8040  -34.5890   -8.7790 C.3   126  ILE126      0.0019
    161  CG2       -6.3740  -35.8090  -10.4080 C.3   126  ILE126      0.0019
    162  CD1       -8.5470  -35.7290   -8.1640 C.3   126  ILE126      0.0001
    163  N        -11.0250  -30.1870  -13.1000 N.3   128  ARG128     -0.1245
    164  CA       -11.4340  -30.0280  -14.4830 C.3   128  ARG128      0.1563
    165  C        -11.8820  -28.5970  -14.7060 C.2   128  ARG128      0.2260
    166  O        -12.4940  -28.0400  -13.8460 O.2   128  ARG128     -0.2867
    167  CB       -12.5780  -30.9530  -14.8140 C.3   128  ARG128      0.0307
    168  CG       -12.3030  -32.3940  -14.5380 C.3   128  ARG128      0.0489
    169  CD       -11.5080  -32.9720  -15.6560 C.3   128  ARG128      0.2205
    170  NE       -10.6510  -34.0280  -15.1800 N.pl3 128  ARG128     -0.0865
    171  CZ       -10.9780  -35.3120  -15.1550 C.cat 128  ARG128      0.5346
    172  NH1      -10.1140  -36.1930  -14.6990 N.pl3 128  ARG128      0.1354
    173  NH2      -12.1590  -35.7180  -15.5830 N.pl3 128  ARG128      0.1354
    174  N        -10.9120  -42.4490   -1.1090 N.3   216  ASP216     -0.1225
    175  CA       -12.0420  -41.7750   -1.8010 C.3   216  ASP216      0.1805
    176  C        -13.4260  -41.9300   -1.1020 C.2   216  ASP216      0.2598
    177  O        -14.0590  -42.9770   -1.2010 O.2   216  ASP216     -0.2718
    178  CB       -12.1020  -42.2540   -3.2730 C.3   216  ASP216      0.1424
    179  CG       -13.1660  -41.6270   -4.1690 C.2   216  ASP216      0.3668
    180  OD1      -13.9040  -40.7440   -3.6910 O.co2 216  ASP216     -0.2456
    181  OD2      -13.2270  -41.9920   -5.3670 O.co2 216  ASP216     -0.2456
    182  N        -13.9000  -40.8640   -0.4400 N.am  217  SER217     -0.1938
    183  CA       -15.2030  -40.8240    0.2460 C.3   217  SER217      0.2055
    184  C        -16.4020  -40.8130   -0.7400 C.2   217  SER217      0.2644
    185  O        -17.5400  -41.0340   -0.3240 O.2   217  SER217     -0.2714
    186  CB       -15.2790  -39.6340    1.1970 C.3   217  SER217      0.2130
    187  OG       -15.2990  -38.4260    0.4560 O.3   217  SER217     -0.2179
    188  N        -16.1330  -40.5480   -2.0150 N.am  218  GLY218     -0.1939
    189  CA       -17.1420  -40.5530   -3.0610 C.3   218  GLY218      0.2014
    190  C        -17.2950  -41.9140   -3.7250 C.2   218  GLY218      0.2640
    191  O        -17.9480  -42.0190   -4.7560 O.2   218  GLY218     -0.2714
    192  N        -16.6860  -42.9690   -3.1440 N.am  219  THR219     -0.1936
    193  CA       -16.7990  -44.3600   -3.6010 C.3   219  THR219      0.2028
    194  C        -17.3950  -45.1680   -2.4380 C.2   219  THR219      0.2642
    195  O        -17.0370  -44.9360   -1.2920 O.2   219  THR219     -0.2714
    196  CB       -15.4310  -44.8890   -4.1000 C.3   219  THR219      0.1808
    197  OG1      -14.9900  -44.0880   -5.1950 O.3   219  THR219     -0.2208
    198  CG2      -15.4760  -46.3430   -4.5600 C.3   219  THR219      0.0379
    199  N        -18.3200  -46.0830   -2.7220 N.am  220  THR220     -0.1950
    200  CA       -18.9370  -46.9070   -1.6780 C.3   220  THR220      0.1897
    201  C        -18.0450  -48.1020   -1.2800 C.2   220  THR220      0.2313
    202  O        -17.7760  -48.3160   -0.0970 O.2   220  THR220     -0.2863
    203  CB       -20.3420  -47.3530   -2.1250 C.3   220  THR220      0.1794
    204  OG1      -21.1280  -46.1940   -2.3550 O.3   220  THR220     -0.2208
    205  CG2      -21.0340  -48.2530   -1.1090 C.3   220  THR220      0.0378
    206  N        -16.0120  -45.9270    1.1950 N.3   316  ALA316     -0.1245
    207  CA       -16.8340  -45.9420    2.4040 C.3   316  ALA316      0.1562
    208  C        -16.6750  -47.2140    3.2520 C.2   316  ALA316      0.2260
    209  O        -16.6960  -47.0890    4.4670 O.2   316  ALA316     -0.2867
    210  CB       -18.3020  -45.7180    2.0530 C.3   316  ALA316      0.0290
@<TRIPOS>BOND
     1    63    64    1
     2   113   112    1
     3    65    64    1
     4    65    66    2
     5    64    67    1
     6   112   111    1
     7    94    93    2
     8    70    71    1
     9    73    72    2
    10    93    92    1
    11    91    92    1
    12    72    71    1
    13    92    95    1
    14    71    74    1
    15    67    69    1
    16    67    68    1
    17   111   110    1
    18   110   109    1
    19   169   170    1
    20   169   168    1
    21   105   106    1
    22   173   171    1
    23    84    85    2
    24    84    83    1
    25    82    83    1
    26   170   171    2
    27   171   172    1
    28   109   106    1
    29    83    86    1
    30    74    75    1
    31    95    96    1
    32    76    75   ar
    33    76    78   ar
    34   167   168    1
    35   167   164    1
    36   165   164    1
    37   165   166    2
    38    75    77   ar
    39   106   107    1
    40   164   163    1
    41    78    80   ar
    42   101    98   ar
    43   101   103   ar
    44    96    98   ar
    45    96    97   ar
    46    98   100   ar
    47   103   104   ar
    48    77    79   ar
    49    80    79   ar
    50    80    81    1
    51    97    99   ar
    52    86    87    1
    53   104   102   ar
    54   100    99   ar
    55   100   102   ar
    56   107   114   am
    57   107   108    2
    58   114   115    1
    59    90    88   am
    60    87    88    1
    61   118   115    1
    62   118   119    1
    63    88    89    2
    64   115   116    1
    65   119   120   ar
    66   119   121   ar
    67   120   122   ar
    68   158   157    2
    69    57    55   am
    70    56    55    2
    71   157   156    1
    72   121   123   ar
    73   122   124   ar
    74   156   155    1
    75   156   159    1
    76   116   117    2
    77    55    54    1
    78   161   159    1
    79   123   124   ar
    80   159   160    1
    81    62    59    1
    82    54    51    1
    83    59    60    1
    84    59    58    1
    85   160   162    1
    86    60    61    2
    87   125   126    1
    88    51    50    1
    89    51    52    1
    90   126   127    1
    91   126   129    1
    92    50    46   am
    93   127   128    2
    94    42    39    1
    95    42    43    1
    96   154   152    1
    97    46    47    2
    98    46    45    1
    99    48    45    1
   100    48    49    1
   101    44    45    1
   102    44    40   am
   103    52    53    2
   104    37    36    2
   105   130   129    1
   106   130   132    1
   107    39    40    1
   108    39    38    1
   109   129   131    1
   110   146   145   ar
   111   146   144   ar
   112   152   151    1
   113    40    41    2
   114   145   143   ar
   115   151   153    1
   116   151   148    1
   117    36    38   am
   118    36    35    1
   119    33    31   ar
   120   147   148    1
   121   144   142   ar
   122   150   149    2
   123   181   179   ar
   124   143   140   ar
   125   148   149    1
   126   197   196    1
   127    35    34    1
   128   136   135    2
   129   191   190    2
   130    31    32   ar
   131    31    30    1
   132   198   196    1
   133   142   140   ar
   134   142   141   ar
   135   140   138   ar
   136   179   180   ar
   137   179   178    1
   138   196   193    1
   139    25    23    1
   140   135   134    1
   141   190   192   am
   142   190   189    1
   143    30    27    1
   144   193   192    1
   145   193   194    1
   146   178   175    1
   147   141   139   ar
   148    13    11   am
   149   189   188    1
   150     4     3    2
   151   138   139   ar
   152   138   137    1
   153    29    28    2
   154   199   194   am
   155   199   200    1
   156    22    23    1
   157    22    19    1
   158    23    24    1
   159   134   137    1
   160   134   133    1
   161    11    10    1
   162    11    12    2
   163    10     9    1
   164   194   195    2
   165   204   203    1
   166    27    28    1
   167    27    26    1
   168   203   200    1
   169   203   205    1
   170   188   184   am
   171    21    20    2
   172     6     9    1
   173     6     7    1
   174     6     5    1
   175     3     5   am
   176     3     2    1
   177     8     7    2
   178   175   174    1
   179   175   176    1
   180    18    19    1
   181   200   201    1
   182    19    20    1
   183     7    14   am
   184   201   202    2
   185   177   176    2
   186   176   182   am
   187     2     1    1
   188   184   185    2
   189   184   183    1
   190    14    15    1
   191   182   183    1
   192    15    16    1
   193   183   186    1
   194   187   186    1
   195    16    17    2
   196   206   207    1
   197   210   207    1
   198   207   208    1
   199   208   209    2
