@<TRIPOS>MOLECULE
tmp/6ej4D00.pdb
 157 149 0 0 0
SMALL
GASTEIGER

@<TRIPOS>ATOM
      1  N         24.8110  -24.7230   35.7500 N.3    32  ILE32      -0.1245
      2  CA        24.1830  -25.2060   34.5110 C.3    32  ILE32       0.1561
      3  C         25.0080  -24.8000   33.2930 C.2    32  ILE32       0.2260
      4  O         25.2340  -25.6130   32.3990 O.2    32  ILE32      -0.2867
      5  CB        22.7100  -24.7420   34.3820 C.3    32  ILE32       0.0252
      6  CG1       21.8270  -25.5820   35.3170 C.3    32  ILE32       0.0019
      7  CG2       22.2000  -24.8660   32.9440 C.3    32  ILE32       0.0019
      8  CD1       20.4350  -25.0270   35.5530 C.3    32  ILE32       0.0001
      9  N         26.8850  -12.6070   29.5860 N.3    37  PHE37      -0.1241
     10  CA        26.0170  -12.0430   30.6400 C.3    37  PHE37       0.1605
     11  C         26.5460  -12.3440   32.0420 C.2    37  PHE37       0.2264
     12  O         26.5520  -11.4710   32.9120 O.2    37  PHE37      -0.2867
     13  CB        24.5630  -12.5540   30.5070 C.3    37  PHE37       0.0534
     14  CG        24.4220  -14.0650   30.5280 C.ar   37  PHE37      -0.0203
     15  CD1       24.3430  -14.7590   31.7320 C.ar   37  PHE37      -0.0042
     16  CD2       24.3460  -14.7930   29.3390 C.ar   37  PHE37      -0.0042
     17  CE1       24.2190  -16.1370   31.7520 C.ar   37  PHE37      -0.0003
     18  CE2       24.2160  -16.1770   29.3530 C.ar   37  PHE37      -0.0003
     19  CZ        24.1500  -16.8500   30.5620 C.ar   37  PHE37      -0.0000
     20  N         24.6670  -19.2580   34.8840 N.3    40  VAL40      -0.1245
     21  CA        23.3500  -19.7690   35.2840 C.3    40  VAL40       0.1561
     22  C         23.5200  -20.9800   36.2000 C.2    40  VAL40       0.2260
     23  O         24.0700  -21.9910   35.7690 O.2    40  VAL40      -0.2867
     24  CB        22.5440  -20.1940   34.0260 C.3    40  VAL40       0.0252
     25  CG1       21.2540  -20.9290   34.3930 C.3    40  VAL40       0.0019
     26  CG2       22.2380  -18.9810   33.1600 C.3    40  VAL40       0.0019
     27  N         16.1120  -21.7190   38.6350 N.3    53  ALA53      -0.1245
     28  CA        17.3220  -21.3790   37.8760 C.3    53  ALA53       0.1562
     29  C         17.6260  -19.9240   38.1520 C.2    53  ALA53       0.2260
     30  O         16.7450  -19.0820   38.0120 O.2    53  ALA53      -0.2867
     31  CB        17.1050  -21.5880   36.3870 C.3    53  ALA53       0.0290
     32  N         20.1290  -16.7170   37.2370 N.3    55  LYS55      -0.1245
     33  CA        21.1130  -16.0830   36.3610 C.3    55  LYS55       0.1561
     34  C         21.9240  -15.1190   37.2130 C.2    55  LYS55       0.2260
     35  O         21.3700  -14.1810   37.7740 O.2    55  LYS55      -0.2867
     36  CB        20.4290  -15.3490   35.1840 C.3    55  LYS55       0.0271
     37  CG        21.2890  -15.3100   33.9230 C.3    55  LYS55       0.0035
     38  CD        20.8910  -14.2390   32.9140 C.3    55  LYS55       0.0206
     39  CE        19.8580  -14.7330   31.9200 C.3    55  LYS55       0.1093
     40  NZ        19.3520  -13.6430   31.0340 N.3    55  LYS55      -0.1314
     41  N          9.6200  -17.9400   29.8210 N.3    89  VAL89      -0.1245
     42  CA        10.0430  -18.2980   31.1840 C.3    89  VAL89       0.1561
     43  C          9.9030  -17.1450   32.1670 C.2    89  VAL89       0.2260
     44  O         10.3140  -16.0210   31.8800 O.2    89  VAL89      -0.2867
     45  CB        11.4750  -18.8630   31.2630 C.3    89  VAL89       0.0252
     46  CG1       11.5520  -20.1750   30.4970 C.3    89  VAL89       0.0019
     47  CG2       12.5310  -17.8520   30.8000 C.3    89  VAL89       0.0019
     48  N         14.6550  -17.3830   37.9080 N.3   105  PHE105     -0.1227
     49  CA        13.6360  -17.9000   36.9950 C.3   105  PHE105      0.1736
     50  C         13.0660  -19.2270   37.4890 C.2   105  PHE105      0.2595
     51  O         13.6250  -19.8690   38.3820 O.2   105  PHE105     -0.2718
     52  CB        14.2220  -18.1130   35.5920 C.3   105  PHE105      0.0547
     53  CG        14.7330  -16.8560   34.9340 C.ar  105  PHE105     -0.0202
     54  CD1       16.0400  -16.4150   35.1570 C.ar  105  PHE105     -0.0042
     55  CD2       13.9220  -16.1280   34.0690 C.ar  105  PHE105     -0.0042
     56  CE1       16.5190  -15.2600   34.5420 C.ar  105  PHE105     -0.0003
     57  CE2       14.3960  -14.9740   33.4540 C.ar  105  PHE105     -0.0003
     58  CZ        15.6970  -14.5370   33.6890 C.ar  105  PHE105     -0.0000
     59  N         11.9440  -19.6220   36.8990 N.am  106  GLU106     -0.1965
     60  CA        11.4090  -20.9690   37.0730 C.3   106  GLU106      0.1733
     61  C         12.3760  -21.9910   36.4540 C.2   106  GLU106      0.2616
     62  O         12.9800  -21.7090   35.4210 O.2   106  GLU106     -0.2715
     63  CB         9.9980  -21.0770   36.4650 C.3   106  GLU106      0.0429
     64  CG         9.9200  -20.9910   34.9440 C.3   106  GLU106      0.1163
     65  CD         8.4960  -20.9400   34.4090 C.2   106  GLU106      0.3649
     66  OE1        7.5340  -21.0600   35.1940 O.co2 106  GLU106     -0.2457
     67  OE2        8.3320  -20.7780   33.1820 O.co2 106  GLU106     -0.2457
     68  N         12.5380  -23.1500   37.0980 N.am  107  MET107     -0.1963
     69  CA        13.4420  -24.2070   36.6050 C.3   107  MET107      0.1736
     70  C         12.6930  -25.1200   35.6430 C.2   107  MET107      0.2616
     71  O         11.6100  -25.6110   35.9710 O.2   107  MET107     -0.2715
     72  CB        14.0200  -25.0410   37.7620 C.3   107  MET107      0.0427
     73  CG        14.7420  -26.3380   37.3710 C.3   107  MET107      0.0599
     74  SD        16.5500  -26.3410   37.4480 S.3   107  MET107     -0.1393
     75  CE        17.0290  -25.2500   36.1340 C.3   107  MET107      0.0692
     76  N         13.2880  -25.3360   34.4660 N.am  108  LEU108     -0.1963
     77  CA        12.8130  -26.3120   33.4810 C.3   108  LEU108      0.1728
     78  C         13.8600  -27.4210   33.3240 C.2   108  LEU108      0.2617
     79  O         14.8140  -27.4710   34.0980 O.2   108  LEU108     -0.2715
     80  CB        12.5060  -25.6060   32.1560 C.3   108  LEU108      0.0311
     81  CG        11.6270  -24.3510   32.2540 C.3   108  LEU108      0.0022
     82  CD1       11.2170  -23.9080   30.8600 C.3   108  LEU108      0.0001
     83  CD2       10.3890  -24.5490   33.1250 C.3   108  LEU108      0.0001
     84  N         13.6790  -28.3240   32.3580 N.am  109  SER109     -0.1936
     85  CA        14.5600  -29.4960   32.2240 C.3   109  SER109      0.2055
     86  C         15.8720  -29.1770   31.4880 C.2   109  SER109      0.2643
     87  O         16.9190  -29.0480   32.1270 O.2   109  SER109     -0.2714
     88  CB        13.8110  -30.6710   31.5710 C.3   109  SER109      0.2130
     89  OG        12.8490  -31.2250   32.4640 O.3   109  SER109     -0.2179
     90  N         15.8120  -29.0550   30.1620 N.am  110  TYR110     -0.1959
     91  CA        16.9870  -28.7340   29.3330 C.3   110  TYR110      0.1771
     92  C         16.5780  -27.9090   28.1160 C.2   110  TYR110      0.2619
     93  O         15.3830  -27.7310   27.8610 O.2   110  TYR110     -0.2715
     94  CB        17.7330  -30.0070   28.8890 C.3   110  TYR110      0.0574
     95  CG        16.8400  -31.1400   28.4310 C.ar  110  TYR110     -0.0198
     96  CD1       15.9590  -30.9800   27.3560 C.ar  110  TYR110     -0.0009
     97  CD2       16.8790  -32.3900   29.0700 C.ar  110  TYR110     -0.0009
     98  CE1       15.1410  -32.0220   26.9410 C.ar  110  TYR110      0.0417
     99  CE2       16.0630  -33.4380   28.6570 C.ar  110  TYR110      0.0417
    100  CZ        15.1980  -33.2480   27.5950 C.ar  110  TYR110      0.1957
    101  OH        14.3780  -34.2660   27.1810 O.3   110  TYR110     -0.2866
    102  N         17.5720  -27.4170   27.3740 N.am  111  ASN111     -0.1972
    103  CA        17.3380  -26.6270   26.1540 C.3   111  ASN111      0.1688
    104  C         17.1520  -27.5320   24.9200 C.2   111  ASN111      0.2292
    105  O         17.2320  -28.7570   25.0460 O.2   111  ASN111     -0.2864
    106  CB        18.4450  -25.5680   25.9720 C.3   111  ASN111      0.1181
    107  CG        19.7790  -26.1480   25.5310 C.2   111  ASN111      0.2629
    108  OD1       19.8660  -26.8390   24.5220 O.2   111  ASN111     -0.2716
    109  ND2       20.8340  -25.8220   26.2650 N.am  111  ASN111     -0.0877
    110  N         20.3730  -29.5210   23.5320 N.3   114  ASP114     -0.1239
    111  CA        20.4340  -30.7590   24.3210 C.3   114  ASP114      0.1674
    112  C         19.4480  -31.8160   23.8230 C.2   114  ASP114      0.2266
    113  O         19.7720  -33.0020   23.7920 O.2   114  ASP114     -0.2867
    114  CB        20.1470  -30.4770   25.8050 C.3   114  ASP114      0.1410
    115  CG        21.2040  -29.6080   26.4580 C.2   114  ASP114      0.3668
    116  OD1       22.3570  -29.5880   25.9670 O.co2 114  ASP114     -0.2456
    117  OD2       20.8750  -28.9530   27.4720 O.co2 114  ASP114     -0.2456
    118  N         19.2900  -23.4100   21.7420 N.3   158  GLU158     -0.1231
    119  CA        19.7070  -23.3920   23.1470 C.3   158  GLU158      0.1699
    120  C         19.0260  -22.3370   24.0270 C.2   158  GLU158      0.2592
    121  O         19.1630  -22.4070   25.2460 O.2   158  GLU158     -0.2718
    122  CB        21.2360  -23.3640   23.2830 C.3   158  GLU158      0.0402
    123  CG        21.9080  -22.0470   22.9840 C.3   158  GLU158      0.1161
    124  CD        23.2450  -22.2150   22.2620 C.2   158  GLU158      0.3649
    125  OE1       24.3070  -22.0290   22.9090 O.co2 158  GLU158     -0.2457
    126  OE2       23.2330  -22.5490   21.0520 O.co2 158  GLU158     -0.2457
    127  N         18.3030  -21.3810   23.4210 N.am  159  ASN159     -0.1974
    128  CA        17.4340  -20.4220   24.1540 C.3   159  ASN159      0.1688
    129  C         15.9340  -20.7610   24.0760 C.2   159  ASN159      0.2292
    130  O         15.0810  -19.9040   24.3510 O.2   159  ASN159     -0.2864
    131  CB        17.6250  -18.9890   23.6380 C.3   159  ASN159      0.1181
    132  CG        19.0520  -18.5220   23.7120 C.2   159  ASN159      0.2629
    133  OD1       19.8410  -19.0150   24.5150 O.2   159  ASN159     -0.2716
    134  ND2       19.3940  -17.5540   22.8710 N.am  159  ASN159     -0.0877
    135  N         13.5270  -23.6480   25.7940 N.3   161  LEU161     -0.1245
    136  CA        13.5970  -24.6460   26.8530 C.3   161  LEU161      0.1561
    137  C         12.3890  -25.5640   26.8410 C.2   161  LEU161      0.2260
    138  O         11.2840  -25.1530   26.4750 O.2   161  LEU161     -0.2867
    139  CB        13.7180  -23.9810   28.2160 C.3   161  LEU161      0.0270
    140  CG        15.0360  -23.2850   28.5610 C.3   161  LEU161      0.0019
    141  CD1       15.0270  -22.9360   30.0440 C.3   161  LEU161      0.0001
    142  CD2       16.2720  -24.0990   28.2100 C.3   161  LEU161      0.0001
    143  N         13.6040  -18.3280   26.4330 N.3   173  VAL173     -0.1231
    144  CA        14.4160  -17.7240   27.5000 C.3   173  VAL173      0.1692
    145  C         15.4130  -16.6980   26.9910 C.2   173  VAL173      0.2592
    146  O         15.6310  -16.5710   25.7930 O.2   173  VAL173     -0.2718
    147  CB        15.2010  -18.7960   28.2850 C.3   173  VAL173      0.0266
    148  CG1       14.2820  -19.9500   28.6040 C.3   173  VAL173      0.0020
    149  CG2       16.4300  -19.2910   27.5190 C.3   173  VAL173      0.0020
    150  N         16.0240  -15.9960   27.9370 N.am  174  ASP174     -0.1974
    151  CA        17.0870  -15.0430   27.6730 C.3   174  ASP174      0.1709
    152  C         16.6670  -13.9110   26.7270 C.2   174  ASP174      0.2293
    153  O         16.8740  -13.9870   25.5180 O.2   174  ASP174     -0.2864
    154  CB        18.3530  -15.7510   27.1680 C.3   174  ASP174      0.1436
    155  CG        19.6100  -14.8830   27.3020 C.2   174  ASP174      0.3671
    156  OD1       19.5130  -13.6340   27.2380 O.co2 174  ASP174     -0.2456
    157  OD2       20.7050  -15.4600   27.4850 O.co2 174  ASP174     -0.2456
@<TRIPOS>BOND
     1   126   124   ar
     2   118   119    1
     3   124   125   ar
     4   124   123    1
     5   134   132   am
     6   123   122    1
     7   119   122    1
     8   119   120    1
     9   127   120   am
    10   127   128    1
    11   110   111    1
    12   131   132    1
    13   131   128    1
    14   132   133    2
    15   113   112    2
    16   112   111    1
    17   120   121    2
    18   129   128    1
    19   129   130    2
    20   111   114    1
    21   108   107    2
    22   104   105    2
    23   104   103    1
    24   153   152    2
    25   107   106    1
    26   107   109   am
    27   146   145    2
    28   135   136    1
    29   114   115    1
    30   116   115   ar
    31   106   103    1
    32   103   102    1
    33   143   144    1
    34   115   117   ar
    35   138   137    2
    36   152   151    1
    37   137   136    1
    38   136   139    1
    39    98    96   ar
    40    98   100   ar
    41   145   144    1
    42   145   150   am
    43   154   155    1
    44   154   151    1
    45   101   100    1
    46   156   155   ar
    47   155   157   ar
    48    96    95   ar
    49   102    92   am
    50   144   147    1
    51   149   147    1
    52   100    99   ar
    53   151   150    1
    54    93    92    2
    55    92    91    1
    56   142   140    1
    57   139   140    1
    58   147   148    1
    59    95    94    1
    60    95    97   ar
    61   140   141    1
    62    99    97   ar
    63    94    91    1
    64    91    90    1
    65    16    18   ar
    66    16    14   ar
    67    18    19   ar
    68     9    10    1
    69    41    42    1
    70    90    86   am
    71    46    45    1
    72    13    14    1
    73    13    10    1
    74    14    15   ar
    75    19    17   ar
    76    10    11    1
    77    47    45    1
    78    82    81    1
    79    40    39    1
    80    42    45    1
    81    42    43    1
    82    86    87    2
    83    86    85    1
    84    88    85    1
    85    88    89    1
    86    15    17   ar
    87    44    43    2
    88    39    38    1
    89    11    12    2
    90    80    81    1
    91    80    77    1
    92    85    84    1
    93    81    83    1
    94    84    78   am
    95     4     3    2
    96    38    37    1
    97     7     5    1
    98    26    24    1
    99    67    65   ar
   100     3     2    1
   101    78    77    1
   102    78    79    2
   103    57    58   ar
   104    57    55   ar
   105    77    76    1
   106    58    56   ar
   107    37    36    1
   108    24    25    1
   109    24    21    1
   110    55    53   ar
   111     5     2    1
   112     5     6    1
   113    65    64    1
   114    65    66   ar
   115    76    70   am
   116     2     1    1
   117    56    54   ar
   118    20    21    1
   119    53    54   ar
   120    53    52    1
   121    64    63    1
   122    36    33    1
   123    21    22    1
   124     6     8    1
   125    62    61    2
   126    52    49    1
   127    70    71    2
   128    70    69    1
   129    23    22    2
   130    75    74    1
   131    33    34    1
   132    33    32    1
   133    31    28    1
   134    61    60    1
   135    61    68   am
   136    63    60    1
   137    69    68    1
   138    69    72    1
   139    59    60    1
   140    59    50   am
   141    49    50    1
   142    49    48    1
   143    34    35    2
   144    73    74    1
   145    73    72    1
   146    50    51    2
   147    28    29    1
   148    28    27    1
   149    30    29    2
