@<TRIPOS>MOLECULE
tmp/6ej7A01.pdb
 231 225 0 0 0
SMALL
GASTEIGER

@<TRIPOS>ATOM
      1  N          6.9560   28.3950   52.4070 N.3    82  VAL82      -0.1231
      2  CA         5.5170   28.6480   52.3900 C.3    82  VAL82       0.1692
      3  C          5.2880   29.9530   53.1410 C.2    82  VAL82       0.2592
      4  O          5.4870   30.0130   54.3590 O.2    82  VAL82      -0.2718
      5  CB         4.7270   27.4940   53.0260 C.3    82  VAL82       0.0266
      6  CG1        3.2370   27.8230   53.0860 C.3    82  VAL82       0.0020
      7  CG2        4.9480   26.2120   52.2550 C.3    82  VAL82       0.0020
      8  N          4.8570   30.9970   52.4290 N.am   83  VAL83      -0.1966
      9  CA         4.8620   32.3530   52.9670 C.3    83  VAL83       0.1727
     10  C          3.5410   33.0540   52.6700 C.2    83  VAL83       0.2616
     11  O          2.7950   32.6760   51.7640 O.2    83  VAL83      -0.2715
     12  CB         6.0400   33.1760   52.4010 C.3    83  VAL83       0.0290
     13  CG1        7.3610   32.5450   52.8010 C.3    83  VAL83       0.0023
     14  CG2        5.9490   33.2820   50.8840 C.3    83  VAL83       0.0023
     15  N          3.2650   34.0950   53.4590 N.am   84  HIS84      -0.1973
     16  CA         2.1040   34.9550   53.2580 C.3    84  HIS84       0.1656
     17  C          2.3410   36.2620   54.0110 C.2    84  HIS84       0.2291
     18  O          3.2570   36.3730   54.8280 O.2    84  HIS84      -0.2864
     19  CB         0.8140   34.2780   53.7380 C.3    84  HIS84       0.0771
     20  CG         0.6230   34.3310   55.2220 C.ar   84  HIS84       0.0820
     21  ND1        1.2590   33.4670   56.0860 N.ar   84  HIS84      -0.2267
     22  CD2       -0.1210   35.1570   55.9960 C.ar   84  HIS84       0.1154
     23  CE1        0.9100   33.7520   57.3280 C.ar   84  HIS84       0.1986
     24  NE2        0.0750   34.7760   57.3020 N.ar   84  HIS84      -0.2212
     25  N          0.8040   32.3740   49.3330 N.3   110  ASP110     -0.1239
     26  CA        -0.6500   32.3330   49.4580 C.3   110  ASP110      0.1674
     27  C         -1.3160   33.1420   48.3530 C.2   110  ASP110      0.2266
     28  O         -0.9520   34.2930   48.1010 O.2   110  ASP110     -0.2867
     29  CB        -1.0630   32.8730   50.8280 C.3   110  ASP110      0.1410
     30  CG        -2.5740   32.8530   51.0490 C.2   110  ASP110      0.3668
     31  OD1       -3.3610   33.0410   50.0960 O.co2 110  ASP110     -0.2456
     32  OD2       -2.9820   32.6640   52.2050 O.co2 110  ASP110     -0.2456
     33  N         -3.7770   34.8080   48.2560 N.3   112  ARG112     -0.1245
     34  CA        -4.2840   36.1100   48.6800 C.3   112  ARG112      0.1563
     35  C         -3.1960   37.1770   48.7760 C.2   112  ARG112      0.2260
     36  O         -3.5190   38.3700   48.7360 O.2   112  ARG112     -0.2867
     37  CB        -4.9830   35.9940   50.0400 C.3   112  ARG112      0.0307
     38  CG        -6.4410   35.5190   49.9940 C.3   112  ARG112      0.0489
     39  CD        -6.5810   34.0050   50.1470 C.3   112  ARG112      0.2205
     40  NE        -5.8690   33.4860   51.3140 N.pl3 112  ARG112     -0.0865
     41  CZ        -6.3780   33.3700   52.5380 C.cat 112  ARG112      0.5346
     42  NH1       -7.6260   33.7350   52.7930 N.pl3 112  ARG112      0.1354
     43  NH2       -5.6300   32.8810   53.5180 N.pl3 112  ARG112      0.1354
     44  N         -3.9330   28.9680   51.5530 N.3   139  THR139     -0.1203
     45  CA        -3.5140   28.0680   52.6330 C.3   139  THR139      0.1994
     46  C         -3.8660   28.6600   54.0010 C.2   139  THR139      0.2618
     47  O         -3.0080   29.0700   54.7890 O.2   139  THR139     -0.2717
     48  CB        -2.0200   27.7760   52.5280 C.3   139  THR139      0.1784
     49  OG1       -1.3210   28.9440   52.0720 O.3   139  THR139     -0.2211
     50  CG2       -1.7590   26.6270   51.5670 C.3   139  THR139      0.0376
     51  N         -5.1700   28.6530   54.2940 N.am  140  ILE140     -0.1965
     52  CA        -5.6630   29.1660   55.5680 C.3   140  ILE140      0.1727
     53  C         -5.0370   28.3940   56.7260 C.2   140  ILE140      0.2616
     54  O         -4.5750   27.2560   56.5790 O.2   140  ILE140     -0.2715
     55  CB        -7.1970   29.0910   55.6370 C.3   140  ILE140      0.0290
     56  CG1       -7.6780   27.6410   55.4610 C.3   140  ILE140      0.0022
     57  CG2       -7.8210   30.0060   54.5880 C.3   140  ILE140      0.0023
     58  CD1       -9.1750   27.4520   55.6310 C.3   140  ILE140      0.0001
     59  N         -5.0370   29.0240   57.8990 N.am  141  TRP141     -0.1960
     60  CA        -4.4920   28.3840   59.0880 C.3   141  TRP141      0.1771
     61  C         -5.2550   27.0990   59.3930 C.2   141  TRP141      0.2620
     62  O         -6.4900   27.0820   59.4090 O.2   141  TRP141     -0.2715
     63  CB        -4.5680   29.3410   60.2790 C.3   141  TRP141      0.0590
     64  CG        -3.8350   28.8540   61.4960 C.ar  141  TRP141      0.0006
     65  CD1       -2.5940   29.2400   61.9140 C.ar  141  TRP141      0.0946
     66  CD2       -4.2980   27.8910   62.4530 C.ar  141  TRP141      0.0152
     67  NE1       -2.2570   28.5780   63.0690 N.ar  141  TRP141     -0.2442
     68  CE2       -3.2860   27.7440   63.4210 C.ar  141  TRP141      0.0810
     69  CE3       -5.4720   27.1400   62.5850 C.ar  141  TRP141      0.0012
     70  CZ2       -3.4090   26.8770   64.5050 C.ar  141  TRP141      0.0191
     71  CZ3       -5.5920   26.2810   63.6620 C.ar  141  TRP141      0.0001
     72  CH2       -4.5670   26.1570   64.6080 C.ar  141  TRP141      0.0015
     73  N         -4.5110   26.0190   59.6370 N.am  142  GLY142     -0.1954
     74  CA        -5.1030   24.7300   59.9390 C.3   142  GLY142      0.1869
     75  C         -5.8050   24.0560   58.7830 C.2   142  GLY142      0.2309
     76  O         -6.3860   22.9790   58.9750 O.2   142  GLY142     -0.2863
     77  N         -2.8480   22.9070   53.2560 N.3   146  LEU146     -0.1245
     78  CA        -1.4140   22.9520   53.5190 C.3   146  LEU146      0.1561
     79  C         -0.7520   21.6250   53.1640 C.2   146  LEU146      0.2260
     80  O          0.3720   21.6050   52.6510 O.2   146  LEU146     -0.2867
     81  CB        -1.1480   23.3140   54.9830 C.3   146  LEU146      0.0270
     82  CG         0.3330   23.4450   55.3700 C.3   146  LEU146      0.0019
     83  CD1        1.0210   24.5350   54.5620 C.3   146  LEU146      0.0001
     84  CD2        0.5010   23.7160   56.8580 C.3   146  LEU146      0.0001
     85  N          2.1570   20.8390   50.2480 N.3   150  TYR150     -0.1241
     86  CA         3.3890   20.0730   50.4150 C.3   150  TYR150      0.1605
     87  C          3.4580   18.9110   49.4340 C.2   150  TYR150      0.2264
     88  O          4.5220   18.6350   48.8670 O.2   150  TYR150     -0.2867
     89  CB         3.5020   19.5540   51.8490 C.3   150  TYR150      0.0534
     90  CG         3.8510   20.6040   52.8830 C.ar  150  TYR150     -0.0201
     91  CD1        4.7990   21.5900   52.6220 C.ar  150  TYR150     -0.0009
     92  CD2        3.2340   20.6070   54.1250 C.ar  150  TYR150     -0.0009
     93  CE1        5.1160   22.5500   53.5730 C.ar  150  TYR150      0.0417
     94  CE2        3.5430   21.5610   55.0800 C.ar  150  TYR150      0.0417
     95  CZ         4.4820   22.5290   54.8000 C.ar  150  TYR150      0.1957
     96  OH         4.7850   23.4750   55.7560 O.3   150  TYR150     -0.2866
     97  N          8.8110   28.7980   56.9390 N.3   172  SER172     -0.1202
     98  CA         7.9280   29.9480   56.7920 C.3   172  SER172      0.2020
     99  C          8.7360   31.2380   56.8340 C.2   172  SER172      0.2619
    100  O          9.9390   31.2430   57.1130 O.2   172  SER172     -0.2717
    101  CB         6.8640   29.9730   57.8960 C.3   172  SER172      0.2103
    102  OG         7.3910   30.5120   59.0990 O.3   172  SER172     -0.2182
    103  N          8.0510   32.3520   56.5650 N.am  173  ALA173     -0.1965
    104  CA         8.6930   33.6620   56.6460 C.3   173  ALA173      0.1728
    105  C          8.9890   34.0870   58.0780 C.2   173  ALA173      0.2616
    106  O          9.5790   35.1550   58.2740 O.2   173  ALA173     -0.2715
    107  CB         7.8220   34.7200   55.9650 C.3   173  ALA173      0.0334
    108  N          8.5960   33.2950   59.0740 N.am  174  ALA174     -0.1977
    109  CA         8.8970   33.5820   60.4700 C.3   174  ALA174      0.1597
    110  C          9.9310   32.6250   61.0550 C.2   174  ALA174      0.2287
    111  O         10.1370   32.6200   62.2730 O.2   174  ALA174     -0.2864
    112  CB         7.6130   33.5420   61.3020 C.3   174  ALA174      0.0319
    113  N          4.4970   19.9690   62.3810 N.3   243  ASP243     -0.1225
    114  CA         4.5000   19.8670   60.9280 C.3   243  ASP243      0.1805
    115  C          5.6620   20.6310   60.2910 C.2   243  ASP243      0.2597
    116  O          5.6010   20.9640   59.1030 O.2   243  ASP243     -0.2718
    117  CB         3.1610   20.3370   60.3550 C.3   243  ASP243      0.1424
    118  CG         2.8690   21.7920   60.6520 C.2   243  ASP243      0.3668
    119  OD1        3.7540   22.4850   61.1920 O.co2 243  ASP243     -0.2456
    120  OD2        1.7420   22.2390   60.3470 O.co2 243  ASP243     -0.2456
    121  N          6.7170   20.9090   61.0590 N.am  244  TRP244     -0.1976
    122  CA         8.0040   21.3540   60.5280 C.3   244  TRP244      0.1640
    123  C          8.9920   20.2000   60.6650 C.2   244  TRP244      0.2290
    124  O          9.1860   19.6820   61.7710 O.2   244  TRP244     -0.2864
    125  CB         8.5010   22.5980   61.2680 C.3   244  TRP244      0.0576
    126  CG         7.4800   23.6940   61.2610 C.ar  244  TRP244      0.0006
    127  CD1        6.6990   24.0970   62.3030 C.ar  244  TRP244      0.0946
    128  CD2        7.0970   24.4930   60.1390 C.ar  244  TRP244      0.0152
    129  NE1        5.8580   25.1060   61.9020 N.ar  244  TRP244     -0.2442
    130  CE2        6.0840   25.3700   60.5770 C.ar  244  TRP244      0.0810
    131  CE3        7.5170   24.5560   58.8070 C.ar  244  TRP244      0.0012
    132  CZ2        5.4860   26.3000   59.7340 C.ar  244  TRP244      0.0191
    133  CZ3        6.9260   25.4830   57.9700 C.ar  244  TRP244      0.0001
    134  CH2        5.9160   26.3410   58.4360 C.ar  244  TRP244      0.0015
    135  N         -5.4620   20.4470   60.4210 N.3   275  LEU275     -0.1245
    136  CA        -4.0330   20.4370   60.7110 C.3   275  LEU275      0.1561
    137  C         -3.3740   19.1610   60.1760 C.2   275  LEU275      0.2260
    138  O         -2.6400   18.4830   60.9050 O.2   275  LEU275     -0.2867
    139  CB        -3.7870   20.5760   62.2070 C.3   275  LEU275      0.0270
    140  CG        -4.1070   21.9380   62.8280 C.3   275  LEU275      0.0019
    141  CD1       -4.3080   21.8180   64.3350 C.3   275  LEU275      0.0001
    142  CD2       -2.9940   22.9240   62.5200 C.3   275  LEU275      0.0001
    143  N          0.3950   17.9280   60.5500 N.3   278  GLU278     -0.1245
    144  CA         0.9010   17.6520   61.8860 C.3   278  GLU278      0.1567
    145  C          0.7880   16.1820   62.2780 C.2   278  GLU278      0.2260
    146  O          1.2120   15.8220   63.3820 O.2   278  GLU278     -0.2867
    147  CB         0.1710   18.5190   62.9200 C.3   278  GLU278      0.0388
    148  CG         0.6160   19.9820   62.9120 C.3   278  GLU278      0.1160
    149  CD         0.1260   20.7680   64.1200 C.2   278  GLU278      0.3649
    150  OE1       -0.8150   20.3060   64.7990 O.co2 278  GLU278     -0.2457
    151  OE2        0.6890   21.8540   64.3930 O.co2 278  GLU278     -0.2457
    152  N         10.8050   25.5500   68.7570 N.3   302  THR302     -0.1218
    153  CA         9.5250   26.2420   68.6260 C.3   302  THR302      0.1862
    154  C          9.1800   26.8970   69.9580 C.2   302  THR302      0.2287
    155  O          9.1220   26.2210   70.9890 O.2   302  THR302     -0.2866
    156  CB         8.4170   25.2750   68.2020 C.3   302  THR302      0.1770
    157  OG1        8.7930   24.6170   66.9850 O.3   302  THR302     -0.2211
    158  CG2        7.1010   26.0260   67.9810 C.3   302  THR302      0.0375
    159  N          6.9400   27.7230   72.0810 N.3   304  TRP304     -0.1241
    160  CA         5.6120   27.5160   72.6450 C.3   304  TRP304      0.1605
    161  C          5.5070   28.1670   74.0200 C.2   304  TRP304      0.2264
    162  O          6.4020   28.0260   74.8580 O.2   304  TRP304     -0.2867
    163  CB         5.2950   26.0220   72.7510 C.3   304  TRP304      0.0550
    164  CG         4.9370   25.3830   71.4420 C.ar  304  TRP304      0.0003
    165  CD1        5.6810   24.4810   70.7380 C.ar  304  TRP304      0.0946
    166  CD2        3.7470   25.6060   70.6750 C.ar  304  TRP304      0.0152
    167  NE1        5.0280   24.1270   69.5820 N.ar  304  TRP304     -0.2442
    168  CE2        3.8380   24.8040   69.5200 C.ar  304  TRP304      0.0810
    169  CE3        2.6130   26.4050   70.8540 C.ar  304  TRP304      0.0012
    170  CZ2        2.8420   24.7800   68.5490 C.ar  304  TRP304      0.0191
    171  CZ3        1.6230   26.3780   69.8880 C.ar  304  TRP304      0.0001
    172  CH2        1.7430   25.5710   68.7520 C.ar  304  TRP304      0.0015
    173  N         -8.6200   31.5660   66.2410 N.3   314  TYR314     -0.1241
    174  CA        -8.8950   31.2580   64.8430 C.3   314  TYR314      0.1605
    175  C        -10.3270   30.7790   64.6200 C.2   314  TYR314      0.2264
    176  O        -10.6090   30.1460   63.5980 O.2   314  TYR314     -0.2867
    177  CB        -7.9100   30.2070   64.3290 C.3   314  TYR314      0.0534
    178  CG        -6.4630   30.6390   64.3940 C.ar  314  TYR314     -0.0201
    179  CD1       -5.9340   31.5100   63.4510 C.ar  314  TYR314     -0.0009
    180  CD2       -5.6230   30.1730   65.3960 C.ar  314  TYR314     -0.0009
    181  CE1       -4.6090   31.9070   63.5070 C.ar  314  TYR314      0.0417
    182  CE2       -4.2990   30.5650   65.4610 C.ar  314  TYR314      0.0417
    183  CZ        -3.7970   31.4320   64.5140 C.ar  314  TYR314      0.1957
    184  OH        -2.4790   31.8250   64.5740 O.3   314  TYR314     -0.2866
    185  N        -11.8750   31.2640   61.3030 N.3   317  ILE317     -0.1245
    186  CA       -11.2950   30.5540   60.1730 C.3   317  ILE317      0.1561
    187  C        -11.6090   29.0610   60.2220 C.2   317  ILE317      0.2260
    188  O        -11.8810   28.4510   59.1870 O.2   317  ILE317     -0.2867
    189  CB        -9.7700   30.7950   60.1200 C.3   317  ILE317      0.0252
    190  CG1       -9.4530   32.2980   60.1530 C.3   317  ILE317      0.0019
    191  CG2       -9.1800   30.1610   58.8640 C.3   317  ILE317      0.0019
    192  CD1       -7.9860   32.6080   60.2860 C.3   317  ILE317      0.0001
    193  N         -3.7800   26.8920   68.7570 N.3   323  CYS323     -0.1221
    194  CA        -2.7090   27.5630   69.4810 C.3   323  CYS323      0.1808
    195  C         -1.5870   27.9250   68.5160 C.2   323  CYS323      0.2602
    196  O         -1.4240   27.3090   67.4590 O.2   323  CYS323     -0.2717
    197  CB        -2.1430   26.6800   70.6020 C.3   323  CYS323      0.0970
    198  SG        -3.3400   26.0950   71.8220 S.3   323  CYS323     -0.0800
    199  N         -0.7940   28.9190   68.9060 N.am  324  SER324     -0.1938
    200  CA         0.3370   29.3750   68.1110 C.3   324  SER324      0.2040
    201  C          1.5140   29.6750   69.0270 C.2   324  SER324      0.2485
    202  O          1.3190   30.1120   70.1680 O.2   324  SER324     -0.2729
    203  CB        -0.0050   30.6350   67.2990 C.3   324  SER324      0.2129
    204  OG        -0.9200   30.3380   66.2590 O.3   324  SER324     -0.2179
    205  N          2.7420   29.4520   68.5610 N.am  325  PRO325     -0.2726
    206  CA         3.9150   29.8220   69.3560 C.3   325  PRO325      0.1402
    207  C          4.1690   31.3210   69.3120 C.2   325  PRO325      0.2269
    208  O          3.7230   32.0350   68.4120 O.2   325  PRO325     -0.2865
    209  CB         5.0550   29.0500   68.6850 C.3   325  PRO325      0.0296
    210  CG         4.6250   28.9220   67.2750 C.3   325  PRO325      0.0237
    211  CD         3.1250   28.7800   67.3100 C.3   325  PRO325      0.0939
    212  N         11.6520   29.2030   65.3800 N.3   347  ARG347     -0.1231
    213  CA        10.5240   30.0630   65.0390 C.3   347  ARG347      0.1694
    214  C          9.7360   30.3320   66.3140 C.2   347  ARG347      0.2591
    215  O          9.7420   29.5030   67.2280 O.2   347  ARG347     -0.2718
    216  CB         9.6340   29.4150   63.9700 C.3   347  ARG347      0.0321
    217  CG         8.8400   28.2050   64.4580 C.3   347  ARG347      0.0489
    218  CD         8.2220   27.4330   63.2960 C.3   347  ARG347      0.2205
    219  NE         7.5260   28.3140   62.3580 N.pl3 347  ARG347     -0.0865
    220  CZ         6.2710   28.7310   62.5010 C.cat 347  ARG347      0.5346
    221  NH1        5.5540   28.3570   63.5530 N.pl3 347  ARG347      0.1354
    222  NH2        5.7320   29.5360   61.5920 N.pl3 347  ARG347      0.1354
    223  N          9.0440   31.4780   66.3850 N.am  348  LYS348     -0.1980
    224  CA         8.8450   32.4490   65.3020 C.3   348  LYS348      0.1596
    225  C          9.5720   33.7740   65.5450 C.2   348  LYS348      0.2287
    226  O          9.8390   34.1540   66.6850 O.2   348  LYS348     -0.2864
    227  CB         7.3540   32.7490   65.1260 C.3   348  LYS348      0.0298
    228  CG         6.5110   31.5630   64.6900 C.3   348  LYS348      0.0038
    229  CD         5.0280   31.9160   64.6730 C.3   348  LYS348      0.0206
    230  CE         4.6850   32.9170   63.5740 C.3   348  LYS348      0.1093
    231  NZ         3.2310   33.2760   63.5620 N.3   348  LYS348     -0.1314
@<TRIPOS>BOND
     1    28    27    2
     2    33    34    1
     3    27    26    1
     4    34    35    1
     5    34    37    1
     6    36    35    2
     7    88    87    2
     8    25    26    1
     9    87    86    1
    10    26    29    1
    11    38    37    1
    12    38    39    1
    13    31    30   ar
    14    39    40    1
    15    85    86    1
    16    86    89    1
    17    29    30    1
    18    14    12    1
    19    30    32   ar
    20    40    41    2
    21    44    45    1
    22    50    48    1
    23    11    10    2
    24    89    90    1
    25    49    48    1
    26     7     5    1
    27     2     1    1
    28     2     5    1
    29     2     3    1
    30    12    13    1
    31    12     9    1
    32     8     9    1
    33     8     3   am
    34    48    45    1
    35    41    42    1
    36    41    43    1
    37    91    90   ar
    38    91    93   ar
    39    45    46    1
    40    80    79    2
    41    10     9    1
    42    10    15   am
    43    90    92   ar
    44     5     6    1
    45     3     4    2
    46    79    78    1
    47    77    78    1
    48    16    15    1
    49    16    19    1
    50    16    17    1
    51    78    81    1
    52    93    95   ar
    53    19    20    1
    54    46    51   am
    55    46    47    2
    56    17    18    2
    57    92    94   ar
    58    51    52    1
    59    83    82    1
    60    57    55    1
    61    95    94   ar
    62    95    96    1
    63    81    82    1
    64    20    22   ar
    65    20    21   ar
    66    82    84    1
    67    56    58    1
    68    56    55    1
    69    52    55    1
    70    52    53    1
    71   107   104    1
    72    22    24   ar
    73    21    23   ar
    74   103   104    1
    75   103    99   am
    76    54    53    2
    77   104   105    1
    78    53    59   am
    79    98    99    1
    80    98    97    1
    81    98   101    1
    82    99   100    2
    83    24    23   ar
    84   101   102    1
    85    59    60    1
    86   133   134   ar
    87   133   131   ar
    88   105   106    2
    89   105   108   am
    90   134   132   ar
    91    75    76    2
    92    75    74    1
    93   131   128   ar
    94   191   189    1
    95   108   109    1
    96    60    61    1
    97    60    63    1
    98   116   115    2
    99   188   187    2
   100    61    62    2
   101    61    73   am
   102    73    74    1
   103   132   130   ar
   104   189   190    1
   105   189   186    1
   106   128   130   ar
   107   128   126   ar
   108   190   192    1
   109   186   187    1
   110   186   185    1
   111   137   136    1
   112   137   138    2
   113    63    64    1
   114   115   114    1
   115   115   121   am
   116   120   118   ar
   117   117   118    1
   118   117   114    1
   119   135   136    1
   120   109   110    1
   121   109   112    1
   122   122   123    1
   123   122   121    1
   124   122   125    1
   125   143   144    1
   126   130   129   ar
   127   118   119   ar
   128   123   124    2
   129   136   139    1
   130   114   113    1
   131   110   111    2
   132   126   125    1
   133   126   127   ar
   134    64    65   ar
   135    64    66   ar
   136   222   220    1
   137   144   145    1
   138   144   147    1
   139   129   127   ar
   140    65    67   ar
   141   139   140    1
   142   145   146    2
   143   219   220    2
   144   219   218    1
   145    66    69   ar
   146    66    68   ar
   147   220   221    1
   148   142   140    1
   149    69    71   ar
   150   140   141    1
   151   148   147    1
   152   148   149    1
   153    67    68   ar
   154   218   217    1
   155    68    70   ar
   156   179   181   ar
   157   179   178   ar
   158   181   183   ar
   159   231   230    1
   160   230   229    1
   161   176   175    2
   162    71    72   ar
   163   216   217    1
   164   216   213    1
   165   149   151   ar
   166   149   150   ar
   167   177   178    1
   168   177   174    1
   169   178   180   ar
   170    70    72   ar
   171   183   184    1
   172   183   182   ar
   173   175   174    1
   174   229   228    1
   175   228   227    1
   176   174   173    1
   177   213   212    1
   178   213   214    1
   179   227   224    1
   180   224   225    1
   181   224   223    1
   182   180   182   ar
   183   225   226    2
   184   204   203    1
   185   214   223   am
   186   214   215    2
   187   157   156    1
   188   210   211    1
   189   210   209    1
   190   203   200    1
   191   211   205    1
   192   196   195    2
   193   158   156    1
   194   200   199    1
   195   200   201    1
   196   156   153    1
   197   208   207    2
   198   195   199   am
   199   195   194    1
   200   170   172   ar
   201   170   168   ar
   202   205   201   am
   203   205   206    1
   204   153   152    1
   205   153   154    1
   206   209   206    1
   207   172   171   ar
   208   193   194    1
   209   201   202    2
   210   207   206    1
   211   194   197    1
   212   168   167   ar
   213   168   166   ar
   214   167   165   ar
   215   171   169   ar
   216   154   155    2
   217   197   198    1
   218   166   169   ar
   219   166   164   ar
   220   165   164   ar
   221   164   163    1
   222   159   160    1
   223   160   163    1
   224   160   161    1
   225   161   162    2
