@<TRIPOS>MOLECULE
tmp/6ej7A02.pdb
 97 91 0 0 0
SMALL
GASTEIGER

@<TRIPOS>ATOM
      1  N          8.0180   41.3250   53.4320 N.3    88  SER88      -0.1202
      2  CA         8.8960   40.8970   52.3450 C.3    88  SER88       0.2020
      3  C         10.3690   41.1390   52.6670 C.2    88  SER88       0.2618
      4  O         11.2290   40.3390   52.2770 O.2    88  SER88      -0.2717
      5  CB         8.5160   41.6110   51.0490 C.3    88  SER88       0.2103
      6  OG         8.5940   43.0200   51.1960 O.3    88  SER88      -0.2182
      7  N         10.6890   42.2420   53.3560 N.am   89  ARG89      -0.1979
      8  CA        12.0910   42.5510   53.6330 C.3    89  ARG89       0.1597
      9  C         12.6970   41.5870   54.6480 C.2    89  ARG89       0.2287
     10  O         13.8920   41.2800   54.5690 O.2    89  ARG89      -0.2864
     11  CB        12.2380   43.9930   54.1230 C.3    89  ARG89       0.0334
     12  CG        11.9930   45.0450   53.0390 C.3    89  ARG89       0.0492
     13  CD        12.5690   46.4130   53.4120 C.3    89  ARG89       0.2205
     14  NE        12.1460   47.4590   52.4800 N.pl3  89  ARG89      -0.0865
     15  CZ        12.7390   48.6430   52.3480 C.cat  89  ARG89       0.5346
     16  NH1       13.8070   48.9470   53.0790 N.pl3  89  ARG89       0.1354
     17  NH2       12.2660   49.5270   51.4760 N.pl3  89  ARG89       0.1354
     18  N         13.4590   38.4340   52.7630 N.3    92  GLN92      -0.1245
     19  CA        14.6910   38.5940   51.9980 C.3    92  GLN92       0.1566
     20  C         15.9140   38.4460   52.8940 C.2    92  GLN92       0.2260
     21  O         16.9080   37.8250   52.5000 O.2    92  GLN92      -0.2867
     22  CB        14.6860   39.9540   51.2890 C.3    92  GLN92       0.0367
     23  CG        13.7950   39.9750   50.0470 C.3    92  GLN92       0.0905
     24  CD        13.4130   41.3720   49.5760 C.2    92  GLN92       0.2608
     25  OE1       12.4430   41.5320   48.8340 O.2    92  GLN92      -0.2717
     26  NE2       14.1710   42.3840   49.9920 N.am   92  GLN92      -0.0878
     27  N          0.8990   41.2030   46.8410 N.3   115  TYR115     -0.1241
     28  CA         2.0720   42.0610   46.9960 C.3   115  TYR115      0.1605
     29  C          3.3280   41.2280   47.2250 C.2   115  TYR115      0.2264
     30  O          4.3470   41.4140   46.5490 O.2   115  TYR115     -0.2867
     31  CB         1.8830   43.0430   48.1530 C.3   115  TYR115      0.0534
     32  CG         3.2070   43.6250   48.6100 C.ar  115  TYR115     -0.0201
     33  CD1        3.8420   44.6180   47.8740 C.ar  115  TYR115     -0.0009
     34  CD2        3.8390   43.1560   49.7560 C.ar  115  TYR115     -0.0009
     35  CE1        5.0610   45.1410   48.2740 C.ar  115  TYR115      0.0417
     36  CE2        5.0620   43.6710   50.1650 C.ar  115  TYR115      0.0417
     37  CZ         5.6690   44.6600   49.4170 C.ar  115  TYR115      0.1957
     38  OH         6.8820   45.1760   49.8180 O.3   115  TYR115     -0.2866
     39  N          7.0400   40.5610   44.9090 N.3   119  GLN119     -0.1245
     40  CA         8.3930   40.7240   45.4320 C.3   119  GLN119      0.1566
     41  C          9.1880   39.4280   45.3110 C.2   119  GLN119      0.2260
     42  O         10.3950   39.4550   45.0440 O.2   119  GLN119     -0.2867
     43  CB         8.3450   41.1900   46.8890 C.3   119  GLN119      0.0367
     44  CG         7.5140   42.4540   47.1300 C.3   119  GLN119      0.0905
     45  CD         7.9170   43.6120   46.2370 C.2   119  GLN119      0.2608
     46  OE1        9.0330   44.1180   46.3230 O.2   119  GLN119     -0.2717
     47  NE2        7.0020   44.0400   45.3750 N.am  119  GLN119     -0.0878
     48  N         10.6700   38.8160   41.8080 N.3   122  GLN122     -0.1245
     49  CA        11.9260   39.5040   41.5280 C.3   122  GLN122      0.1566
     50  C         13.1220   38.6560   41.9420 C.2   122  GLN122      0.2260
     51  O         14.1540   38.6490   41.2630 O.2   122  GLN122     -0.2867
     52  CB        11.9570   40.8550   42.2440 C.3   122  GLN122      0.0367
     53  CG        10.8510   41.8110   41.8190 C.3   122  GLN122      0.0905
     54  CD        10.9340   43.1530   42.5300 C.2   122  GLN122      0.2608
     55  OE1       11.6390   43.2960   43.5310 O.2   122  GLN122     -0.2717
     56  NE2       10.2140   44.1440   42.0120 N.am  122  GLN122     -0.0878
     57  N          3.9770   52.5540   53.6900 N.3   436  HIS436     -0.1241
     58  CA         4.8810   51.7170   54.4710 C.3   436  HIS436      0.1621
     59  C          4.7380   52.0270   55.9550 C.2   436  HIS436      0.2264
     60  O          4.5760   53.1890   56.3440 O.2   436  HIS436     -0.2867
     61  CB         6.3580   51.9340   54.0770 C.3   436  HIS436      0.0745
     62  CG         6.7710   51.2490   52.8110 C.ar  436  HIS436      0.0817
     63  ND1        6.5700   51.8020   51.5650 N.ar  436  HIS436     -0.2268
     64  CD2        7.3990   50.0670   52.6020 C.ar  436  HIS436      0.1154
     65  CE1        7.0450   50.9850   50.6410 C.ar  436  HIS436      0.1986
     66  NE2        7.5540   49.9250   51.2440 N.ar  436  HIS436     -0.2212
     67  N         19.1780   49.8740   52.3110 N.3   691  ASP691     -0.1239
     68  CA        18.8370   48.8870   53.3410 C.3   691  ASP691      0.1674
     69  C         19.5880   47.5910   53.0480 C.2   691  ASP691      0.2266
     70  O         18.9860   46.5630   52.7170 O.2   691  ASP691     -0.2867
     71  CB        17.3230   48.6540   53.3840 C.3   691  ASP691      0.1410
     72  CG        16.8920   47.7730   54.5490 C.2   691  ASP691      0.3668
     73  OD1       17.6730   47.6320   55.5150 O.co2 691  ASP691     -0.2456
     74  OD2       15.7690   47.2170   54.4970 O.co2 691  ASP691     -0.2456
     75  N         18.7210   43.6700   53.7740 N.3   694  SER694     -0.1202
     76  CA        17.6460   42.9860   53.0670 C.3   694  SER694      0.2020
     77  C         17.8240   43.0120   51.5530 C.2   694  SER694      0.2619
     78  O         16.9090   42.6110   50.8270 O.2   694  SER694     -0.2717
     79  CB        16.2930   43.5970   53.4430 C.3   694  SER694      0.2103
     80  OG        16.1800   44.9320   52.9760 O.3   694  SER694     -0.2182
     81  N         18.9770   43.4570   51.0600 N.am  695  GLU695     -0.1965
     82  CA        19.2310   43.5620   49.6290 C.3   695  GLU695      0.1733
     83  C         20.0350   42.3610   49.1470 C.2   695  GLU695      0.2616
     84  O         20.9470   41.8940   49.8340 O.2   695  GLU695     -0.2715
     85  CB        19.9680   44.8670   49.3100 C.3   695  GLU695      0.0429
     86  CG        19.0830   46.1010   49.4760 C.3   695  GLU695      0.1163
     87  CD        19.8400   47.4180   49.3840 C.2   695  GLU695      0.3649
     88  OE1       21.0670   47.3970   49.1480 O.co2 695  GLU695     -0.2457
     89  OE2       19.1970   48.4800   49.5520 O.co2 695  GLU695     -0.2457
     90  N         19.6900   41.8660   47.9600 N.am  696  LEU696     -0.1977
     91  CA        20.2540   40.6360   47.4150 C.3   696  LEU696      0.1596
     92  C         21.0600   40.9630   46.1640 C.2   696  LEU696      0.2287
     93  O         20.5140   41.4990   45.1930 O.2   696  LEU696     -0.2864
     94  CB        19.1480   39.6310   47.0910 C.3   696  LEU696      0.0297
     95  CG        18.1610   39.3340   48.2220 C.3   696  LEU696      0.0022
     96  CD1       17.0200   38.4760   47.7130 C.3   696  LEU696      0.0001
     97  CD2       18.8580   38.6540   49.3880 C.3   696  LEU696      0.0001
@<TRIPOS>BOND
     1    51    50    2
     2    49    48    1
     3    49    50    1
     4    49    52    1
     5    53    52    1
     6    53    54    1
     7    56    54   am
     8    54    55    2
     9    39    40    1
    10    42    41    2
    11    93    92    2
    12    41    40    1
    13    47    45   am
    14    40    43    1
    15    92    91    1
    16    45    46    2
    17    45    44    1
    18    30    29    2
    19    27    28    1
    20    43    44    1
    21    28    29    1
    22    28    31    1
    23    94    91    1
    24    94    95    1
    25    91    90    1
    26    96    95    1
    27    33    35   ar
    28    33    32   ar
    29    90    83   am
    30    31    32    1
    31    95    97    1
    32    35    37   ar
    33    32    34   ar
    34    25    24    2
    35    83    82    1
    36    83    84    2
    37    88    87   ar
    38    85    86    1
    39    85    82    1
    40    87    86    1
    41    87    89   ar
    42    37    38    1
    43    37    36   ar
    44    24    26   am
    45    24    23    1
    46    82    81    1
    47    34    36   ar
    48    23    22    1
    49    65    66   ar
    50    65    63   ar
    51    78    77    2
    52     5     6    1
    53     5     2    1
    54    81    77   am
    55    66    64   ar
    56    22    19    1
    57    17    15    1
    58    77    76    1
    59    63    62   ar
    60    19    18    1
    61    19    20    1
    62     4     3    2
    63    67    68    1
    64     2     3    1
    65     2     1    1
    66    15    14    2
    67    15    16    1
    68    14    13    1
    69    21    20    2
    70    64    62   ar
    71     3     7   am
    72    70    69    2
    73    62    61    1
    74    80    79    1
    75    12    13    1
    76    12    11    1
    77    69    68    1
    78    76    79    1
    79    76    75    1
    80    68    71    1
    81     7     8    1
    82    71    72    1
    83     8    11    1
    84     8     9    1
    85    57    58    1
    86    61    58    1
    87    58    59    1
    88    74    72   ar
    89    72    73   ar
    90    10     9    2
    91    59    60    2
