@<TRIPOS>MOLECULE
tmp/6ej7A03.pdb
 86 83 0 0 0
SMALL
GASTEIGER

@<TRIPOS>ATOM
      1  N        -16.2820   63.6770   71.5780 N.3   534  PRO534     -0.2102
      2  CA       -15.6950   64.9880   71.2500 C.3   534  PRO534      0.1504
      3  C        -16.4790   66.1910   71.7530 C.2   534  PRO534      0.2575
      4  O        -15.9150   67.2910   71.7850 O.2   534  PRO534     -0.2718
      5  CB       -15.6360   64.9680   69.7150 C.3   534  PRO534      0.0282
      6  CG       -15.6110   63.5210   69.3570 C.3   534  PRO534      0.0208
      7  CD       -16.4890   62.8570   70.3720 C.3   534  PRO534      0.0893
      8  N        -17.7480   66.0370   72.1330 N.am  535  VAL535     -0.1980
      9  CA       -18.5270   67.1620   72.6500 C.3   535  VAL535      0.1595
     10  C        -18.8530   66.9310   74.1220 C.2   535  VAL535      0.2287
     11  O        -19.8770   67.4050   74.6250 O.2   535  VAL535     -0.2864
     12  CB       -19.8090   67.3920   71.8250 C.3   535  VAL535      0.0276
     13  CG1      -19.4590   67.8660   70.4230 C.3   535  VAL535      0.0022
     14  CG2      -20.6570   66.1370   71.7710 C.3   535  VAL535      0.0022
     15  N        -19.5440   59.5430   67.1300 N.3   564  ARG564     -0.1231
     16  CA       -19.4250   60.9310   66.7030 C.3   564  ARG564      0.1679
     17  C        -17.9750   61.2210   66.3200 C.2   564  ARG564      0.2434
     18  O        -17.0670   60.9420   67.1110 O.2   564  ARG564     -0.2733
     19  CB       -19.8840   61.8790   67.8110 C.3   564  ARG564      0.0321
     20  CG       -19.7990   63.3490   67.4210 C.3   564  ARG564      0.0489
     21  CD       -20.5570   64.2560   68.3860 C.3   564  ARG564      0.2205
     22  NE       -22.0050   64.2230   68.1630 N.pl3 564  ARG564     -0.0865
     23  CZ       -22.9030   63.6740   68.9790 C.cat 564  ARG564      0.5346
     24  NH1      -22.5350   63.0960   70.1170 N.pl3 564  ARG564      0.1354
     25  NH2      -24.1900   63.7130   68.6600 N.pl3 564  ARG564      0.1354
     26  N        -17.7080   61.7590   65.1290 N.am  565  PRO565     -0.2718
     27  CA       -16.3170   62.0320   64.7520 C.3   565  PRO565      0.1535
     28  C        -15.7040   63.1140   65.6260 C.2   565  PRO565      0.2599
     29  O        -16.3940   63.9940   66.1480 O.2   565  PRO565     -0.2715
     30  CB       -16.4200   62.4920   63.2920 C.3   565  PRO565      0.0310
     31  CG       -17.7720   62.0610   62.8350 C.3   565  PRO565      0.0237
     32  CD       -18.6400   62.0990   64.0420 C.3   565  PRO565      0.0939
     33  N        -14.3840   63.0410   65.7780 N.am  566  GLY566     -0.1955
     34  CA       -13.6290   63.9950   66.5580 C.3   566  GLY566      0.1869
     35  C        -12.6440   63.2960   67.4650 C.2   566  GLY566      0.2309
     36  O        -12.4230   62.0840   67.3730 O.2   566  GLY566     -0.2863
     37  N        -20.6190   74.2300   70.8080 N.3   634  GLN634     -0.1245
     38  CA       -19.8530   73.1730   70.1530 C.3   634  GLN634      0.1566
     39  C        -20.7570   72.0580   69.6420 C.2   634  GLN634      0.2260
     40  O        -20.4540   71.4410   68.6160 O.2   634  GLN634     -0.2867
     41  CB       -18.8040   72.6050   71.1120 C.3   634  GLN634      0.0367
     42  CG       -17.8490   73.6390   71.7100 C.3   634  GLN634      0.0905
     43  CD       -17.6310   74.8450   70.8160 C.2   634  GLN634      0.2608
     44  OE1      -17.9250   75.9780   71.2030 O.2   634  GLN634     -0.2717
     45  NE2      -17.1090   74.6110   69.6190 N.am  634  GLN634     -0.0878
     46  N        -20.9890   70.7660   65.7140 N.3   638  ALA638     -0.1245
     47  CA       -20.8460   69.3650   65.3310 C.3   638  ALA638      0.1562
     48  C        -21.9600   68.9430   64.3830 C.2   638  ALA638      0.2260
     49  O        -21.7360   68.1350   63.4730 O.2   638  ALA638     -0.2867
     50  CB       -20.8380   68.4750   66.5750 C.3   638  ALA638      0.0290
     51  N        -21.0430   70.3600   61.0770 N.3   641  ASN641     -0.1240
     52  CA       -19.9680   69.5620   60.5000 C.3   641  ASN641      0.1653
     53  C        -20.4910   68.2600   59.9050 C.2   641  ASN641      0.2266
     54  O        -19.9650   67.7860   58.8920 O.2   641  ASN641     -0.2867
     55  CB       -18.9070   69.2720   61.5630 C.3   641  ASN641      0.1155
     56  CG       -18.1100   70.5070   61.9530 C.2   641  ASN641      0.2627
     57  OD1      -17.9180   71.4180   61.1480 O.2   641  ASN641     -0.2716
     58  ND2      -17.6340   70.5370   63.1910 N.am  641  ASN641     -0.0877
     59  N        -12.4790   70.0830   57.6450 N.3   652  TRP652     -0.1241
     60  CA       -12.7680   69.5190   58.9600 C.3   652  TRP652      0.1605
     61  C        -11.8450   68.3420   59.2580 C.2   652  TRP652      0.2264
     62  O        -11.2310   68.2700   60.3290 O.2   652  TRP652     -0.2867
     63  CB       -14.2370   69.0940   59.0210 C.3   652  TRP652      0.0550
     64  CG       -14.6750   68.5200   60.3370 C.ar  652  TRP652      0.0003
     65  CD1      -14.1440   68.7810   61.5670 C.ar  652  TRP652      0.0946
     66  CD2      -15.7370   67.5800   60.5500 C.ar  652  TRP652      0.0152
     67  NE1      -14.8110   68.0630   62.5320 N.ar  652  TRP652     -0.2442
     68  CE2      -15.7920   67.3180   61.9340 C.ar  652  TRP652      0.0810
     69  CE3      -16.6470   66.9350   59.7050 C.ar  652  TRP652      0.0012
     70  CZ2      -16.7220   66.4400   62.4910 C.ar  652  TRP652      0.0191
     71  CZ3      -17.5680   66.0640   60.2610 C.ar  652  TRP652      0.0001
     72  CH2      -17.5980   65.8240   61.6400 C.ar  652  TRP652      0.0015
     73  N         -8.1060   69.3050   59.6690 N.3   655  SER655     -0.1202
     74  CA        -7.9280   70.0070   60.9360 C.3   655  SER655      0.2020
     75  C         -7.7800   69.0270   62.0940 C.2   655  SER655      0.2618
     76  O         -6.9140   69.2030   62.9610 O.2   655  SER655     -0.2717
     77  CB        -9.1100   70.9470   61.1760 C.3   655  SER655      0.2103
     78  OG        -9.2580   71.2350   62.5540 O.3   655  SER655     -0.2182
     79  N         -8.6170   67.9890   62.1310 N.am  656  LEU656     -0.1979
     80  CA        -8.4950   66.9730   63.1720 C.3   656  LEU656      0.1596
     81  C         -7.1880   66.2020   63.0320 C.2   656  LEU656      0.2287
     82  O         -6.4630   66.0050   64.0130 O.2   656  LEU656     -0.2864
     83  CB        -9.6880   66.0170   63.1130 C.3   656  LEU656      0.0297
     84  CG       -11.0610   66.6060   63.4470 C.3   656  LEU656      0.0022
     85  CD1      -12.1620   65.6420   63.0420 C.3   656  LEU656      0.0001
     86  CD2      -11.1630   66.9360   64.9280 C.3   656  LEU656      0.0001
@<TRIPOS>BOND
     1    59    60    1
     2    54    53    2
     3    60    63    1
     4    60    61    1
     5    63    64    1
     6    61    62    2
     7    73    74    1
     8    69    71   ar
     9    69    66   ar
    10    53    52    1
    11    71    72   ar
    12    64    66   ar
    13    64    65   ar
    14    52    51    1
    15    52    55    1
    16    66    68   ar
    17    74    77    1
    18    74    75    1
    19    57    56    2
    20    77    78    1
    21    55    56    1
    22    65    67   ar
    23    72    70   ar
    24    68    70   ar
    25    68    67   ar
    26    56    58   am
    27    75    79   am
    28    75    76    2
    29    79    80    1
    30    31    30    1
    31    31    32    1
    32    81    80    1
    33    81    82    2
    34    85    84    1
    35    83    80    1
    36    83    84    1
    37    30    27    1
    38    84    86    1
    39    49    48    2
    40    32    26    1
    41    48    47    1
    42    27    26    1
    43    27    28    1
    44    26    17   am
    45    47    46    1
    46    47    50    1
    47    28    33   am
    48    28    29    2
    49    33    34    1
    50    17    16    1
    51    17    18    2
    52    34    35    1
    53    16    15    1
    54    16    19    1
    55    36    35    2
    56    20    19    1
    57    20    21    1
    58    22    21    1
    59    22    23    2
    60    40    39    2
    61    25    23    1
    62    23    24    1
    63     6     5    1
    64     6     7    1
    65    45    43   am
    66    39    38    1
    67     5     2    1
    68    38    37    1
    69    38    41    1
    70     7     1    1
    71    13    12    1
    72    43    44    2
    73    43    42    1
    74    41    42    1
    75     2     1    1
    76     2     3    1
    77     3     4    2
    78     3     8   am
    79    14    12    1
    80    12     9    1
    81     8     9    1
    82     9    10    1
    83    10    11    2
