@<TRIPOS>MOLECULE
tmp/6ejjB00.pdb
 191 183 0 0 0
SMALL
GASTEIGER

@<TRIPOS>ATOM
      1  N         81.2450   37.3740   19.7750 N.3    14  SER14      -0.1202
      2  CA        81.9610   38.5610   20.2420 C.3    14  SER14       0.2020
      3  C         82.4170   39.4830   19.1140 C.2    14  SER14       0.2619
      4  O         83.6200   39.6280   18.8640 O.2    14  SER14      -0.2717
      5  CB        83.1650   38.1350   21.0890 C.3    14  SER14       0.2103
      6  OG        84.1880   37.5660   20.2870 O.3    14  SER14      -0.2182
      7  N         81.4550   40.1240   18.4410 N.am   15  GLY15      -0.1942
      8  CA        81.7520   41.0470   17.3690 C.3    15  GLY15       0.2014
      9  C         81.0670   42.3840   17.5880 C.2    15  GLY15       0.2639
     10  O         80.2540   42.5540   18.5030 O.2    15  GLY15      -0.2714
     11  N         81.3980   43.3310   16.7110 N.am   16  GLY16      -0.1939
     12  CA        80.8970   44.6900   16.7990 C.3    16  GLY16       0.2014
     13  C         79.4710   44.8730   16.3430 C.2    16  GLY16       0.2638
     14  O         78.6910   45.5470   17.0170 O.2    16  GLY16      -0.2714
     15  N         79.1200   44.3050   15.1870 N.am   17  ALA17      -0.1977
     16  CA        77.7370   44.3880   14.7310 C.3    17  ALA17       0.1597
     17  C         76.8110   43.6990   15.7210 C.2    17  ALA17       0.2287
     18  O         75.7010   44.1790   15.9890 O.2    17  ALA17      -0.2864
     19  CB        77.5920   43.7750   13.3370 C.3    17  ALA17       0.0319
     20  N         77.4510   43.4810   18.9100 N.3    19  ARG19      -0.1245
     21  CA        77.4220   44.3440   20.0850 C.3    19  ARG19       0.1563
     22  C         76.4250   45.4830   19.9060 C.2    19  ARG19       0.2260
     23  O         75.7130   45.8490   20.8490 O.2    19  ARG19      -0.2867
     24  CB        78.8280   44.8760   20.3690 C.3    19  ARG19       0.0307
     25  CG        78.9120   45.8790   21.5070 C.3    19  ARG19       0.0489
     26  CD        78.6230   45.2600   22.8540 C.3    19  ARG19       0.2205
     27  NE        77.2290   45.4580   23.2210 N.pl3  19  ARG19      -0.0865
     28  CZ        76.7090   45.1550   24.4050 C.cat  19  ARG19       0.5346
     29  NH1       75.4240   45.3840   24.6270 N.pl3  19  ARG19       0.1354
     30  NH2       77.4660   44.6280   25.3600 N.pl3  19  ARG19       0.1354
     31  N         76.6050   36.2490   23.1660 N.3    45  PHE45      -0.1227
     32  CA        77.8460   36.5400   23.8740 C.3    45  PHE45       0.1736
     33  C         77.6880   37.7170   24.8290 C.2    45  PHE45       0.2595
     34  O         78.3250   37.7380   25.8880 O.2    45  PHE45      -0.2718
     35  CB        78.9710   36.7890   22.8730 C.3    45  PHE45       0.0547
     36  CG        80.3220   36.9350   23.5050 C.ar   45  PHE45      -0.0202
     37  CD1       81.0900   35.8180   23.7780 C.ar   45  PHE45      -0.0042
     38  CD2       80.8330   38.1840   23.8030 C.ar   45  PHE45      -0.0042
     39  CE1       82.3320   35.9410   24.3510 C.ar   45  PHE45      -0.0003
     40  CE2       82.0730   38.3110   24.3730 C.ar   45  PHE45      -0.0003
     41  CZ        82.8260   37.1840   24.6460 C.ar   45  PHE45      -0.0000
     42  N         76.8440   38.6860   24.4850 N.am   46  TYR46      -0.1976
     43  CA        76.6090   39.8610   25.3080 C.3    46  TYR46       0.1639
     44  C         75.3360   39.6900   26.1270 C.2    46  TYR46       0.2290
     45  O         74.4390   38.9240   25.7680 O.2    46  TYR46      -0.2864
     46  CB        76.5000   41.1150   24.4410 C.3    46  TYR46       0.0560
     47  CG        77.6670   41.3020   23.5060 C.ar   46  TYR46      -0.0198
     48  CD1       78.9060   41.7130   23.9800 C.ar   46  TYR46      -0.0009
     49  CD2       77.5370   41.0420   22.1500 C.ar   46  TYR46      -0.0009
     50  CE1       79.9700   41.8750   23.1260 C.ar   46  TYR46       0.0417
     51  CE2       78.5950   41.1980   21.2930 C.ar   46  TYR46       0.0417
     52  CZ        79.8070   41.6140   21.7820 C.ar   46  TYR46       0.1957
     53  OH        80.8610   41.7650   20.9130 O.3    46  TYR46      -0.2866
     54  N         91.9750   45.1130   21.5110 N.3   189  ILE189     -0.1231
     55  CA        90.7210   44.3730   21.5430 C.3   189  ILE189      0.1692
     56  C         90.2450   44.2000   20.1080 C.2   189  ILE189      0.2593
     57  O         90.0340   45.1880   19.3950 O.2   189  ILE189     -0.2718
     58  CB        89.6630   45.0840   22.3970 C.3   189  ILE189      0.0266
     59  CG1       90.2290   45.3870   23.7880 C.3   189  ILE189      0.0019
     60  CG2       88.4170   44.2340   22.4820 C.3   189  ILE189      0.0020
     61  CD1       89.2030   45.9290   24.7750 C.3   189  ILE189      0.0001
     62  N         90.1070   42.9570   19.6720 N.am  190  GLY190     -0.1942
     63  CA        89.5550   42.7180   18.3540 C.3   190  GLY190      0.2014
     64  C         89.7660   41.2940   17.8940 C.2   190  GLY190      0.2638
     65  O         90.5190   40.5130   18.4870 O.2   190  GLY190     -0.2714
     66  N         89.0810   40.9810   16.7980 N.am  191  ARG191     -0.1977
     67  CA        89.1930   39.6890   16.1420 C.3   191  ARG191      0.1597
     68  C         90.6210   39.4690   15.6490 C.2   191  ARG191      0.2287
     69  O         91.2800   40.3980   15.1800 O.2   191  ARG191     -0.2864
     70  CB        88.2040   39.6620   14.9830 C.3   191  ARG191      0.0334
     71  CG        87.9570   38.3500   14.3040 C.3   191  ARG191      0.0492
     72  CD        87.0270   38.6120   13.1350 C.3   191  ARG191      0.2205
     73  NE        86.1240   39.7130   13.4580 N.pl3 191  ARG191     -0.0865
     74  CZ        86.0470   40.8460   12.7640 C.cat 191  ARG191      0.5346
     75  NH1       86.8060   41.0210   11.6910 N.pl3 191  ARG191      0.1354
     76  NH2       85.2090   41.8000   13.1380 N.pl3 191  ARG191      0.1354
     77  N         92.1870   42.8370   10.8440 N.3   196  LYS196     -0.1245
     78  CA        92.4260   43.4770   12.1320 C.3   196  LYS196      0.1561
     79  C         93.9040   43.7040   12.3870 C.2   196  LYS196      0.2260
     80  O         94.2560   44.5420   13.2240 O.2   196  LYS196     -0.2867
     81  CB        91.8190   42.6370   13.2500 C.3   196  LYS196      0.0271
     82  CG        90.3270   42.8400   13.4260 C.3   196  LYS196      0.0035
     83  CD        90.0680   44.2170   13.9800 C.3   196  LYS196      0.0206
     84  CE        88.5990   44.5410   14.0040 C.3   196  LYS196      0.1093
     85  NZ        88.3870   45.9260   14.5170 N.3   196  LYS196     -0.1314
     86  N         92.6530   41.0310   23.6930 N.3   221  ALA221     -0.1231
     87  CA        91.3360   40.4420   23.8770 C.3   221  ALA221      0.1694
     88  C         90.7410   40.1260   22.5110 C.2   221  ALA221      0.2592
     89  O         90.7220   40.9850   21.6210 O.2   221  ALA221     -0.2718
     90  CB        90.4140   41.3770   24.6610 C.3   221  ALA221      0.0304
     91  N         90.2710   38.8960   22.3470 N.am  222  GLY222     -0.1957
     92  CA        89.7220   38.4380   21.0880 C.3   222  GLY222      0.1869
     93  C         90.3090   37.1050   20.6670 C.2   222  GLY222      0.2309
     94  O         91.2540   36.5880   21.2570 O.2   222  GLY222     -0.2863
     95  N         91.9850   35.3620   24.9710 N.3   245  GLY245     -0.1210
     96  CA        90.8730   34.8400   24.2140 C.3   245  GLY245      0.1956
     97  C         89.7560   35.8610   24.1640 C.2   245  GLY245      0.2612
     98  O         89.9750   37.0710   24.2890 O.2   245  GLY245     -0.2717
     99  N         88.5320   35.3690   24.0110 N.am  246  ARG246     -0.1965
    100  CA        87.3800   36.2540   24.0450 C.3   246  ARG246      0.1729
    101  C         87.0320   36.5760   25.4890 C.2   246  ARG246      0.2616
    102  O         87.0620   35.7040   26.3620 O.2   246  ARG246     -0.2715
    103  CB        86.1870   35.6240   23.3320 C.3   246  ARG246      0.0348
    104  CG        86.5790   34.9530   22.0370 C.3   246  ARG246      0.0492
    105  CD        85.4020   34.3080   21.3490 C.3   246  ARG246      0.2205
    106  NE        85.5120   34.4950   19.9080 N.pl3 246  ARG246     -0.0865
    107  CZ        84.4920   34.4190   19.0630 C.cat 246  ARG246      0.5346
    108  NH1       83.2650   34.1660   19.5110 N.pl3 246  ARG246      0.1354
    109  NH2       84.7010   34.6090   17.7680 N.pl3 246  ARG246      0.1354
    110  N         86.7210   37.8410   25.7410 N.am  247  VAL247     -0.1963
    111  CA        86.5240   38.3430   27.0910 C.3   247  VAL247      0.1727
    112  C         85.1110   38.8860   27.1900 C.2   247  VAL247      0.2616
    113  O         84.6830   39.6870   26.3510 O.2   247  VAL247     -0.2715
    114  CB        87.5570   39.4240   27.4470 C.3   247  VAL247      0.0290
    115  CG1       87.1480   40.1510   28.7110 C.3   247  VAL247      0.0023
    116  CG2       88.9270   38.7950   27.6100 C.3   247  VAL247      0.0023
    117  N         84.3810   38.4300   28.1990 N.am  248  GLU248     -0.1977
    118  CA        83.0350   38.9340   28.3990 C.3   248  GLU248      0.1602
    119  C         83.0850   40.2830   29.1300 C.2   248  GLU248      0.2287
    120  O         82.3810   41.2250   28.7500 O.2   248  GLU248     -0.2864
    121  CB        82.2120   37.8490   29.1090 C.3   248  GLU248      0.0415
    122  CG        80.7010   38.0290   29.0960 C.3   248  GLU248      0.1163
    123  CD        79.9430   36.9550   29.8840 C.2   248  GLU248      0.3649
    124  OE1       80.3540   36.6820   31.0280 O.co2 248  GLU248     -0.2457
    125  OE2       79.0160   36.3040   29.3290 O.co2 248  GLU248     -0.2457
    126  N         84.9450   43.1640   29.2440 N.3   250  VAL250     -0.1245
    127  CA        85.8890   44.1640   28.7350 C.3   250  VAL250      0.1561
    128  C         85.8090   45.4760   29.4960 C.2   250  VAL250      0.2260
    129  O         86.6860   46.3320   29.3240 O.2   250  VAL250     -0.2867
    130  CB        85.7140   44.4900   27.2380 C.3   250  VAL250      0.0252
    131  CG1       86.1810   43.3310   26.3750 C.3   250  VAL250      0.0019
    132  CG2       84.2810   44.8520   26.9300 C.3   250  VAL250      0.0019
    133  N         89.0420   48.0880   30.1340 N.3   254  TYR254     -0.1241
    134  CA        88.9800   49.5100   29.8070 C.3   254  TYR254      0.1605
    135  C         89.1910   50.3930   31.0310 C.2   254  TYR254      0.2264
    136  O         89.7350   51.4960   30.9120 O.2   254  TYR254     -0.2867
    137  CB        87.6350   49.8390   29.1630 C.3   254  TYR254      0.0534
    138  CG        87.4970   49.4890   27.6980 C.ar  254  TYR254     -0.0201
    139  CD1       88.4600   49.8720   26.7730 C.ar  254  TYR254     -0.0009
    140  CD2       86.3920   48.7800   27.2370 C.ar  254  TYR254     -0.0009
    141  CE1       88.3290   49.5600   25.4320 C.ar  254  TYR254      0.0417
    142  CE2       86.2530   48.4620   25.8960 C.ar  254  TYR254      0.0417
    143  CZ        87.2280   48.8530   24.9970 C.ar  254  TYR254      0.1957
    144  OH        87.0990   48.5400   23.6600 O.3   254  TYR254     -0.2866
    145  N         87.7960   49.4350    7.9500 N.3   267  GLU267     -0.1245
    146  CA        86.8410   49.4410    9.0520 C.3   267  GLU267      0.1567
    147  C         85.7040   50.4040    8.7480 C.2   267  GLU267      0.2260
    148  O         85.8740   51.3850    8.0170 O.2   267  GLU267     -0.2867
    149  CB        87.4850   49.8360   10.3880 C.3   267  GLU267      0.0388
    150  CG        88.2620   48.7330   11.0580 C.3   267  GLU267      0.1160
    151  CD        87.5100   48.0820   12.1980 C.2   267  GLU267      0.3649
    152  OE1       88.1760   47.6670   13.1710 O.co2 267  GLU267     -0.2457
    153  OE2       86.2620   47.9960   12.1320 O.co2 267  GLU267     -0.2457
    154  N         83.0840   51.7210   11.5580 N.3   269  LEU269     -0.1231
    155  CA        83.1450   52.6280   12.7050 C.3   269  LEU269      0.1678
    156  C         83.4040   51.7840   13.9430 C.2   269  LEU269      0.2434
    157  O         82.4690   51.3360   14.6210 O.2   269  LEU269     -0.2733
    158  CB        81.8560   53.4420   12.8410 C.3   269  LEU269      0.0284
    159  CG        81.7770   54.6020   13.8360 C.3   269  LEU269      0.0019
    160  CD1       82.2160   55.9000   13.1890 C.3   269  LEU269      0.0001
    161  CD2       80.3580   54.7390   14.3570 C.3   269  LEU269      0.0001
    162  N         84.6780   51.5300   14.2660 N.am  270  PRO270     -0.2718
    163  CA        85.0060   50.5150   15.2760 C.3   270  PRO270      0.1535
    164  C         84.4610   50.8660   16.6540 C.2   270  PRO270      0.2599
    165  O         84.6960   51.9570   17.1770 O.2   270  PRO270     -0.2715
    166  CB        86.5430   50.4940   15.2690 C.3   270  PRO270      0.0310
    167  CG        86.9450   51.1320   14.0130 C.3   270  PRO270      0.0237
    168  CD        85.8870   52.1410   13.6980 C.3   270  PRO270      0.0939
    169  N         83.7540   49.9060   17.2540 N.am  271  THR271     -0.1937
    170  CA        83.1520   50.1150   18.5650 C.3   271  THR271      0.2028
    171  C         84.1990   50.1870   19.6720 C.2   271  THR271      0.2642
    172  O         83.9390   50.8030   20.7110 O.2   271  THR271     -0.2714
    173  CB        82.1440   48.9910   18.8560 C.3   271  THR271      0.1808
    174  OG1       81.3660   48.7340   17.6800 O.3   271  THR271     -0.2208
    175  CG2       81.1980   49.3780   19.9820 C.3   271  THR271      0.0379
    176  N         85.3810   49.5910   19.4720 N.am  272  VAL272     -0.1977
    177  CA        86.4320   49.7080   20.4830 C.3   272  VAL272      0.1596
    178  C         86.9490   51.1410   20.5670 C.2   272  VAL272      0.2287
    179  O         87.3120   51.6100   21.6510 O.2   272  VAL272     -0.2864
    180  CB        87.5750   48.7090   20.2130 C.3   272  VAL272      0.0276
    181  CG1       87.1070   47.2740   20.4120 C.3   272  VAL272      0.0022
    182  CG2       88.1310   48.8930   18.8140 C.3   272  VAL272      0.0022
    183  N         83.9010   52.7280   22.6590 N.3   275  GLU275     -0.1245
    184  CA        83.8950   52.3050   24.0560 C.3   275  GLU275      0.1567
    185  C         85.0290   52.9580   24.8450 C.2   275  GLU275      0.2260
    186  O         84.8530   53.3150   26.0140 O.2   275  GLU275     -0.2867
    187  CB        83.9730   50.7770   24.1360 C.3   275  GLU275      0.0388
    188  CG        82.7980   50.0740   23.4630 C.3   275  GLU275      0.1160
    189  CD        82.9990   48.5730   23.2890 C.2   275  GLU275      0.3649
    190  OE1       84.1570   48.1240   23.1350 O.co2 275  GLU275     -0.2457
    191  OE2       81.9850   47.8420   23.2860 O.co2 275  GLU275     -0.2457
@<TRIPOS>BOND
     1   145   146    1
     2   148   147    2
     3   147   146    1
     4   146   149    1
     5   149   150    1
     6    77    78    1
     7   150   151    1
     8   154   155    1
     9    75    74    1
    10   153   151   ar
    11    78    79    1
    12    78    81    1
    13   151   152   ar
    14    79    80    2
    15   155   158    1
    16   155   156    1
    17    74    76    1
    18    74    73    2
    19   158   159    1
    20    72    73    1
    21    72    71    1
    22   160   159    1
    23    81    82    1
    24    19    16    1
    25    82    83    1
    26   168   167    1
    27   168   162    1
    28   159   161    1
    29   156   162   am
    30   156   157    2
    31    83    84    1
    32    84    85    1
    33   167   166    1
    34   162   163    1
    35    71    70    1
    36    16    15    1
    37    16    17    1
    38    70    67    1
    39    69    68    2
    40    15    13   am
    41   166   163    1
    42   163   164    1
    43    68    67    1
    44    17    18    2
    45    67    66    1
    46    13    12    1
    47    13    14    2
    48   164   165    2
    49   164   169   am
    50    11    12    1
    51    11     9   am
    52    66    64   am
    53   169   170    1
    54     8     9    1
    55     8     7    1
    56     9    10    2
    57   174   173    1
    58   109   107    1
    59    64    63    1
    60    64    65    2
    61    63    62    1
    62     7     3   am
    63   170   173    1
    64   170   171    1
    65   182   180    1
    66   173   175    1
    67     4     3    2
    68    20    21    1
    69   107   108    1
    70   107   106    2
    71     3     2    1
    72    57    56    2
    73   176   171   am
    74   176   177    1
    75    62    56   am
    76   171   172    2
    77     1     2    1
    78    22    21    1
    79    22    23    2
    80   106   105    1
    81    21    24    1
    82    56    55    1
    83   180   181    1
    84   180   177    1
    85     2     5    1
    86     6     5    1
    87    24    25    1
    88   177   178    1
    89   178   179    2
    90    93    92    1
    91    93    94    2
    92    53    52    1
    93    92    91    1
    94    51    52   ar
    95    51    49   ar
    96   105   104    1
    97    25    26    1
    98    54    55    1
    99    55    58    1
   100    89    88    2
   101    52    50   ar
   102   104   103    1
   103    49    47   ar
   104    91    88   am
   105    58    60    1
   106    58    59    1
   107    88    87    1
   108   183   184    1
   109    26    27    1
   110    35    36    1
   111    35    32    1
   112    50    48   ar
   113   190   189   ar
   114    31    32    1
   115    27    28    2
   116   191   189   ar
   117   189   188    1
   118   103   100    1
   119   188   187    1
   120    36    37   ar
   121    36    38   ar
   122    47    48   ar
   123    47    46    1
   124   144   143    1
   125    86    87    1
   126    37    39   ar
   127    59    61    1
   128    38    40   ar
   129    32    33    1
   130    87    90    1
   131    99   100    1
   132    99    97   am
   133   100   101    1
   134   184   187    1
   135   184   185    1
   136    97    96    1
   137    97    98    2
   138    96    95    1
   139    39    41   ar
   140    40    41   ar
   141    28    29    1
   142    28    30    1
   143    46    43    1
   144    42    33   am
   145    42    43    1
   146    33    34    2
   147   185   186    2
   148   143   141   ar
   149   143   142   ar
   150    43    44    1
   151   141   139   ar
   152   101   110   am
   153   101   102    2
   154   110   111    1
   155    45    44    2
   156   142   140   ar
   157   113   112    2
   158   131   130    1
   159   139   138   ar
   160   132   130    1
   161   111   112    1
   162   111   114    1
   163   112   117   am
   164   140   138   ar
   165   130   127    1
   166   114   116    1
   167   114   115    1
   168   138   137    1
   169   117   118    1
   170   118   121    1
   171   118   119    1
   172   127   126    1
   173   127   128    1
   174   120   119    2
   175   122   121    1
   176   122   123    1
   177   137   134    1
   178   129   128    2
   179   125   123   ar
   180   134   133    1
   181   134   135    1
   182   123   124   ar
   183   136   135    2
