@<TRIPOS>MOLECULE
tmp/6ejjB01.pdb
 104 99 0 0 0
SMALL
GASTEIGER

@<TRIPOS>ATOM
      1  N         73.1550   36.8160   11.7430 N.3    10  ALA10      -0.1231
      2  CA        73.6250   35.4420   11.5880 C.3    10  ALA10       0.1694
      3  C         73.9860   34.8270   12.9350 C.2    10  ALA10       0.2592
      4  O         73.3940   33.8250   13.3510 O.2    10  ALA10      -0.2718
      5  CB        74.8170   35.4000   10.6300 C.3    10  ALA10       0.0304
      6  N         74.9580   35.4070   13.6290 N.am   11  THR11      -0.1953
      7  CA        75.3920   34.9310   14.9370 C.3    11  THR11       0.1897
      8  C         75.2290   36.0480   15.9660 C.2    11  THR11       0.2313
      9  O         74.7920   37.1560   15.6530 O.2    11  THR11      -0.2863
     10  CB        76.8440   34.4380   14.8950 C.3    11  THR11       0.1794
     11  OG1       77.7330   35.5560   14.9680 O.3    11  THR11      -0.2208
     12  CG2       77.1240   33.6660   13.6140 C.3    11  THR11       0.0378
     13  N         78.0170   36.3370   18.4000 N.3    13  ASN13      -0.1240
     14  CA        79.3010   36.1080   19.0350 C.3    13  ASN13       0.1653
     15  C         80.0470   37.4340   19.1890 C.2    13  ASN13       0.2266
     16  O         79.5710   38.4910   18.7710 O.2    13  ASN13      -0.2867
     17  CB        80.0970   35.0790   18.2370 C.3    13  ASN13       0.1155
     18  CG        79.5750   33.6650   18.4390 C.2    13  ASN13       0.2627
     19  OD1       79.5540   32.8590   17.5070 O.2    13  ASN13      -0.2716
     20  ND2       79.1190   33.3670   19.6580 N.am   13  ASN13      -0.0877
     21  N         77.2560   42.5650   16.2710 N.3    18  GLU18      -0.1245
     22  CA        76.4980   41.8970   17.3200 C.3    18  GLU18       0.1567
     23  C         76.3700   42.7880   18.5480 C.2    18  GLU18       0.2260
     24  O         75.3020   42.8620   19.1640 O.2    18  GLU18      -0.2867
     25  CB        77.1730   40.5730   17.6850 C.3    18  GLU18       0.0388
     26  CG        77.1540   39.5100   16.5790 C.3    18  GLU18       0.1160
     27  CD        78.1390   39.7920   15.4490 C.2    18  GLU18       0.3649
     28  OE1       79.0970   40.5640   15.6750 O.co2  18  GLU18      -0.2457
     29  OE2       77.9660   39.2300   14.3410 O.co2  18  GLU18      -0.2457
     30  N         70.9210   42.6540    9.6470 N.3    94  PHE94      -0.1227
     31  CA        72.2890   43.0630    9.9560 C.3    94  PHE94       0.1736
     32  C         73.3040   42.3220    9.0980 C.2    94  PHE94       0.2595
     33  O         73.2810   41.0890    9.0290 O.2    94  PHE94      -0.2718
     34  CB        72.6110   42.8270   11.4350 C.3    94  PHE94       0.0547
     35  CG        72.2720   43.9900   12.3270 C.ar   94  PHE94      -0.0202
     36  CD1       70.9580   44.3320   12.5830 C.ar   94  PHE94      -0.0042
     37  CD2       73.2800   44.7500   12.9020 C.ar   94  PHE94      -0.0042
     38  CE1       70.6560   45.4050   13.4010 C.ar   94  PHE94      -0.0003
     39  CE2       72.9830   45.8200   13.7210 C.ar   94  PHE94      -0.0003
     40  CZ        71.6700   46.1490   13.9670 C.ar   94  PHE94      -0.0000
     41  N         74.2100   43.0900    8.4770 N.am   95  LEU95      -0.1966
     42  CA        75.3400   42.6330    7.6610 C.3    95  LEU95       0.1728
     43  C         74.9460   42.0650    6.3010 C.2    95  LEU95       0.2616
     44  O         73.8800   41.4630    6.1440 O.2    95  LEU95      -0.2715
     45  CB        76.2050   41.6190    8.4240 C.3    95  LEU95       0.0311
     46  CG        76.7670   42.1570    9.7410 C.3    95  LEU95       0.0022
     47  CD1       77.2540   41.0550   10.6470 C.3    95  LEU95       0.0001
     48  CD2       77.8770   43.1480    9.4740 C.3    95  LEU95       0.0001
     49  N         75.8470   42.2360    5.3280 N.am   96  ASP96      -0.1957
     50  CA        75.5950   42.0790    3.8980 C.3    96  ASP96       0.1840
     51  C         74.8070   40.8350    3.4980 C.2    96  ASP96       0.2623
     52  O         73.6850   40.9610    3.0010 O.2    96  ASP96      -0.2715
     53  CB        76.9230   42.1180    3.1330 C.3    96  ASP96       0.1450
     54  CG        78.0350   41.3790    3.8510 C.2    96  ASP96       0.3671
     55  OD1       77.7450   40.3420    4.4950 O.co2  96  ASP96      -0.2456
     56  OD2       79.1980   41.8340    3.7730 O.co2  96  ASP96      -0.2456
     57  N         75.3780   39.6350    3.6680 N.am   97  THR97      -0.1937
     58  CA        74.7340   38.4460    3.1080 C.3    97  THR97       0.2028
     59  C         73.3690   38.1870    3.7360 C.2    97  THR97       0.2642
     60  O         72.4360   37.7620    3.0420 O.2    97  THR97      -0.2714
     61  CB        75.6260   37.2120    3.2600 C.3    97  THR97       0.1808
     62  OG1       76.2540   37.2130    4.5460 O.3    97  THR97      -0.2208
     63  CG2       76.6830   37.1840    2.1760 C.3    97  THR97       0.0379
     64  N         73.2140   38.4470    5.0380 N.am   98  THR98      -0.1950
     65  CA        71.8860   38.2580    5.6130 C.3    98  THR98       0.1897
     66  C         70.9500   39.3890    5.1960 C.2    98  THR98       0.2313
     67  O         69.7400   39.1750    5.0900 O.2    98  THR98      -0.2863
     68  CB        71.9580   38.0830    7.1350 C.3    98  THR98       0.1794
     69  OG1       72.2010   39.3370    7.7700 O.3    98  THR98      -0.2208
     70  CG2       73.0750   37.1200    7.4920 C.3    98  THR98       0.0378
     71  N         84.8950   46.3160    2.1260 N.3   123  TYR123     -0.1241
     72  CA        85.2220   45.0830    2.8330 C.3   123  TYR123      0.1605
     73  C         84.6370   43.8660    2.1260 C.2   123  TYR123      0.2264
     74  O         85.1960   42.7680    2.2190 O.2   123  TYR123     -0.2867
     75  CB        84.7210   45.1670    4.2710 C.3   123  TYR123      0.0534
     76  CG        85.3150   44.1470    5.2130 C.ar  123  TYR123     -0.0201
     77  CD1       86.6920   43.9920    5.3240 C.ar  123  TYR123     -0.0009
     78  CD2       84.5000   43.3610    6.0190 C.ar  123  TYR123     -0.0009
     79  CE1       87.2380   43.0680    6.1990 C.ar  123  TYR123      0.0417
     80  CE2       85.0360   42.4420    6.8960 C.ar  123  TYR123      0.0417
     81  CZ        86.4020   42.2980    6.9830 C.ar  123  TYR123      0.1957
     82  OH        86.9310   41.3780    7.8560 O.3   123  TYR123     -0.2866
     83  N         89.0810   40.9810   16.7980 N.3   191  ARG191     -0.1245
     84  CA        89.1930   39.6890   16.1420 C.3   191  ARG191      0.1563
     85  C         90.6210   39.4690   15.6490 C.2   191  ARG191      0.2260
     86  O         91.2800   40.3980   15.1800 O.2   191  ARG191     -0.2867
     87  CB        88.2040   39.6620   14.9830 C.3   191  ARG191      0.0307
     88  CG        87.9570   38.3500   14.3040 C.3   191  ARG191      0.0489
     89  CD        87.0270   38.6120   13.1350 C.3   191  ARG191      0.2205
     90  NE        86.1240   39.7130   13.4580 N.pl3 191  ARG191     -0.0865
     91  CZ        86.0470   40.8460   12.7640 C.cat 191  ARG191      0.5346
     92  NH1       86.8060   41.0210   11.6910 N.pl3 191  ARG191      0.1354
     93  NH2       85.2090   41.8000   13.1380 N.pl3 191  ARG191      0.1354
     94  N         88.5320   35.3690   24.0110 N.3   246  ARG246     -0.1245
     95  CA        87.3800   36.2540   24.0450 C.3   246  ARG246      0.1563
     96  C         87.0320   36.5760   25.4890 C.2   246  ARG246      0.2260
     97  O         87.0620   35.7040   26.3620 O.2   246  ARG246     -0.2867
     98  CB        86.1870   35.6240   23.3320 C.3   246  ARG246      0.0307
     99  CG        86.5790   34.9530   22.0370 C.3   246  ARG246      0.0489
    100  CD        85.4020   34.3080   21.3490 C.3   246  ARG246      0.2205
    101  NE        85.5120   34.4950   19.9080 N.pl3 246  ARG246     -0.0865
    102  CZ        84.4920   34.4190   19.0630 C.cat 246  ARG246      0.5346
    103  NH1       83.2650   34.1660   19.5110 N.pl3 246  ARG246      0.1354
    104  NH2       84.7010   34.6090   17.7680 N.pl3 246  ARG246      0.1354
@<TRIPOS>BOND
     1    73    74    2
     2    73    72    1
     3    71    72    1
     4    63    61    1
     5    72    75    1
     6    52    51    2
     7    60    59    2
     8    58    61    1
     9    58    57    1
    10    58    59    1
    11    53    54    1
    12    53    50    1
    13    61    62    1
    14    51    57   am
    15    51    50    1
    16    59    64   am
    17    56    54   ar
    18    54    55   ar
    19    50    49    1
    20    75    76    1
    21    64    65    1
    22    67    66    2
    23    66    65    1
    24    76    77   ar
    25    76    78   ar
    26    77    79   ar
    27    49    43   am
    28    65    68    1
    29    78    80   ar
    30    44    43    2
    31    79    81   ar
    32    43    42    1
    33    80    81   ar
    34    81    82    1
    35    68    70    1
    36    68    69    1
    37    42    45    1
    38    42    41    1
    39    45    46    1
    40    41    32   am
    41    33    32    2
    42    32    31    1
    43    48    46    1
    44    30    31    1
    45    46    47    1
    46    31    34    1
    47     5     2    1
    48    34    35    1
    49     2     1    1
    50     2     3    1
    51    92    91    1
    52    35    36   ar
    53    35    37   ar
    54    36    38   ar
    55    91    93    1
    56    91    90    2
    57    37    39   ar
    58     3     4    2
    59     3     6   am
    60    89    90    1
    61    89    88    1
    62    38    40   ar
    63    12    10    1
    64     6     7    1
    65    39    40   ar
    66    88    87    1
    67    29    27   ar
    68    10     7    1
    69    10    11    1
    70     7     8    1
    71    87    84    1
    72    86    85    2
    73    27    28   ar
    74    27    26    1
    75    85    84    1
    76     9     8    2
    77    84    83    1
    78    21    22    1
    79    26    25    1
    80    22    25    1
    81    22    23    1
    82    19    18    2
    83   104   102    1
    84    17    18    1
    85    17    14    1
    86    13    14    1
    87    18    20   am
    88    23    24    2
    89    16    15    2
    90    14    15    1
    91   102   103    1
    92   102   101    2
    93   101   100    1
    94   100    99    1
    95    99    98    1
    96    98    95    1
    97    94    95    1
    98    95    96    1
    99    96    97    2
