@<TRIPOS>MOLECULE
tmp/6ejjB02.pdb
 101 96 0 0 0
SMALL
GASTEIGER

@<TRIPOS>ATOM
      1  N         74.9580   35.4070   13.6290 N.3    11  THR11      -0.1218
      2  CA        75.3920   34.9310   14.9370 C.3    11  THR11       0.1862
      3  C         75.2290   36.0480   15.9660 C.2    11  THR11       0.2287
      4  O         74.7920   37.1560   15.6530 O.2    11  THR11      -0.2866
      5  CB        76.8440   34.4380   14.8950 C.3    11  THR11       0.1770
      6  OG1       77.7330   35.5560   14.9680 O.3    11  THR11      -0.2211
      7  CG2       77.1240   33.6660   13.6140 C.3    11  THR11       0.0375
      8  N         78.0170   36.3370   18.4000 N.3    13  ASN13      -0.1225
      9  CA        79.3010   36.1080   19.0350 C.3    13  ASN13       0.1785
     10  C         80.0470   37.4340   19.1890 C.2    13  ASN13       0.2598
     11  O         79.5710   38.4910   18.7710 O.2    13  ASN13      -0.2718
     12  CB        80.0970   35.0790   18.2370 C.3    13  ASN13       0.1169
     13  CG        79.5750   33.6650   18.4390 C.2    13  ASN13       0.2627
     14  OD1       79.5540   32.8590   17.5070 O.2    13  ASN13      -0.2716
     15  ND2       79.1190   33.3670   19.6580 N.am   13  ASN13      -0.0877
     16  N         81.2450   37.3740   19.7750 N.am   14  SER14      -0.1938
     17  CA        81.9610   38.5610   20.2420 C.3    14  SER14       0.2055
     18  C         82.4170   39.4830   19.1140 C.2    14  SER14       0.2644
     19  O         83.6200   39.6280   18.8640 O.2    14  SER14      -0.2714
     20  CB        83.1650   38.1350   21.0890 C.3    14  SER14       0.2130
     21  OG        84.1880   37.5660   20.2870 O.3    14  SER14      -0.2179
     22  N         81.4550   40.1240   18.4410 N.am   15  GLY15      -0.1939
     23  CA        81.7520   41.0470   17.3690 C.3    15  GLY15       0.2014
     24  C         81.0670   42.3840   17.5880 C.2    15  GLY15       0.2639
     25  O         80.2540   42.5540   18.5030 O.2    15  GLY15      -0.2714
     26  N         81.3980   43.3310   16.7110 N.am   16  GLY16      -0.1939
     27  CA        80.8970   44.6900   16.7990 C.3    16  GLY16       0.2014
     28  C         79.4710   44.8730   16.3430 C.2    16  GLY16       0.2639
     29  O         78.6910   45.5470   17.0170 O.2    16  GLY16      -0.2714
     30  N         79.1200   44.3050   15.1870 N.am   17  ALA17      -0.1963
     31  CA        77.7370   44.3880   14.7310 C.3    17  ALA17       0.1728
     32  C         76.8110   43.6990   15.7210 C.2    17  ALA17       0.2616
     33  O         75.7010   44.1790   15.9890 O.2    17  ALA17      -0.2715
     34  CB        77.5920   43.7750   13.3370 C.3    17  ALA17       0.0334
     35  N         77.2560   42.5650   16.2710 N.am   18  GLU18      -0.1977
     36  CA        76.4980   41.8970   17.3200 C.3    18  GLU18       0.1602
     37  C         76.3700   42.7880   18.5480 C.2    18  GLU18       0.2287
     38  O         75.3020   42.8620   19.1640 O.2    18  GLU18      -0.2864
     39  CB        77.1730   40.5730   17.6850 C.3    18  GLU18       0.0415
     40  CG        77.1540   39.5100   16.5790 C.3    18  GLU18       0.1163
     41  CD        78.1390   39.7920   15.4490 C.2    18  GLU18       0.3649
     42  OE1       79.0970   40.5640   15.6750 O.co2  18  GLU18      -0.2457
     43  OE2       77.9660   39.2300   14.3410 O.co2  18  GLU18      -0.2457
     44  N         74.2100   43.0900    8.4770 N.3    95  LEU95      -0.1245
     45  CA        75.3400   42.6330    7.6610 C.3    95  LEU95       0.1561
     46  C         74.9460   42.0650    6.3010 C.2    95  LEU95       0.2260
     47  O         73.8800   41.4630    6.1440 O.2    95  LEU95      -0.2867
     48  CB        76.2050   41.6190    8.4240 C.3    95  LEU95       0.0270
     49  CG        76.7670   42.1570    9.7410 C.3    95  LEU95       0.0019
     50  CD1       77.2540   41.0550   10.6470 C.3    95  LEU95       0.0001
     51  CD2       77.8770   43.1480    9.4740 C.3    95  LEU95       0.0001
     52  N         77.7290   47.5070    8.0980 N.3   118  HIS118     -0.1226
     53  CA        78.5160   47.7990    9.2890 C.3   118  HIS118      0.1752
     54  C         80.0050   47.8620    9.0110 C.2   118  HIS118      0.2596
     55  O         80.7470   48.5300    9.7410 O.2   118  HIS118     -0.2718
     56  CB        78.1880   46.7830   10.3760 C.3   118  HIS118      0.0759
     57  CG        76.9290   47.1210   11.0950 C.ar  118  HIS118      0.0818
     58  ND1       76.8590   48.1580   11.9980 N.ar  118  HIS118     -0.2268
     59  CD2       75.6730   46.6310   10.9800 C.ar  118  HIS118      0.1154
     60  CE1       75.6230   48.2620   12.4470 C.ar  118  HIS118      0.1986
     61  NE2       74.8820   47.3500   11.8410 N.ar  118  HIS118     -0.2212
     62  N         80.4630   47.1780    7.9750 N.am  119  SER119     -0.1952
     63  CA        81.8240   47.4440    7.5660 C.3   119  SER119      0.1924
     64  C         81.8010   48.4930    6.4610 C.2   119  SER119      0.2314
     65  O         80.7530   49.0260    6.0950 O.2   119  SER119     -0.2863
     66  CB        82.5310   46.1630    7.1270 C.3   119  SER119      0.2116
     67  OG        83.9450   46.3260    7.1940 O.3   119  SER119     -0.2180
     68  N         84.8950   46.3160    2.1260 N.3   123  TYR123     -0.1241
     69  CA        85.2220   45.0830    2.8330 C.3   123  TYR123      0.1605
     70  C         84.6370   43.8660    2.1260 C.2   123  TYR123      0.2264
     71  O         85.1960   42.7680    2.2190 O.2   123  TYR123     -0.2867
     72  CB        84.7210   45.1670    4.2710 C.3   123  TYR123      0.0534
     73  CG        85.3150   44.1470    5.2130 C.ar  123  TYR123     -0.0201
     74  CD1       86.6920   43.9920    5.3240 C.ar  123  TYR123     -0.0009
     75  CD2       84.5000   43.3610    6.0190 C.ar  123  TYR123     -0.0009
     76  CE1       87.2380   43.0680    6.1990 C.ar  123  TYR123      0.0417
     77  CE2       85.0360   42.4420    6.8960 C.ar  123  TYR123      0.0417
     78  CZ        86.4020   42.2980    6.9830 C.ar  123  TYR123      0.1957
     79  OH        86.9310   41.3780    7.8560 O.3   123  TYR123     -0.2866
     80  N         89.0810   40.9810   16.7980 N.3   191  ARG191     -0.1245
     81  CA        89.1930   39.6890   16.1420 C.3   191  ARG191      0.1563
     82  C         90.6210   39.4690   15.6490 C.2   191  ARG191      0.2260
     83  O         91.2800   40.3980   15.1800 O.2   191  ARG191     -0.2867
     84  CB        88.2040   39.6620   14.9830 C.3   191  ARG191      0.0307
     85  CG        87.9570   38.3500   14.3040 C.3   191  ARG191      0.0489
     86  CD        87.0270   38.6120   13.1350 C.3   191  ARG191      0.2205
     87  NE        86.1240   39.7130   13.4580 N.pl3 191  ARG191     -0.0865
     88  CZ        86.0470   40.8460   12.7640 C.cat 191  ARG191      0.5346
     89  NH1       86.8060   41.0210   11.6910 N.pl3 191  ARG191      0.1354
     90  NH2       85.2090   41.8000   13.1380 N.pl3 191  ARG191      0.1354
     91  N         88.5320   35.3690   24.0110 N.3   246  ARG246     -0.1245
     92  CA        87.3800   36.2540   24.0450 C.3   246  ARG246      0.1563
     93  C         87.0320   36.5760   25.4890 C.2   246  ARG246      0.2260
     94  O         87.0620   35.7040   26.3620 O.2   246  ARG246     -0.2867
     95  CB        86.1870   35.6240   23.3320 C.3   246  ARG246      0.0307
     96  CG        86.5790   34.9530   22.0370 C.3   246  ARG246      0.0489
     97  CD        85.4020   34.3080   21.3490 C.3   246  ARG246      0.2205
     98  NE        85.5120   34.4950   19.9080 N.pl3 246  ARG246     -0.0865
     99  CZ        84.4920   34.4190   19.0630 C.cat 246  ARG246      0.5346
    100  NH1       83.2650   34.1660   19.5110 N.pl3 246  ARG246      0.1354
    101  NH2       84.7010   34.6090   17.7680 N.pl3 246  ARG246      0.1354
@<TRIPOS>BOND
     1    68    69    1
     2    70    71    2
     3    70    69    1
     4    69    72    1
     5    72    73    1
     6    73    74   ar
     7    73    75   ar
     8    74    76   ar
     9    75    77   ar
    10    65    64    2
    11    47    46    2
    12    76    78   ar
    13    46    45    1
    14    64    63    1
    15    77    78   ar
    16    78    79    1
    17    66    67    1
    18    66    63    1
    19    63    62    1
    20    45    48    1
    21    45    44    1
    22    62    54   am
    23    52    53    1
    24    48    49    1
    25    54    53    1
    26    54    55    2
    27    53    56    1
    28    51    49    1
    29    49    50    1
    30    56    57    1
    31    59    57   ar
    32    59    61   ar
    33    57    58   ar
    34    89    88    1
    35    61    60   ar
    36    58    60   ar
    37    88    90    1
    38    88    87    2
    39    86    87    1
    40    86    85    1
    41    34    31    1
    42     7     5    1
    43     1     2    1
    44    85    84    1
    45    43    41   ar
    46    31    30    1
    47    31    32    1
    48     5     2    1
    49     5     6    1
    50     2     3    1
    51    84    81    1
    52    83    82    2
    53    30    28   am
    54    41    42   ar
    55    41    40    1
    56    82    81    1
    57     4     3    2
    58    32    33    2
    59    32    35   am
    60    81    80    1
    61    35    36    1
    62    28    27    1
    63    28    29    2
    64    40    39    1
    65    26    27    1
    66    26    24   am
    67    36    39    1
    68    36    37    1
    69    23    24    1
    70    23    22    1
    71    14    13    2
    72    24    25    2
    73   101    99    1
    74    12    13    1
    75    12     9    1
    76     8     9    1
    77    13    15   am
    78    22    18   am
    79    37    38    2
    80    11    10    2
    81    19    18    2
    82     9    10    1
    83    99   100    1
    84    99    98    2
    85    18    17    1
    86    10    16   am
    87    16    17    1
    88    98    97    1
    89    17    20    1
    90    21    20    1
    91    97    96    1
    92    96    95    1
    93    95    92    1
    94    91    92    1
    95    92    93    1
    96    93    94    2
