@<TRIPOS>MOLECULE
tmp/6ejxB00.pdb
 96 94 0 0 0
SMALL
GASTEIGER

@<TRIPOS>ATOM
      1  N         28.4550   73.7090   16.2780 N.3    86  SER86      -0.1202
      2  CA        29.5000   73.7100   15.2900 C.3    86  SER86       0.2020
      3  C         30.5000   72.5830   15.4830 C.2    86  SER86       0.2618
      4  O         30.6300   72.0400   16.5910 O.2    86  SER86      -0.2717
      5  CB        30.2680   75.0510   15.2400 C.3    86  SER86       0.2103
      6  OG        31.0190   75.2610   16.4000 O.3    86  SER86      -0.2182
      7  N         31.1310   72.2240   14.3700 N.am   87  HIS87      -0.1975
      8  CA        32.1300   71.1780   14.3040 C.3    87  HIS87       0.1656
      9  C         31.6260   69.8560   14.8460 C.2    87  HIS87       0.2291
     10  O         32.2080   69.2960   15.7610 O.2    87  HIS87      -0.2864
     11  CB        33.4110   71.5810   15.0310 C.3    87  HIS87       0.0771
     12  CG        34.0630   72.7700   14.4670 C.ar   87  HIS87       0.0820
     13  ND1       34.9210   72.7090   13.3890 N.ar   87  HIS87      -0.2267
     14  CD2       34.0010   74.0770   14.8320 C.ar   87  HIS87       0.1154
     15  CE1       35.3390   73.9370   13.0970 C.ar   87  HIS87       0.1986
     16  NE2       34.7890   74.7830   13.9510 N.ar   87  HIS87      -0.2212
     17  N         24.4200   78.3640   15.7880 N.3   107  ASP107     -0.1239
     18  CA        25.6200   78.0110   15.0370 C.3   107  ASP107      0.1674
     19  C         25.6560   76.5120   14.7080 C.2   107  ASP107      0.2266
     20  O         25.8360   75.6390   15.5680 O.2   107  ASP107     -0.2867
     21  CB        26.8460   78.5220   15.7990 C.3   107  ASP107      0.1410
     22  CG        28.1200   78.4390   14.9880 C.2   107  ASP107      0.3668
     23  OD1       28.1760   77.6990   13.9760 O.co2 107  ASP107     -0.2456
     24  OD2       29.0810   79.0890   15.4190 O.co2 107  ASP107     -0.2456
     25  N         27.6380   75.6210   11.9130 N.3   109  SER109     -0.1202
     26  CA        28.7410   75.6260   10.9690 C.3   109  SER109      0.2020
     27  C         29.5780   74.3990   11.1160 C.2   109  SER109      0.2618
     28  O         29.5280   73.7680   12.1520 O.2   109  SER109     -0.2717
     29  CB        29.5740   76.8840   11.1090 C.3   109  SER109      0.2103
     30  OG        30.1830   76.9770   12.3960 O.3   109  SER109     -0.2182
     31  N         30.3330   74.0390   10.0730 N.am  110  PHE110     -0.1975
     32  CA        31.2200   72.8530   10.0870 C.3   110  PHE110      0.1639
     33  C         30.5060   71.5830   10.5030 C.2   110  PHE110      0.2290
     34  O         30.8730   70.9210   11.5040 O.2   110  PHE110     -0.2864
     35  CB        32.4730   73.0830   10.9750 C.3   110  PHE110      0.0560
     36  CG        33.3770   74.2020   10.4970 C.ar  110  PHE110     -0.0200
     37  CD1       34.4580   73.9350    9.6890 C.ar  110  PHE110     -0.0042
     38  CD2       33.1660   75.5180   10.8900 C.ar  110  PHE110     -0.0042
     39  CE1       35.2880   74.9660    9.2460 C.ar  110  PHE110     -0.0003
     40  CE2       33.9670   76.5360   10.4430 C.ar  110  PHE110     -0.0003
     41  CZ        35.0250   76.2640    9.6010 C.ar  110  PHE110     -0.0000
     42  N         24.4950   80.8060   11.5940 N.3   131  TYR131     -0.1241
     43  CA        25.7940   80.4170   11.0670 C.3   131  TYR131      0.1605
     44  C         25.6620   79.0310   10.4960 C.2   131  TYR131      0.2264
     45  O         25.5100   78.0370   11.2410 O.2   131  TYR131     -0.2867
     46  CB        26.9060   80.5300   12.1590 C.3   131  TYR131      0.0534
     47  CG        27.1030   81.9380   12.6730 C.ar  131  TYR131     -0.0201
     48  CD1       27.7860   82.9060   11.9440 C.ar  131  TYR131     -0.0009
     49  CD2       26.5500   82.3150   13.8550 C.ar  131  TYR131     -0.0009
     50  CE1       27.8780   84.2310   12.3800 C.ar  131  TYR131      0.0417
     51  CE2       26.6970   83.6050   14.3600 C.ar  131  TYR131      0.0417
     52  CZ        27.3130   84.5680   13.6360 C.ar  131  TYR131      0.1957
     53  OH        27.3570   85.8170   14.1780 O.3   131  TYR131     -0.2866
     54  N         27.8820   78.1490    7.6650 N.3   133  GLN133     -0.1245
     55  CA        29.0440   78.0220    6.8120 C.3   133  GLN133      0.1566
     56  C         29.7320   76.6480    7.0090 C.2   133  GLN133      0.2260
     57  O         29.6060   76.0400    8.0730 O.2   133  GLN133     -0.2867
     58  CB        29.9920   79.1820    7.0210 C.3   133  GLN133      0.0367
     59  CG        30.8420   79.1810    8.3060 C.3   133  GLN133      0.0905
     60  CD        30.1530   79.7980    9.4940 C.2   133  GLN133      0.2608
     61  OE1       28.8880   79.9690    9.5150 O.2   133  GLN133     -0.2717
     62  NE2       30.9760   80.1650   10.5060 N.am  133  GLN133     -0.0878
     63  N         25.3920   83.5960    7.7070 N.3   155  ASN155     -0.1240
     64  CA        26.5870   83.0240    7.0970 C.3   155  ASN155      0.1653
     65  C         26.2870   81.7460    6.3960 C.2   155  ASN155      0.2266
     66  O         26.0180   80.7190    7.0240 O.2   155  ASN155     -0.2867
     67  CB        27.6770   82.8680    8.1320 C.3   155  ASN155      0.1155
     68  CG        29.0620   82.6380    7.5060 C.2   155  ASN155      0.2627
     69  OD1       29.1720   82.2020    6.3940 O.2   155  ASN155     -0.2716
     70  ND2       30.1020   82.9680    8.2380 N.am  155  ASN155     -0.0877
     71  N         27.0780   86.4780    4.2560 N.3   179  TYR179     -0.1241
     72  CA        28.2140   85.7160    3.7350 C.3   179  TYR179      0.1605
     73  C         27.7450   84.6410    2.7450 C.2   179  TYR179      0.2264
     74  O         27.0500   83.7580    3.1140 O.2   179  TYR179     -0.2867
     75  CB        29.0180   84.9950    4.8120 C.3   179  TYR179      0.0534
     76  CG        29.5540   85.7960    5.9510 C.ar  179  TYR179     -0.0201
     77  CD1       30.8240   86.2770    5.9030 C.ar  179  TYR179     -0.0009
     78  CD2       28.8070   86.0220    7.1070 C.ar  179  TYR179     -0.0009
     79  CE1       31.3500   86.9930    6.9390 C.ar  179  TYR179      0.0417
     80  CE2       29.3260   86.7450    8.1570 C.ar  179  TYR179      0.0417
     81  CZ        30.6130   87.2210    8.0510 C.ar  179  TYR179      0.1957
     82  OH        31.2090   87.9190    9.0040 O.3   179  TYR179     -0.2866
     83  N         36.6050   88.3590    2.2900 N.3   231  TRP231     -0.1241
     84  CA        36.7030   87.8160    3.6150 C.3   231  TRP231      0.1605
     85  C         38.1890   87.6390    3.9430 C.2   231  TRP231      0.2264
     86  O         38.8960   87.0410    3.1680 O.2   231  TRP231     -0.2867
     87  CB        36.0640   86.4230    3.7450 C.3   231  TRP231      0.0550
     88  CG        36.5280   85.6780    5.0040 C.ar  231  TRP231      0.0003
     89  CD1       37.4740   84.6560    5.0690 C.ar  231  TRP231      0.0946
     90  CD2       36.1330   85.9420    6.3400 C.ar  231  TRP231      0.0152
     91  NE1       37.6630   84.2740    6.3870 N.ar  231  TRP231     -0.2442
     92  CE2       36.8430   85.0390    7.1820 C.ar  231  TRP231      0.0810
     93  CE3       35.2500   86.8580    6.9200 C.ar  231  TRP231      0.0012
     94  CZ2       36.6940   85.0280    8.5640 C.ar  231  TRP231      0.0191
     95  CZ3       35.1050   86.8630    8.3140 C.ar  231  TRP231      0.0001
     96  CH2       35.8380   85.9470    9.1250 C.ar  231  TRP231      0.0015
@<TRIPOS>BOND
     1    83    84    1
     2    73    74    2
     3    73    72    1
     4    86    85    2
     5    84    87    1
     6    84    85    1
     7    72    71    1
     8    72    75    1
     9    87    88    1
    10    75    76    1
    11    88    89   ar
    12    88    90   ar
    13    89    91   ar
    14    77    76   ar
    15    77    79   ar
    16    76    78   ar
    17    90    93   ar
    18    90    92   ar
    19    91    92   ar
    20    69    68    2
    21    65    66    2
    22    65    64    1
    23    55    56    1
    24    55    58    1
    25    55    54    1
    26    93    95   ar
    27    79    81   ar
    28    56    57    2
    29    58    59    1
    30    64    63    1
    31    64    67    1
    32    78    80   ar
    33    92    94   ar
    34    68    67    1
    35    68    70   am
    36    81    80   ar
    37    81    82    1
    38    59    60    1
    39    95    96   ar
    40    94    96   ar
    41    39    41   ar
    42    39    37   ar
    43    60    61    2
    44    60    62   am
    45    41    40   ar
    46    37    36   ar
    47    31    32    1
    48    31    27   am
    49    32    33    1
    50    32    35    1
    51    40    38   ar
    52    44    43    1
    53    44    45    2
    54    36    38   ar
    55    36    35    1
    56    33    34    2
    57    26    29    1
    58    26    27    1
    59    26    25    1
    60    43    42    1
    61    43    46    1
    62    29    30    1
    63    27    28    2
    64    48    50   ar
    65    48    47   ar
    66    46    47    1
    67    50    52   ar
    68    47    49   ar
    69    15    13   ar
    70    15    16   ar
    71    13    12   ar
    72    52    53    1
    73    52    51   ar
    74    49    51   ar
    75    16    14   ar
    76    23    22   ar
    77     8     7    1
    78     8     9    1
    79     8    11    1
    80     7     3   am
    81    12    14   ar
    82    12    11    1
    83    19    18    1
    84    19    20    2
    85     9    10    2
    86    22    24   ar
    87    22    21    1
    88    18    17    1
    89    18    21    1
    90     5     2    1
    91     5     6    1
    92     2     3    1
    93     2     1    1
    94     3     4    2
