@<TRIPOS>MOLECULE
tmp/6ek3B00.pdb
 84 82 0 0 0
SMALL
GASTEIGER

@<TRIPOS>ATOM
      1  N        -39.2900   -3.5880  200.7970 N.3    78  HIS78      -0.1226
      2  CA       -39.9630   -2.7930  199.7880 C.3    78  HIS78       0.1752
      3  C        -41.2910   -3.4300  199.4210 C.2    78  HIS78       0.2596
      4  O        -41.3360   -4.4700  198.7440 O.2    78  HIS78      -0.2718
      5  CB       -39.0950   -2.6150  198.5350 C.3    78  HIS78       0.0759
      6  CG       -39.7270   -1.7540  197.4910 C.ar   78  HIS78       0.0818
      7  ND1      -39.5740   -0.3700  197.4470 N.ar   78  HIS78      -0.2268
      8  CD2      -40.5590   -2.0710  196.4700 C.ar   78  HIS78       0.1154
      9  CE1      -40.2540    0.1020  196.4130 C.ar   78  HIS78       0.1986
     10  NE2      -40.8690   -0.9030  195.8120 N.ar   78  HIS78      -0.2212
     11  N        -42.3700   -2.7460  199.8100 N.am   79  GLY79      -0.1957
     12  CA       -43.7330   -3.2230  199.4910 C.3    79  GLY79       0.1869
     13  C        -44.0640   -2.6940  198.1240 C.2    79  GLY79       0.2309
     14  O        -43.7880   -1.5190  197.7830 O.2    79  GLY79      -0.2863
     15  N        -43.6080    9.7480  197.4020 N.3   101  ASN101     -0.1240
     16  CA       -43.9170    9.2290  198.7420 C.3   101  ASN101      0.1653
     17  C        -44.7310   10.2720  199.5340 C.2   101  ASN101      0.2266
     18  O        -44.5390   11.4840  199.3150 O.2   101  ASN101     -0.2867
     19  CB       -42.6340    8.9000  199.5050 C.3   101  ASN101      0.1155
     20  CG       -42.8900    7.9910  200.6820 C.2   101  ASN101      0.2627
     21  OD1      -43.5210    6.9420  200.5130 O.2   101  ASN101     -0.2716
     22  ND2      -42.4300    8.3760  201.8790 N.am  101  ASN101     -0.0877
     23  N        -37.8000    3.8730  197.4030 N.3   110  TYR110     -0.1227
     24  CA       -37.8610    3.8810  198.8850 C.3   110  TYR110      0.1736
     25  C        -37.7720    2.4910  199.4580 C.2   110  TYR110      0.2595
     26  O        -38.4600    1.5820  198.9460 O.2   110  TYR110     -0.2718
     27  CB       -39.1750    4.5240  199.3710 C.3   110  TYR110      0.0548
     28  CG       -39.1520    6.0440  199.2590 C.ar  110  TYR110     -0.0200
     29  CD1      -38.9840    6.6770  198.0110 C.ar  110  TYR110     -0.0009
     30  CD2      -39.2320    6.8360  200.4190 C.ar  110  TYR110     -0.0009
     31  CE1      -38.8830    8.0880  197.9220 C.ar  110  TYR110      0.0417
     32  CE2      -39.1220    8.2140  200.3330 C.ar  110  TYR110      0.0417
     33  CZ       -38.9670    8.8160  199.1070 C.ar  110  TYR110      0.1957
     34  OH       -38.8370   10.1920  199.0200 O.3   110  TYR110     -0.2866
     35  N        -37.0190    2.3630  200.5400 N.am  111  PHE111     -0.1962
     36  CA       -36.8710    1.0770  201.2370 C.3   111  PHE111      0.1771
     37  C        -37.0270    1.3270  202.7040 C.2   111  PHE111      0.2619
     38  O        -36.5200    2.3310  203.2350 O.2   111  PHE111     -0.2715
     39  CB       -35.4820    0.4950  200.9610 C.3   111  PHE111      0.0574
     40  CG       -35.2730    0.2060  199.5140 C.ar  111  PHE111     -0.0200
     41  CD1      -35.7480   -0.9960  198.9610 C.ar  111  PHE111     -0.0042
     42  CD2      -34.6330    1.1160  198.6790 C.ar  111  PHE111     -0.0042
     43  CE1      -35.6230   -1.2860  197.6140 C.ar  111  PHE111     -0.0003
     44  CE2      -34.4590    0.8310  197.3230 C.ar  111  PHE111     -0.0003
     45  CZ       -34.9580   -0.3820  196.7900 C.ar  111  PHE111     -0.0000
     46  N        -37.7220    0.4000  203.3600 N.am  112  ALA112     -0.1977
     47  CA       -38.0190    0.5320  204.7870 C.3   112  ALA112      0.1597
     48  C        -37.1160   -0.3110  205.6740 C.2   112  ALA112      0.2287
     49  O        -36.7880   -1.4520  205.3340 O.2   112  ALA112     -0.2864
     50  CB       -39.4810    0.0930  205.0190 C.3   112  ALA112      0.0319
     51  N        -43.7070   -0.7240  207.8400 N.3   117  LEU117     -0.1231
     52  CA       -43.8500    0.3870  206.8990 C.3   117  LEU117      0.1693
     53  C        -44.2120   -0.0890  205.4900 C.2   117  LEU117      0.2592
     54  O        -45.1950    0.3710  204.8750 O.2   117  LEU117     -0.2718
     55  CB       -42.5830    1.2650  206.8730 C.3   117  LEU117      0.0284
     56  CG       -42.6110    2.5680  206.0400 C.3   117  LEU117      0.0019
     57  CD1      -43.8390    3.4460  206.3510 C.3   117  LEU117      0.0001
     58  CD2      -41.3270    3.3430  206.3490 C.3   117  LEU117      0.0001
     59  N        -43.4390   -1.0400  204.9770 N.am  118  SER118     -0.1952
     60  CA       -43.7340   -1.5820  203.6660 C.3   118  SER118      0.1924
     61  C        -45.0540   -2.3500  203.6330 C.2   118  SER118      0.2314
     62  O        -45.6060   -2.5330  202.5620 O.2   118  SER118     -0.2863
     63  CB       -42.6140   -2.5570  203.2290 C.3   118  SER118      0.2116
     64  OG       -41.3560   -1.8270  203.1640 O.3   118  SER118     -0.2180
     65  N        -48.3440    0.7760  199.9030 N.3   123  TYR123     -0.1241
     66  CA       -47.1270    0.2170  199.2360 C.3   123  TYR123      0.1605
     67  C        -47.3550   -1.2130  198.7350 C.2   123  TYR123      0.2264
     68  O        -47.3080   -1.4700  197.5250 O.2   123  TYR123     -0.2867
     69  CB       -45.9110    0.2930  200.1830 C.3   123  TYR123      0.0534
     70  CG       -45.7310    1.7140  200.7170 C.ar  123  TYR123     -0.0201
     71  CD1      -45.6850    2.8050  199.8230 C.ar  123  TYR123     -0.0009
     72  CD2      -45.6830    1.9560  202.0700 C.ar  123  TYR123     -0.0009
     73  CE1      -45.5810    4.1100  200.3110 C.ar  123  TYR123      0.0417
     74  CE2      -45.5530    3.2420  202.5710 C.ar  123  TYR123      0.0417
     75  CZ       -45.5210    4.2950  201.6790 C.ar  123  TYR123      0.1957
     76  OH       -45.4000    5.5620  202.2270 O.3   123  TYR123     -0.2866
     77  N        -36.2780    4.9260  206.7710 N.3   178  LEU178     -0.1245
     78  CA       -36.3750    4.6520  205.3270 C.3   178  LEU178      0.1561
     79  C        -35.0690    5.0860  204.6760 C.2   178  LEU178      0.2260
     80  O        -34.3430    5.9140  205.2230 O.2   178  LEU178     -0.2867
     81  CB       -37.5560    5.3760  204.6690 C.3   178  LEU178      0.0270
     82  CG       -37.6290    6.9110  204.7300 C.3   178  LEU178      0.0019
     83  CD1      -36.8800    7.5430  203.5860 C.3   178  LEU178      0.0001
     84  CD2      -39.0900    7.3780  204.7010 C.3   178  LEU178      0.0001
@<TRIPOS>BOND
     1    10     9   ar
     2    10     8   ar
     3     9     7   ar
     4     8     6   ar
     5    45    44   ar
     6    45    43   ar
     7    44    42   ar
     8    15    16    1
     9    23    24    1
    10     7     6   ar
    11     6     5    1
    12    68    67    2
    13    43    41   ar
    14    14    13    2
    15    31    29   ar
    16    31    33   ar
    17    29    28   ar
    18    13    12    1
    19     5     2    1
    20    42    40   ar
    21    67    66    1
    22    16    19    1
    23    16    17    1
    24     4     3    2
    25    24    27    1
    26    24    25    1
    27    26    25    2
    28    41    40   ar
    29    34    33    1
    30    33    32   ar
    31    66    65    1
    32    66    69    1
    33    28    27    1
    34    28    30   ar
    35    18    17    2
    36     3     2    1
    37     3    11   am
    38    25    35   am
    39    12    11    1
    40    19    20    1
    41    40    39    1
    42     2     1    1
    43    71    73   ar
    44    71    70   ar
    45    69    70    1
    46    73    75   ar
    47    32    30   ar
    48    21    20    2
    49    35    36    1
    50    20    22   am
    51    70    72   ar
    52    39    36    1
    53    36    37    1
    54    75    76    1
    55    75    74   ar
    56    72    74   ar
    57    62    61    2
    58    37    38    2
    59    37    46   am
    60    64    63    1
    61    63    60    1
    62    46    47    1
    63    83    82    1
    64    61    60    1
    65    60    59    1
    66    81    82    1
    67    81    78    1
    68    79    80    2
    69    79    78    1
    70    84    82    1
    71    47    50    1
    72    47    48    1
    73    54    53    2
    74    59    53   am
    75    78    77    1
    76    49    48    2
    77    53    52    1
    78    56    58    1
    79    56    57    1
    80    56    55    1
    81    55    52    1
    82    52    51    1
