@<TRIPOS>MOLECULE
tmp/6ek3A00.pdb
 116 113 0 0 0
SMALL
GASTEIGER

@<TRIPOS>ATOM
      1  N        -23.1770   13.2140  172.1550 N.3    78  HIS78      -0.1226
      2  CA       -24.0820   13.8380  173.0970 C.3    78  HIS78       0.1752
      3  C        -23.6020   15.2150  173.4500 C.2    78  HIS78       0.2596
      4  O        -22.5610   15.3600  174.0840 O.2    78  HIS78      -0.2718
      5  CB       -24.2030   12.9870  174.3850 C.3    78  HIS78       0.0759
      6  CG       -25.1470   13.5920  175.3910 C.ar   78  HIS78       0.0818
      7  ND1      -26.4950   13.2890  175.4080 N.ar   78  HIS78      -0.2268
      8  CD2      -24.9470   14.4750  176.3970 C.ar   78  HIS78       0.1154
      9  CE1      -27.0890   13.9740  176.3730 C.ar   78  HIS78       0.1986
     10  NE2      -26.1710   14.6980  176.9910 N.ar   78  HIS78      -0.2212
     11  N        -24.3890   16.2140  173.0560 N.am   79  GLY79      -0.1957
     12  CA       -24.0660   17.6170  173.3450 C.3    79  GLY79       0.1869
     13  C        -24.6550   17.9420  174.7060 C.2    79  GLY79       0.2309
     14  O        -25.8100   17.5510  174.9980 O.2    79  GLY79      -0.2863
     15  N        -34.6090   20.0780  177.7430 N.3    98  ASN98      -0.1225
     16  CA       -34.8470   19.7130  176.3480 C.3    98  ASN98       0.1785
     17  C        -36.0640   18.7830  176.1960 C.2    98  ASN98       0.2597
     18  O        -36.5910   18.2640  177.1900 O.2    98  ASN98      -0.2718
     19  CB       -33.5740   19.0800  175.7310 C.3    98  ASN98       0.1169
     20  CG       -32.4630   20.1020  175.4720 C.2    98  ASN98       0.2627
     21  OD1      -31.3100   19.8940  175.8690 O.2    98  ASN98      -0.2716
     22  ND2      -32.7990   21.2060  174.7960 N.am   98  ASN98      -0.0877
     23  N        -36.5070   18.5940  174.9520 N.am   99  ALA99      -0.1979
     24  CA       -37.5950   17.6660  174.6080 C.3    99  ALA99       0.1597
     25  C        -37.2440   16.1790  174.8780 C.2    99  ALA99       0.2287
     26  O        -36.0670   15.7490  174.8310 O.2    99  ALA99      -0.2864
     27  CB       -38.0440   17.8710  173.1600 C.3    99  ALA99       0.0319
     28  N        -39.3900   13.7230  173.4350 N.3   101  SER101     -0.1202
     29  CA       -40.4420   13.2460  172.5570 C.3   101  SER101      0.2020
     30  C        -40.3620   11.7660  172.1570 C.2   101  SER101      0.2618
     31  O        -41.3770   11.2120  171.7390 O.2   101  SER101     -0.2717
     32  CB       -40.5520   14.1390  171.3250 C.3   101  SER101      0.2103
     33  OG       -39.3280   14.1030  170.6240 O.3   101  SER101     -0.2182
     34  N        -39.2040   11.1030  172.3260 N.am  102  TYR102     -0.1975
     35  CA       -39.1370    9.6770  172.0540 C.3   102  TYR102      0.1639
     36  C        -39.0170    8.8670  173.3440 C.2   102  TYR102      0.2290
     37  O        -38.7570    7.6640  173.2780 O.2   102  TYR102     -0.2864
     38  CB       -37.9930    9.3270  171.0780 C.3   102  TYR102      0.0560
     39  CG       -38.3390    9.8740  169.7080 C.ar  102  TYR102     -0.0198
     40  CD1      -39.2000    9.1690  168.8880 C.ar  102  TYR102     -0.0009
     41  CD2      -37.8240   11.0930  169.2650 C.ar  102  TYR102     -0.0009
     42  CE1      -39.5760    9.6530  167.6430 C.ar  102  TYR102      0.0417
     43  CE2      -38.2080   11.6020  168.0040 C.ar  102  TYR102      0.0417
     44  CZ       -39.0850   10.8580  167.2240 C.ar  102  TYR102      0.1957
     45  OH       -39.5040   11.2610  165.9920 O.3   102  TYR102     -0.2866
     46  N        -30.5190   11.0020  175.4170 N.3   107  TYR107     -0.1227
     47  CA       -30.5410   11.0890  173.9530 C.3   107  TYR107      0.1736
     48  C        -29.1370   11.1550  173.3930 C.2   107  TYR107      0.2595
     49  O        -28.3060   11.8940  173.9120 O.2   107  TYR107     -0.2718
     50  CB       -31.3030   12.3570  173.5440 C.3   107  TYR107      0.0548
     51  CG       -32.7880   12.1690  173.6560 C.ar  107  TYR107     -0.0200
     52  CD1      -33.3950   12.0350  174.9170 C.ar  107  TYR107     -0.0009
     53  CD2      -33.5850   12.1040  172.4950 C.ar  107  TYR107     -0.0009
     54  CE1      -34.7640   11.8400  175.0140 C.ar  107  TYR107      0.0417
     55  CE2      -34.9550   11.8990  172.5930 C.ar  107  TYR107      0.0417
     56  CZ       -35.5200   11.7890  173.8530 C.ar  107  TYR107      0.1957
     57  OH       -36.8810   11.5510  173.9280 O.3   107  TYR107     -0.2866
     58  N        -28.9170   10.3820  172.3350 N.am  108  PHE108     -0.1962
     59  CA       -27.6300   10.3540  171.6410 C.3   108  PHE108      0.1771
     60  C        -27.8640   10.4750  170.1470 C.2   108  PHE108      0.2619
     61  O        -28.8200    9.9340  169.6340 O.2   108  PHE108     -0.2715
     62  CB       -26.9110    9.0480  171.9540 C.3   108  PHE108      0.0574
     63  CG       -26.6480    8.8850  173.4320 C.ar  108  PHE108     -0.0200
     64  CD1      -25.5600    9.5190  174.0150 C.ar  108  PHE108     -0.0042
     65  CD2      -27.5100    8.1240  174.2320 C.ar  108  PHE108     -0.0042
     66  CE1      -25.2980    9.3860  175.3540 C.ar  108  PHE108     -0.0003
     67  CE2      -27.2490    7.9880  175.6050 C.ar  108  PHE108     -0.0003
     68  CZ       -26.1620    8.6310  176.1610 C.ar  108  PHE108     -0.0000
     69  N        -26.9900   11.2350  169.4870 N.am  109  ALA109     -0.1977
     70  CA       -27.1290   11.5010  168.0460 C.3   109  ALA109      0.1597
     71  C        -26.1720   10.6630  167.2170 C.2   109  ALA109      0.2287
     72  O        -25.0170   10.4040  167.6260 O.2   109  ALA109     -0.2864
     73  CB       -26.8570   12.9720  167.7680 C.3   109  ALA109      0.0319
     74  N        -26.0880   17.1380  164.8380 N.3   114  LEU114     -0.1231
     75  CA       -27.3080   17.2240  165.6520 C.3   114  LEU114      0.1693
     76  C        -26.9440   17.6200  167.0880 C.2   114  LEU114      0.2592
     77  O        -27.5370   18.5420  167.6320 O.2   114  LEU114     -0.2718
     78  CB       -28.0670   15.9090  165.6330 C.3   114  LEU114      0.0284
     79  CG       -29.3540   15.8600  166.4960 C.3   114  LEU114      0.0019
     80  CD1      -30.3040   17.0260  166.2520 C.3   114  LEU114      0.0001
     81  CD2      -30.0380   14.5340  166.1850 C.3   114  LEU114      0.0001
     82  N        -25.9300   16.9610  167.6790 N.am  115  SER115     -0.1952
     83  CA       -25.4980   17.3450  169.0510 C.3   115  SER115      0.1924
     84  C        -24.8550   18.7360  169.1220 C.2   115  SER115      0.2314
     85  O        -24.7470   19.3320  170.1870 O.2   115  SER115     -0.2863
     86  CB       -24.4700   16.3120  169.5440 C.3   115  SER115      0.2116
     87  OG       -25.1040   15.0380  169.6860 O.3   115  SER115     -0.2180
     88  N        -26.0620   21.4290  167.8660 N.3   117  LYS117     -0.1245
     89  CA       -27.0540   22.4990  168.0540 C.3   117  LYS117      0.1561
     90  C        -26.8430   23.1680  169.3980 C.2   117  LYS117      0.2260
     91  O        -26.5440   22.4980  170.3940 O.2   117  LYS117     -0.2867
     92  CB       -28.4640   21.9420  167.9370 C.3   117  LYS117      0.0271
     93  CG       -28.8670   21.5570  166.5220 C.3   117  LYS117      0.0035
     94  CD       -30.3240   21.0820  166.5810 C.3   117  LYS117      0.0206
     95  CE       -30.8590   20.7060  165.2150 C.3   117  LYS117      0.1093
     96  NZ       -31.2070   21.9880  164.5140 N.3   117  LYS117     -0.1314
     97  N        -28.4230   21.8870  172.6420 N.3   120  TYR120     -0.1241
     98  CA       -27.8330   20.7200  173.3300 C.3   120  TYR120      0.1605
     99  C        -26.4500   21.0420  173.8600 C.2   120  TYR120      0.2264
    100  O        -26.2520   21.1040  175.0910 O.2   120  TYR120     -0.2867
    101  CB       -27.8150   19.4800  172.4190 C.3   120  TYR120      0.0534
    102  CG       -29.1590   19.1600  171.8100 C.ar  120  TYR120     -0.0201
    103  CD1      -30.3100   19.1260  172.6100 C.ar  120  TYR120     -0.0009
    104  CD2      -29.3030   18.9930  170.4260 C.ar  120  TYR120     -0.0009
    105  CE1      -31.5560   18.8830  172.0740 C.ar  120  TYR120      0.0417
    106  CE2      -30.5470   18.7240  169.8760 C.ar  120  TYR120      0.0417
    107  CZ       -31.6560   18.6980  170.6990 C.ar  120  TYR120      0.1957
    108  OH       -32.8730   18.4410  170.1520 O.3   120  TYR120     -0.2866
    109  N        -31.1670    9.2160  165.9790 N.3   175  LEU175     -0.1245
    110  CA       -30.9830    9.3970  167.4360 C.3   175  LEU175      0.1561
    111  C        -31.3460    8.0800  168.1250 C.2   175  LEU175      0.2260
    112  O        -32.0940    7.2580  167.5770 O.2   175  LEU175     -0.2867
    113  CB       -31.8100   10.5960  167.9680 C.3   175  LEU175      0.0270
    114  CG       -33.3210   10.4240  167.8270 C.3   175  LEU175      0.0019
    115  CD1      -33.9840    9.8270  169.0960 C.3   175  LEU175      0.0001
    116  CD2      -33.9650   11.7650  167.4610 C.3   175  LEU175      0.0001
@<TRIPOS>BOND
     1    96    95    1
     2    74    75    1
     3    95    94    1
     4    78    75    1
     5    78    79    1
     6    75    76    1
     7   109   110    1
     8    45    44    1
     9    81    79    1
    10    80    79    1
    11    93    94    1
    12    93    92    1
    13    76    77    2
    14    76    82   am
    15    71    72    2
    16    71    70    1
    17    44    42   ar
    18    44    43   ar
    19   110   113    1
    20   110   111    1
    21   116   114    1
    22   112   111    2
    23    42    40   ar
    24    82    83    1
    25    73    70    1
    26   114   113    1
    27   114   115    1
    28    88    89    1
    29    92    89    1
    30    43    41   ar
    31    70    69    1
    32    89    90    1
    33    40    39   ar
    34    83    84    1
    35    83    86    1
    36    84    85    2
    37    41    39   ar
    38    90    91    2
    39    69    60   am
    40    86    87    1
    41    61    60    2
    42    39    38    1
    43   106   104   ar
    44   106   107   ar
    45    60    59    1
    46   108   107    1
    47   104   102   ar
    48    33    32    1
    49   107   105   ar
    50    38    35    1
    51    32    29    1
    52    59    62    1
    53    59    58    1
    54    31    30    2
    55   102   101    1
    56   102   103   ar
    57    62    63    1
    58    35    34    1
    59    35    36    1
    60   105   103   ar
    61     1     2    1
    62    30    34   am
    63    30    29    1
    64    58    48   am
    65   101    98    1
    66    53    55   ar
    67    53    51   ar
    68    29    28    1
    69    55    56   ar
    70    97    98    1
    71    11    12    1
    72    11     3   am
    73     2     3    1
    74     2     5    1
    75    27    24    1
    76    37    36    2
    77    98    99    1
    78    12    13    1
    79    48    49    2
    80    48    47    1
    81    63    64   ar
    82    63    65   ar
    83     3     4    2
    84    50    51    1
    85    50    47    1
    86    51    52   ar
    87    56    57    1
    88    56    54   ar
    89    99   100    2
    90    47    46    1
    91    64    66   ar
    92    65    67   ar
    93     5     6    1
    94    24    25    1
    95    24    23    1
    96    13    14    2
    97    22    20   am
    98    26    25    2
    99    52    54   ar
   100    23    17   am
   101    66    68   ar
   102     6     7   ar
   103     6     8   ar
   104     7     9   ar
   105    20    19    1
   106    20    21    2
   107    67    68   ar
   108    19    16    1
   109    17    16    1
   110    17    18    2
   111    16    15    1
   112     9    10   ar
   113     8    10   ar
