@<TRIPOS>MOLECULE
tmp/6ek6A00.pdb
 192 186 0 0 0
SMALL
GASTEIGER

@<TRIPOS>ATOM
      1  N         93.1710   55.3650   14.0000 N.3   126  TYR126     -0.1227
      2  CA        92.4720   56.2630   14.9070 C.3   126  TYR126      0.1736
      3  C         91.2360   55.5550   15.4430 C.2   126  TYR126      0.2596
      4  O         90.8070   54.5240   14.9170 O.2   126  TYR126     -0.2718
      5  CB        92.0880   57.5710   14.2040 C.3   126  TYR126      0.0548
      6  CG        91.1490   57.3580   13.0340 C.ar  126  TYR126     -0.0200
      7  CD1       91.6400   57.0960   11.7640 C.ar  126  TYR126     -0.0009
      8  CD2       89.7680   57.3970   13.2110 C.ar  126  TYR126     -0.0009
      9  CE1       90.7760   56.8870   10.6890 C.ar  126  TYR126      0.0417
     10  CE2       88.9000   57.2010   12.1430 C.ar  126  TYR126      0.0417
     11  CZ        89.4160   56.9450   10.8880 C.ar  126  TYR126      0.1957
     12  OH        88.5570   56.7430    9.8380 O.3   126  TYR126     -0.2866
     13  N         90.6710   56.1190   16.5020 N.am  127  GLY127     -0.1942
     14  CA        89.3910   55.6720   17.0420 C.3   127  GLY127      0.2014
     15  C         88.3090   56.6830   16.7070 C.2   127  GLY127      0.2638
     16  O         88.5530   57.8970   16.7370 O.2   127  GLY127     -0.2714
     17  N         87.1170   56.1750   16.3770 N.am  128  ALA128     -0.1977
     18  CA        85.9330   57.0060   16.1520 C.3   128  ALA128      0.1597
     19  C         84.6920   56.1660   16.4490 C.2   128  ALA128      0.2287
     20  O         84.5020   55.1430   15.7870 O.2   128  ALA128     -0.2864
     21  CB        85.9210   57.5340   14.7120 C.3   128  ALA128      0.0319
     22  N         71.9370   58.4880   16.8320 N.3   178  GLY178     -0.1225
     23  CA        73.2220   59.0530   16.4590 C.3   178  GLY178      0.1811
     24  C         73.3320   60.5600   16.6280 C.2   178  GLY178      0.2280
     25  O         74.4500   61.0830   16.7170 O.2   178  GLY178     -0.2866
     26  N         79.9550   61.5740   20.3200 N.3   183  TRP183     -0.1241
     27  CA        80.8760   60.6110   19.7400 C.3   183  TRP183      0.1605
     28  C         82.2960   60.9730   20.1470 C.2   183  TRP183      0.2264
     29  O         82.6210   62.1520   20.3300 O.2   183  TRP183     -0.2867
     30  CB        80.7920   60.5820   18.2150 C.3   183  TRP183      0.0550
     31  CG        79.4420   60.2590   17.6480 C.ar  183  TRP183      0.0003
     32  CD1       78.2630   60.8860   17.9160 C.ar  183  TRP183      0.0946
     33  CD2       79.1500   59.2480   16.6830 C.ar  183  TRP183      0.0152
     34  NE1       77.2490   60.3160   17.1910 N.ar  183  TRP183     -0.2442
     35  CE2       77.7670   59.3080   16.4220 C.ar  183  TRP183      0.0810
     36  CE3       79.9240   58.2940   16.0130 C.ar  183  TRP183      0.0012
     37  CZ2       77.1370   58.4480   15.5200 C.ar  183  TRP183      0.0191
     38  CZ3       79.2970   57.4390   15.1150 C.ar  183  TRP183      0.0001
     39  CH2       77.9170   57.5240   14.8790 C.ar  183  TRP183      0.0015
     40  N         86.6370   60.4630   19.6620 N.3   185  TYR185     -0.1227
     41  CA        87.6360   60.3900   18.5980 C.3   185  TYR185      0.1736
     42  C         89.0170   60.3800   19.2310 C.2   185  TYR185      0.2595
     43  O         89.3940   61.3400   19.9100 O.2   185  TYR185     -0.2718
     44  CB        87.4840   61.5790   17.6290 C.3   185  TYR185      0.0548
     45  CG        86.1250   61.5710   16.9700 C.ar  185  TYR185     -0.0200
     46  CD1       85.0210   62.1460   17.5970 C.ar  185  TYR185     -0.0009
     47  CD2       85.9340   60.9510   15.7360 C.ar  185  TYR185     -0.0009
     48  CE1       83.7590   62.0870   17.0130 C.ar  185  TYR185      0.0417
     49  CE2       84.6810   60.9060   15.1410 C.ar  185  TYR185      0.0417
     50  CZ        83.6050   61.4750   15.7880 C.ar  185  TYR185      0.1957
     51  OH        82.3580   61.4290   15.2100 O.3   185  TYR185     -0.2866
     52  N         89.7630   59.3030   19.0100 N.am  186  VAL186     -0.1966
     53  CA        91.1230   59.1590   19.5180 C.3   186  VAL186      0.1727
     54  C         92.0820   59.3940   18.3540 C.2   186  VAL186      0.2616
     55  O         92.1000   58.6220   17.3870 O.2   186  VAL186     -0.2715
     56  CB        91.3280   57.7790   20.1610 C.3   186  VAL186      0.0290
     57  CG1       92.6910   57.6930   20.8470 C.3   186  VAL186      0.0023
     58  CG2       90.2070   57.5180   21.1830 C.3   186  VAL186      0.0023
     59  N         92.8660   60.4690   18.4220 N.am  187  GLY187     -0.1955
     60  CA        93.7010   60.8740   17.3060 C.3   187  GLY187      0.1869
     61  C         95.1700   60.5330   17.4980 C.2   187  GLY187      0.2309
     62  O         95.6520   60.4060   18.6110 O.2   187  GLY187     -0.2863
     63  N         96.3150   61.4000   11.5380 N.3   191  SER191     -0.1202
     64  CA        94.9790   60.8320   11.3970 C.3   191  SER191      0.2020
     65  C         94.0330   61.9470   10.9770 C.2   191  SER191      0.2619
     66  O         94.0950   63.0590   11.5040 O.2   191  SER191     -0.2717
     67  CB        94.5070   60.1620   12.6920 C.3   191  SER191      0.2103
     68  OG        94.3800   61.0900   13.7620 O.3   191  SER191     -0.2182
     69  N         93.1720   61.6510   10.0050 N.am  192  SER192     -0.1937
     70  CA        92.4860   62.6800    9.2420 C.3   192  SER192      0.2055
     71  C         90.9860   62.4650    9.2450 C.2   192  SER192      0.2643
     72  O         90.5010   61.3300    9.2660 O.2   192  SER192     -0.2714
     73  CB        92.9610   62.7040    7.7830 C.3   192  SER192      0.2130
     74  OG        94.3580   62.8360    7.7340 O.3   192  SER192     -0.2179
     75  N         90.2550   63.5710    9.1890 N.am  193  PHE193     -0.1973
     76  CA        88.8340   63.5340    8.8810 C.3   193  PHE193      0.1639
     77  C         88.6030   64.2060    7.5350 C.2   193  PHE193      0.2290
     78  O         89.0510   65.3400    7.3060 O.2   193  PHE193     -0.2864
     79  CB        87.9560   64.1480    9.9820 C.3   193  PHE193      0.0560
     80  CG        88.3870   65.5200   10.4910 C.ar  193  PHE193     -0.0200
     81  CD1       89.4510   65.6580   11.3750 C.ar  193  PHE193     -0.0042
     82  CD2       87.6250   66.6570   10.1900 C.ar  193  PHE193     -0.0042
     83  CE1       89.7860   66.9100   11.9030 C.ar  193  PHE193     -0.0003
     84  CE2       87.9510   67.9090   10.7290 C.ar  193  PHE193     -0.0003
     85  CZ        89.0330   68.0340   11.5760 C.ar  193  PHE193     -0.0000
     86  N         83.4200   66.7980    4.9480 N.3   196  HIS196     -0.1241
     87  CA        82.0350   66.3860    5.1230 C.3   196  HIS196      0.1621
     88  C         81.2360   67.5480    5.6880 C.2   196  HIS196      0.2264
     89  O         81.7920   68.5420    6.1690 O.2   196  HIS196     -0.2867
     90  CB        81.9350   65.1690    6.0450 C.3   196  HIS196      0.0745
     91  CG        82.2690   65.4810    7.4670 C.ar  196  HIS196      0.0817
     92  ND1       83.5680   65.6370    7.9050 N.ar  196  HIS196     -0.2268
     93  CD2       81.4760   65.6960    8.5450 C.ar  196  HIS196      0.1154
     94  CE1       83.5600   65.9170    9.1980 C.ar  196  HIS196      0.1986
     95  NE2       82.3020   65.9690    9.6080 N.ar  196  HIS196     -0.2212
     96  N         77.4970   67.9050    8.2390 N.3   198  GLU198     -0.1231
     97  CA        76.8030   67.0840    9.2170 C.3   198  GLU198      0.1699
     98  C         75.4730   66.5530    8.6710 C.2   198  GLU198      0.2592
     99  O         74.8800   67.1140    7.7430 O.2   198  GLU198     -0.2718
    100  CB        76.5550   67.8720   10.4970 C.3   198  GLU198      0.0402
    101  CG        77.8130   68.4520   11.1590 C.3   198  GLU198      0.1161
    102  CD        78.8700   67.3950   11.4510 C.2   198  GLU198      0.3649
    103  OE1       78.5350   66.2920   11.9550 O.co2 198  GLU198     -0.2457
    104  OE2       80.0500   67.7030   11.2300 O.co2 198  GLU198     -0.2457
    105  N         75.0140   65.4480    9.2630 N.am  199  ASP199     -0.1974
    106  CA        73.6960   64.8970    8.9450 C.3   199  ASP199      0.1709
    107  C         72.6140   65.9570    9.0710 C.2   199  ASP199      0.2293
    108  O         72.5500   66.6760   10.0690 O.2   199  ASP199     -0.2864
    109  CB        73.3740   63.7200    9.8770 C.3   199  ASP199      0.1436
    110  CG        74.2350   62.5040    9.5850 C.2   199  ASP199      0.3671
    111  OD1       74.7970   62.4620    8.4770 O.co2 199  ASP199     -0.2456
    112  OD2       74.3480   61.6040   10.4480 O.co2 199  ASP199     -0.2456
    113  N         77.5460   71.3010   14.4540 N.3   204  SER204     -0.1217
    114  CA        78.2520   70.3690   15.3200 C.3   204  SER204      0.1889
    115  C         79.0700   71.1580   16.3340 C.2   204  SER204      0.2288
    116  O         79.4770   72.2950   16.0820 O.2   204  SER204     -0.2866
    117  CB        79.1330   69.3860   14.5260 C.3   204  SER204      0.2089
    118  OG        80.2820   70.0210   13.9710 O.3   204  SER204     -0.2183
    119  N         82.3730   70.5240   18.8910 N.3   206  ASN206     -0.1240
    120  CA        83.5280   69.6420   18.9380 C.3   206  ASN206      0.1653
    121  C         84.4610   70.1440   20.0280 C.2   206  ASN206      0.2266
    122  O         84.9210   71.2920   19.9760 O.2   206  ASN206     -0.2867
    123  CB        84.2340   69.6230   17.5740 C.3   206  ASN206      0.1155
    124  CG        83.2820   69.2730   16.4380 C.2   206  ASN206      0.2627
    125  OD1       83.2530   68.1370   15.9850 O.2   206  ASN206     -0.2716
    126  ND2       82.4890   70.2550   15.9770 N.am  206  ASN206     -0.0877
    127  N         94.2610   69.6830   17.2290 N.3   214  LYS214     -0.1245
    128  CA        93.5440   69.1950   16.0590 C.3   214  LYS214      0.1561
    129  C         93.4530   70.3480   15.0640 C.2   214  LYS214      0.2260
    130  O         92.9710   71.4330   15.4120 O.2   214  LYS214     -0.2867
    131  CB        92.1490   68.6890   16.4510 C.3   214  LYS214      0.0271
    132  CG        91.3760   68.0190   15.3190 C.3   214  LYS214      0.0035
    133  CD        89.8890   67.7510   15.7180 C.3   214  LYS214      0.0206
    134  CE        89.7920   66.8230   16.9240 C.3   214  LYS214      0.1093
    135  NZ        90.3780   65.4830   16.6230 N.3   214  LYS214     -0.1314
    136  N         91.9490   72.1660   11.7630 N.3   216  TRP216     -0.1241
    137  CA        90.6830   72.2010   11.0380 C.3   216  TRP216      0.1605
    138  C         90.7730   73.0870    9.8050 C.2   216  TRP216      0.2264
    139  O         91.4250   74.1360    9.8250 O.2   216  TRP216     -0.2867
    140  CB        89.5370   72.7610   11.8900 C.3   216  TRP216      0.0550
    141  CG        89.1250   71.9260   13.0790 C.ar  216  TRP216      0.0003
    142  CD1       89.8340   71.7390   14.2470 C.ar  216  TRP216      0.0946
    143  CD2       87.8900   71.2170   13.2380 C.ar  216  TRP216      0.0152
    144  NE1       89.1100   70.9440   15.1110 N.ar  216  TRP216     -0.2442
    145  CE2       87.9170   70.6100   14.5120 C.ar  216  TRP216      0.0810
    146  CE3       86.7660   71.0300   12.4180 C.ar  216  TRP216      0.0012
    147  CZ2       86.8580   69.8240   14.9910 C.ar  216  TRP216      0.0191
    148  CZ3       85.7080   70.2530   12.8960 C.ar  216  TRP216      0.0001
    149  CH2       85.7640   69.6570   14.1690 C.ar  216  TRP216      0.0015
    150  N         83.8700   70.7420    6.2870 N.3   284  HIS284     -0.1241
    151  CA        85.1130   70.8470    7.0480 C.3   284  HIS284      0.1621
    152  C         85.9010   69.5530    6.9340 C.2   284  HIS284      0.2264
    153  O         85.3470   68.4920    6.6380 O.2   284  HIS284     -0.2867
    154  CB        84.8440   71.1850    8.5230 C.3   284  HIS284      0.0745
    155  CG        83.7270   70.3960    9.1230 C.ar  284  HIS284      0.0817
    156  ND1       83.9330   69.3040    9.9480 N.ar  284  HIS284     -0.2268
    157  CD2       82.3930   70.4630    8.9150 C.ar  284  HIS284      0.1154
    158  CE1       82.7630   68.8070   10.3030 C.ar  284  HIS284      0.1986
    159  NE2       81.8170   69.4800    9.6750 N.ar  284  HIS284     -0.2212
    160  N         94.9470   65.4210   12.8950 N.3   288  ASN288     -0.1240
    161  CA        95.4460   65.5630   14.2450 C.3   288  ASN288      0.1653
    162  C         96.9620   65.7260   14.2280 C.2   288  ASN288      0.2266
    163  O         97.6630   65.0700   13.4500 O.2   288  ASN288     -0.2867
    164  CB        95.0210   64.3570   15.0790 C.3   288  ASN288      0.1155
    165  CG        93.5210   64.3340   15.2960 C.2   288  ASN288      0.2627
    166  OD1       92.9750   65.2550   15.9060 O.2   288  ASN288     -0.2716
    167  ND2       92.8380   63.3380   14.7280 N.am  288  ASN288     -0.0877
    168  N         89.0410   63.6610   21.6180 N.3   294  ALA294     -0.1245
    169  CA        88.0350   64.6610   21.2910 C.3   294  ALA294      0.1562
    170  C         86.6410   64.0610   21.4110 C.2   294  ALA294      0.2260
    171  O         86.4520   62.8490   21.3100 O.2   294  ALA294     -0.2867
    172  CB        88.2220   65.2130   19.8590 C.3   294  ALA294      0.0290
    173  N         82.3990   65.0270   20.2050 N.3   296  ALA296     -0.1231
    174  CA        81.5750   65.8740   19.3440 C.3   296  ALA296      0.1694
    175  C         80.1130   65.4420   19.4090 C.2   296  ALA296      0.2592
    176  O         79.8040   64.2830   19.6840 O.2   296  ALA296     -0.2718
    177  CB        82.0610   65.8270   17.8840 C.3   296  ALA296      0.0304
    178  N         79.2090   66.3780   19.1130 N.am  297  VAL297     -0.1966
    179  CA        77.7780   66.0720   19.0910 C.3   297  VAL297      0.1727
    180  C         77.0990   66.9760   18.0710 C.2   297  VAL297      0.2616
    181  O         77.5100   68.1280   17.8660 O.2   297  VAL297     -0.2715
    182  CB        77.1580   66.2070   20.5070 C.3   297  VAL297      0.0290
    183  CG1       76.9670   67.6880   20.9090 C.3   297  VAL297      0.0023
    184  CG2       75.8510   65.4170   20.6210 C.3   297  VAL297      0.0023
    185  N         76.0960   66.4200   17.3830 N.am  298  ASN298     -0.1972
    186  CA        75.2240   67.2130   16.5250 C.3   298  ASN298      0.1688
    187  C         74.4140   68.1760   17.3760 C.2   298  ASN298      0.2292
    188  O         74.2120   67.9650   18.5760 O.2   298  ASN298     -0.2864
    189  CB        74.2580   66.3330   15.7270 C.3   298  ASN298      0.1181
    190  CG        74.9600   65.3880   14.7910 C.2   298  ASN298      0.2629
    191  OD1       75.1300   64.2030   15.0930 O.2   298  ASN298     -0.2716
    192  ND2       75.3510   65.8900   13.6400 N.am  298  ASN298     -0.0877
@<TRIPOS>BOND
     1    86    87    1
     2    87    88    1
     3    87    90    1
     4    88    89    2
     5    90    91    1
     6   150   151    1
     7   153   152    2
     8   152   151    1
     9   151   154    1
    10    78    77    2
    11    91    92   ar
    12    91    93   ar
    13    77    76    1
    14    74    73    1
    15    99    98    2
    16    73    70    1
    17    92    94   ar
    18    96    97    1
    19   111   110   ar
    20   154   155    1
    21    93    95   ar
    22    98    97    1
    23    98   105   am
    24    76    75    1
    25    76    79    1
    26   157   155   ar
    27   157   159   ar
    28   106   107    1
    29   106   105    1
    30   106   109    1
    31   107   108    2
    32   155   156   ar
    33    75    71   am
    34    94    95   ar
    35    97   100    1
    36    70    71    1
    37    70    69    1
    38    71    72    2
    39   110   109    1
    40   110   112   ar
    41   159   158   ar
    42   138   139    2
    43   138   137    1
    44    12    11    1
    45   156   158   ar
    46    79    80    1
    47    69    65   am
    48    82    80   ar
    49    82    84   ar
    50    80    81   ar
    51   100   101    1
    52     9    11   ar
    53     9     7   ar
    54    84    85   ar
    55    11    10   ar
    56    65    64    1
    57    65    66    2
    58   137   136    1
    59   137   140    1
    60   101   102    1
    61   104   102   ar
    62    81    83   ar
    63    64    63    1
    64    64    67    1
    65   102   103   ar
    66    85    83   ar
    67     7     6   ar
    68   140   141    1
    69    10     8   ar
    70   146   148   ar
    71   146   143   ar
    72    67    68    1
    73   160   161    1
    74   148   149   ar
    75     6     8   ar
    76     6     5    1
    77   141   143   ar
    78   141   142   ar
    79   143   145   ar
    80   163   162    2
    81   192   190   am
    82   118   117    1
    83     1     2    1
    84   149   147   ar
    85     5     2    1
    86   162   161    1
    87   161   164    1
    88   142   144   ar
    89   113   114    1
    90   145   147   ar
    91   145   144   ar
    92   117   114    1
    93    21    18    1
    94   167   165   am
    95   190   191    2
    96   190   189    1
    97    39    38   ar
    98    39    37   ar
    99     2     3    1
   100     4     3    2
   101   129   130    2
   102   129   128    1
   103   164   165    1
   104    38    36   ar
   105    49    47   ar
   106    49    50   ar
   107    51    50    1
   108   165   166    2
   109   132   133    1
   110   132   131    1
   111   114   115    1
   112     3    13   am
   113    37    35   ar
   114   133   134    1
   115   189   186    1
   116    47    45   ar
   117    20    19    2
   118    50    48   ar
   119   126   124   am
   120   125   124    2
   121    36    33   ar
   122   128   131    1
   123   128   127    1
   124   116   115    2
   125    18    17    1
   126    18    19    1
   127    17    15   am
   128    35    33   ar
   129    35    34   ar
   130   124   123    1
   131    23    24    1
   132    23    22    1
   133    13    14    1
   134   186   187    1
   135   186   185    1
   136   135   134    1
   137    24    25    2
   138    33    31   ar
   139    15    16    2
   140    15    14    1
   141    45    46   ar
   142    45    44    1
   143    48    46   ar
   144    34    32   ar
   145    60    61    1
   146    60    59    1
   147   187   188    2
   148   185   180   am
   149    55    54    2
   150    61    62    2
   151   123   120    1
   152    44    41    1
   153    31    32   ar
   154    31    30    1
   155   181   180    2
   156   177   174    1
   157   180   179    1
   158    30    27    1
   159    54    59   am
   160    54    53    1
   161    41    42    1
   162    41    40    1
   163   119   120    1
   164   120   121    1
   165    52    42   am
   166    52    53    1
   167   179   178    1
   168   179   182    1
   169   178   175   am
   170    42    43    2
   171   174   175    1
   172   174   173    1
   173   175   176    2
   174    53    56    1
   175    27    28    1
   176    27    26    1
   177   172   169    1
   178   122   121    2
   179    28    29    2
   180    56    57    1
   181    56    58    1
   182   182   184    1
   183   182   183    1
   184   169   170    1
   185   169   168    1
   186   171   170    2
