@<TRIPOS>MOLECULE
tmp/6ek7A02.pdb
 78 71 0 0 0
SMALL
GASTEIGER

@<TRIPOS>ATOM
      1  N        -92.0780    8.6410    9.9800 N.3    91  LEU91      -0.1231
      2  CA       -92.9720    8.8260    8.8320 C.3    91  LEU91       0.1693
      3  C        -93.7480    7.5450    8.5280 C.2    91  LEU91       0.2591
      4  O        -94.9810    7.5590    8.3740 O.2    91  LEU91      -0.2718
      5  CB       -92.1450    9.2480    7.6170 C.3    91  LEU91       0.0284
      6  CG       -92.9150    9.4100    6.3100 C.3    91  LEU91       0.0019
      7  CD1      -93.8880   10.5500    6.4170 C.3    91  LEU91       0.0001
      8  CD2      -91.9630    9.5900    5.1360 C.3    91  LEU91       0.0001
      9  N        -93.0370    6.4180    8.4450 N.am   92  ILE92      -0.1980
     10  CA       -93.6900    5.1360    8.1440 C.3    92  ILE92       0.1595
     11  C        -94.7070    4.7800    9.2220 C.2    92  ILE92       0.2287
     12  O        -95.8160    4.2960    8.9300 O.2    92  ILE92      -0.2864
     13  CB       -92.6220    4.0300    7.9930 C.3    92  ILE92       0.0276
     14  CG1      -91.6270    4.3770    6.8860 C.3    92  ILE92       0.0022
     15  CG2      -93.2720    2.6690    7.7210 C.3    92  ILE92       0.0022
     16  CD1      -92.2740    4.6220    5.5580 C.3    92  ILE92       0.0001
     17  N        -96.5600    6.5390   10.9030 N.3    94  GLN94      -0.1231
     18  CA       -97.7990    7.2950   10.8450 C.3    94  GLN94       0.1698
     19  C        -98.8840    6.5230   10.0940 C.2    94  GLN94       0.2592
     20  O       -100.0660    6.8300   10.2350 O.2    94  GLN94      -0.2718
     21  CB       -97.5590    8.6500   10.1880 C.3    94  GLN94       0.0381
     22  CG       -96.6740    9.6090   11.0100 C.3    94  GLN94       0.0905
     23  CD       -96.9140    9.4820   12.5110 C.2    94  GLN94       0.2608
     24  OE1      -97.9190    9.9810   13.0320 O.2    94  GLN94      -0.2717
     25  NE2      -95.9820    8.8350   13.2150 N.am   94  GLN94      -0.0878
     26  N        -98.5040    5.5360    9.2950 N.am   95  MET95      -0.1979
     27  CA       -99.4890    4.6970    8.6140 C.3    95  MET95       0.1605
     28  C       -100.1460    3.7380    9.6100 C.2    95  MET95       0.2287
     29  O        -99.4430    3.1000   10.4120 O.2    95  MET95      -0.2864
     30  CB       -98.8100    3.8890    7.5000 C.3    95  MET95       0.0413
     31  CG       -99.7960    2.9760    6.7450 C.3    95  MET95       0.0598
     32  SD       -99.0180    2.0360    5.4240 S.3    95  MET95      -0.1393
     33  CE       -98.1940    3.3930    4.5750 C.3    95  MET95       0.0692
     34  N        -94.8830    2.2100   -1.6800 N.3   108  ILE108     -0.1245
     35  CA       -94.8030    3.6370   -1.3600 C.3   108  ILE108      0.1561
     36  C        -93.6430    4.3280   -2.0290 C.2   108  ILE108      0.2260
     37  O        -93.4280    5.5270   -1.7740 O.2   108  ILE108     -0.2867
     38  CB       -94.7610    3.9180    0.1560 C.3   108  ILE108      0.0252
     39  CG1      -93.5560    3.2510    0.8030 C.3   108  ILE108      0.0019
     40  CG2      -96.1410    3.5310    0.7900 C.3   108  ILE108      0.0019
     41  CD1      -93.2730    3.7720    2.1810 C.3   108  ILE108      0.0001
     42  N        -95.4730    4.2460   -7.0280 N.3   112  GLN112     -0.1245
     43  CA       -95.9370    5.6130   -7.2500 C.3   112  GLN112      0.1566
     44  C        -95.1890    6.3260   -8.3770 C.2   112  GLN112      0.2260
     45  O        -95.6500    7.3740   -8.8340 O.2   112  GLN112     -0.2867
     46  CB       -95.8030    6.4710   -5.9730 C.3   112  GLN112      0.0367
     47  CG       -96.2170    5.8400   -4.6390 C.3   112  GLN112      0.0905
     48  CD       -97.7110    5.6830   -4.4660 C.2   112  GLN112      0.2608
     49  OE1      -98.2670    4.6410   -4.7870 O.2   112  GLN112     -0.2717
     50  NE2      -98.3740    6.7280   -3.9730 N.am  112  GLN112     -0.0878
     51  N        -98.1860   12.5860   -3.1840 N.3   120  ASP120     -0.1239
     52  CA       -97.5930   11.2980   -2.8470 C.3   120  ASP120      0.1674
     53  C        -96.5300   10.8950   -3.8500 C.2   120  ASP120      0.2266
     54  O        -95.6520   10.1020   -3.5240 O.2   120  ASP120     -0.2867
     55  CB       -98.6620   10.2040   -2.7830 C.3   120  ASP120      0.1410
     56  CG       -99.6150   10.3790   -1.6160 C.2   120  ASP120      0.3668
     57  OD1      -99.1350   10.5600   -0.4740 O.co2 120  ASP120     -0.2456
     58  OD2     -100.8470   10.3020   -1.8380 O.co2 120  ASP120     -0.2456
     59  N        -93.3570   12.9120   -2.4820 N.3   123  VAL123     -0.1231
     60  CA       -92.7850   12.4210   -1.2360 C.3   123  VAL123      0.1692
     61  C        -92.2170   11.0250   -1.4270 C.2   123  VAL123      0.2591
     62  O        -91.1850   10.6900   -0.8490 O.2   123  VAL123     -0.2718
     63  CB       -93.8240   12.4710   -0.1040 C.3   123  VAL123      0.0266
     64  CG1      -93.2600   11.8550    1.1590 C.3   123  VAL123      0.0020
     65  CG2      -94.2220   13.9240    0.1660 C.3   123  VAL123      0.0020
     66  N        -92.8790   10.1930   -2.2390 N.am  124  ALA124     -0.1980
     67  CA       -92.3540    8.8600   -2.5420 C.3   124  ALA124      0.1597
     68  C        -91.0450    8.9470   -3.3060 C.2   124  ALA124      0.2287
     69  O        -90.1260    8.1500   -3.0890 O.2   124  ALA124     -0.2864
     70  CB       -93.3900    8.0710   -3.3570 C.3   124  ALA124      0.0319
     71  N        -88.4940    9.9660   -0.6900 N.3   127  LEU127     -0.1245
     72  CA       -88.1600    8.7850    0.1210 C.3   127  LEU127      0.1561
     73  C        -87.2020    7.8620   -0.6170 C.2   127  LEU127      0.2260
     74  O        -86.2220    7.3790   -0.0360 O.2   127  LEU127     -0.2867
     75  CB       -89.4580    8.0250    0.4870 C.3   127  LEU127      0.0270
     76  CG       -89.2080    6.7600    1.3230 C.3   127  LEU127      0.0019
     77  CD1      -88.5230    7.1170    2.6260 C.3   127  LEU127      0.0001
     78  CD2      -90.5330    5.9930    1.5940 C.3   127  LEU127      0.0001
@<TRIPOS>BOND
     1    45    44    2
     2    44    43    1
     3    43    42    1
     4    43    46    1
     5    46    47    1
     6    49    48    2
     7    47    48    1
     8    48    50   am
     9    53    54    2
    10    53    52    1
    11    70    67    1
    12    68    69    2
    13    68    67    1
    14    51    52    1
    15    52    55    1
    16    55    56    1
    17    67    66    1
    18    59    60    1
    19    66    61   am
    20    36    37    2
    21    36    35    1
    22    58    56   ar
    23    34    35    1
    24    56    57   ar
    25    61    60    1
    26    61    62    2
    27    35    38    1
    28    60    63    1
    29    71    72    1
    30    73    74    2
    31    73    72    1
    32    63    65    1
    33    63    64    1
    34    72    75    1
    35    38    40    1
    36    38    39    1
    37    75    76    1
    38    39    41    1
    39    76    78    1
    40    76    77    1
    41    33    32    1
    42     8     6    1
    43    32    31    1
    44    16    14    1
    45     6     7    1
    46     6     5    1
    47    31    30    1
    48    14    13    1
    49    30    27    1
    50     5     2    1
    51    15    13    1
    52    13    10    1
    53    10     9    1
    54    10    11    1
    55     4     3    2
    56     9     3   am
    57     3     2    1
    58    27    26    1
    59    27    28    1
    60     2     1    1
    61    12    11    2
    62    26    19   am
    63    28    29    2
    64    19    20    2
    65    19    18    1
    66    21    18    1
    67    21    22    1
    68    18    17    1
    69    22    23    1
    70    23    24    2
    71    23    25   am
