@<TRIPOS>MOLECULE
tmp/6ek7A01.pdb
 92 86 0 0 0
SMALL
GASTEIGER

@<TRIPOS>ATOM
      1  N        -92.5810   -1.7780    0.7790 N.3   105  LEU105     -0.1245
      2  CA       -91.8040   -0.5630    0.5480 C.3   105  LEU105      0.1561
      3  C        -91.9080   -0.1170   -0.9080 C.2   105  LEU105      0.2260
      4  O        -91.9670    1.0900   -1.2030 O.2   105  LEU105     -0.2867
      5  CB       -90.3430   -0.8080    0.9620 C.3   105  LEU105      0.0270
      6  CG       -89.3510    0.3420    0.7080 C.3   105  LEU105      0.0019
      7  CD1      -89.7530    1.6770    1.4250 C.3   105  LEU105      0.0001
      8  CD2      -87.9420   -0.0080    1.0700 C.3   105  LEU105      0.0001
      9  N        -92.8760    3.6260   -2.8670 N.3   109  THR109     -0.1203
     10  CA       -91.8220    4.2540   -3.6640 C.3   109  THR109      0.1994
     11  C        -92.0920    3.9630   -5.1440 C.2   109  THR109      0.2617
     12  O        -92.7950    4.7360   -5.8090 O.2   109  THR109     -0.2717
     13  CB       -90.4080    3.8000   -3.2290 C.3   109  THR109      0.1784
     14  OG1      -90.3130    2.3570   -3.1630 O.3   109  THR109     -0.2211
     15  CG2      -90.0280    4.3820   -1.8680 C.3   109  THR109      0.0376
     16  N        -91.5960    2.8260   -5.6460 N.am  110  ASP110     -0.1973
     17  CA       -91.5840    2.5720   -7.0870 C.3   110  ASP110      0.1709
     18  C        -92.9880    2.6040   -7.6940 C.2   110  ASP110      0.2293
     19  O        -93.2030    3.1860   -8.7650 O.2   110  ASP110     -0.2864
     20  CB       -90.9130    1.2250   -7.3690 C.3   110  ASP110      0.1436
     21  CG       -89.3810    1.2890   -7.2910 C.2   110  ASP110      0.3671
     22  OD1      -88.8090    2.1150   -6.5300 O.co2 110  ASP110     -0.2456
     23  OD2      -88.7370    0.4970   -8.0100 O.co2 110  ASP110     -0.2456
     24  N        -87.4630    7.5840   -1.9000 N.3   128  LYS128     -0.1245
     25  CA       -86.5210    6.7510   -2.6380 C.3   128  LYS128      0.1561
     26  C        -85.1450    7.4150   -2.7160 C.2   128  LYS128      0.2260
     27  O        -84.1090    6.7570   -2.5420 O.2   128  LYS128     -0.2867
     28  CB       -87.0450    6.4440   -4.0360 C.3   128  LYS128      0.0271
     29  CG       -85.9960    5.7780   -4.9100 C.3   128  LYS128      0.0035
     30  CD       -86.5900    5.1330   -6.1410 C.3   128  LYS128      0.0206
     31  CE       -85.6810    3.9880   -6.6190 C.3   128  LYS128      0.1093
     32  NZ       -84.3280    4.4540   -7.0430 N.3   128  LYS128     -0.1314
     33  N        -83.1650    7.2770    0.6940 N.3   131  LEU131     -0.1231
     34  CA       -82.6080    5.9520    0.9450 C.3   131  LEU131      0.1693
     35  C        -81.3810    5.7110    0.0740 C.2   131  LEU131      0.2592
     36  O        -80.3460    5.2350    0.5570 O.2   131  LEU131     -0.2718
     37  CB       -83.6910    4.9010    0.7090 C.3   131  LEU131      0.0284
     38  CG       -84.8400    4.9810    1.7190 C.3   131  LEU131      0.0019
     39  CD1      -85.9970    4.0380    1.3430 C.3   131  LEU131      0.0001
     40  CD2      -84.3410    4.6670    3.1290 C.3   131  LEU131      0.0001
     41  N        -81.4750    6.0310   -1.2200 N.am  132  ASP132     -0.1974
     42  CA       -80.3100    5.9100   -2.0930 C.3   132  ASP132      0.1709
     43  C        -79.1450    6.7740   -1.6060 C.2   132  ASP132      0.2293
     44  O        -77.9920    6.3270   -1.6140 O.2   132  ASP132     -0.2864
     45  CB       -80.6810    6.2760   -3.5280 C.3   132  ASP132      0.1436
     46  CG       -81.5620    5.2230   -4.1910 C.2   132  ASP132      0.3671
     47  OD1      -81.6140    4.0890   -3.6690 O.co2 132  ASP132     -0.2456
     48  OD2      -82.1890    5.5310   -5.2280 O.co2 132  ASP132     -0.2456
     49  N        -77.6270    5.1490    1.4980 N.3   135  LYS135     -0.1245
     50  CA       -76.8310    3.9830    1.1140 C.3   135  LYS135      0.1561
     51  C        -75.4550    4.4080    0.5860 C.2   135  LYS135      0.2260
     52  O        -74.4110    3.8800    1.0150 O.2   135  LYS135     -0.2867
     53  CB       -77.6020    3.1550    0.0780 C.3   135  LYS135      0.0271
     54  CG       -76.7480    2.0600   -0.5890 C.3   135  LYS135      0.0035
     55  CD       -77.5510    1.2160   -1.5480 C.3   135  LYS135      0.0206
     56  CE       -78.0920   -0.0100   -0.8430 C.3   135  LYS135      0.1093
     57  NZ       -78.5360   -1.0790   -1.8060 N.3   135  LYS135     -0.1314
     58  N        -78.0980   -2.3450    5.3250 N.3   316  PHE316     -0.1241
     59  CA       -78.7780   -1.4830    4.3560 C.3   316  PHE316      0.1605
     60  C        -79.0000   -2.2120    3.0430 C.2   316  PHE316      0.2264
     61  O        -80.0050   -1.9760    2.3520 O.2   316  PHE316     -0.2867
     62  CB       -77.9690   -0.2160    4.1090 C.3   316  PHE316      0.0534
     63  CG       -78.8230    0.9690    3.7360 C.ar  316  PHE316     -0.0203
     64  CD1      -79.5400    0.9790    2.5490 C.ar  316  PHE316     -0.0042
     65  CD2      -78.9210    2.0570    4.5840 C.ar  316  PHE316     -0.0042
     66  CE1      -80.3370    2.0660    2.2120 C.ar  316  PHE316     -0.0003
     67  CE2      -79.7230    3.1430    4.2590 C.ar  316  PHE316     -0.0003
     68  CZ       -80.4360    3.1440    3.0730 C.ar  316  PHE316     -0.0000
     69  N        -82.4100   -3.8830    2.5130 N.3   319  ILE319     -0.1231
     70  CA       -83.6210   -3.1240    2.2390 C.3   319  ILE319      0.1692
     71  C        -83.9550   -3.2810    0.7640 C.2   319  ILE319      0.2592
     72  O        -83.0930   -3.0710   -0.0940 O.2   319  ILE319     -0.2718
     73  CB       -83.4260   -1.6420    2.6150 C.3   319  ILE319      0.0266
     74  CG1      -83.1800   -1.5060    4.1180 C.3   319  ILE319      0.0019
     75  CG2      -84.6550   -0.8120    2.2000 C.3   319  ILE319      0.0020
     76  CD1      -82.8060   -0.0670    4.5450 C.3   319  ILE319      0.0001
     77  N        -85.1810   -3.6910    0.4600 N.am  320  ASN320     -0.1960
     78  CA       -85.5950   -3.8090   -0.9350 C.3   320  ASN320      0.1819
     79  C        -87.0970   -3.6010   -1.0400 C.2   320  ASN320      0.2621
     80  O        -87.8180   -3.5280   -0.0360 O.2   320  ASN320     -0.2715
     81  CB       -85.1860   -5.1690   -1.5340 C.3   320  ASN320      0.1195
     82  CG       -85.8670   -6.3390   -0.8530 C.2   320  ASN320      0.2630
     83  OD1      -87.0390   -6.5510   -1.0390 O.2   320  ASN320     -0.2716
     84  ND2      -85.1190   -7.1110   -0.0670 N.am  320  ASN320     -0.0877
     85  N        -87.5870   -3.5720   -2.2850 N.am  321  ASN321     -0.1972
     86  CA       -88.9760   -3.1970   -2.5410 C.3   321  ASN321      0.1688
     87  C        -89.9800   -4.1440   -1.8930 C.2   321  ASN321      0.2292
     88  O        -91.1340   -3.7600   -1.6990 O.2   321  ASN321     -0.2864
     89  CB       -89.2670   -3.1970   -4.0440 C.3   321  ASN321      0.1181
     90  CG       -88.8590   -1.9300   -4.7170 C.2   321  ASN321      0.2629
     91  OD1      -88.5940   -0.9320   -4.0650 O.2   321  ASN321     -0.2716
     92  ND2      -88.8190   -1.9540   -6.0460 N.am  321  ASN321     -0.0877
@<TRIPOS>BOND
     1    19    18    2
     2    23    21   ar
     3    18    17    1
     4    20    21    1
     5    20    17    1
     6    21    22   ar
     7    17    16    1
     8    32    31    1
     9    31    30    1
    10    30    29    1
    11    92    90   am
    12    12    11    2
    13    16    11   am
    14    48    46   ar
    15    11    10    1
    16    29    28    1
    17    90    91    2
    18    90    89    1
    19    46    47   ar
    20    46    45    1
    21    89    86    1
    22    28    25    1
    23    10    13    1
    24    10     9    1
    25    45    42    1
    26    13    14    1
    27    13    15    1
    28    26    25    1
    29    26    27    2
    30    25    24    1
    31    86    85    1
    32    86    87    1
    33    85    79   am
    34    42    43    1
    35    42    41    1
    36    87    88    2
    37    57    56    1
    38    44    43    2
    39    55    56    1
    40    55    54    1
    41    81    78    1
    42    81    82    1
    43    41    35   am
    44     4     3    2
    45    79    78    1
    46    79    80    2
    47    83    82    2
    48    78    77    1
    49     3     2    1
    50    82    84   am
    51    54    53    1
    52    72    71    2
    53    35    36    2
    54    35    34    1
    55    53    50    1
    56    77    71   am
    57     2     1    1
    58     2     5    1
    59    51    52    2
    60    51    50    1
    61    33    34    1
    62     6     5    1
    63     6     8    1
    64     6     7    1
    65    37    34    1
    66    37    38    1
    67    71    70    1
    68    50    49    1
    69    39    38    1
    70    38    40    1
    71    75    73    1
    72    66    64   ar
    73    66    68   ar
    74    70    69    1
    75    70    73    1
    76    61    60    2
    77    64    63   ar
    78    73    74    1
    79    60    59    1
    80    68    67   ar
    81    63    62    1
    82    63    65   ar
    83    62    59    1
    84    74    76    1
    85    67    65   ar
    86    59    58    1
