@<TRIPOS>MOLECULE
tmp/6ekjA00.pdb
 110 104 0 0 0
SMALL
GASTEIGER

@<TRIPOS>ATOM
      1  N          4.6650   18.7960  -12.0040 N.3    69  CYS69      -0.1235
      2  CA         5.9440   18.5710  -12.6710 C.3    69  CYS69       0.1677
      3  C          5.7790   18.2590  -14.1530 C.2    69  CYS69       0.2270
      4  O          6.6980   18.4770  -14.9440 O.2    69  CYS69      -0.2867
      5  CB         6.6890   17.3990  -12.0230 C.3    69  CYS69       0.0956
      6  SG         7.1360   17.6380  -10.3120 S.3    69  CYS69      -0.0801
      7  N          6.7160   20.0870  -18.8830 N.3    73  LEU73      -0.1245
      8  CA         7.0730   19.1110  -19.9030 C.3    73  LEU73       0.1561
      9  C          6.0380   19.1630  -21.0220 C.2    73  LEU73       0.2260
     10  O          6.3730   18.9940  -22.1960 O.2    73  LEU73      -0.2867
     11  CB         7.1380   17.7080  -19.2950 C.3    73  LEU73       0.0270
     12  CG         8.1470   17.5480  -18.1540 C.3    73  LEU73       0.0019
     13  CD1        8.0580   16.1400  -17.5890 C.3    73  LEU73       0.0001
     14  CD2        9.5500   17.8360  -18.6610 C.3    73  LEU73       0.0001
     15  N          6.2920    8.5760  -15.9110 N.3   149  VAL149     -0.1245
     16  CA         6.2950    9.5410  -16.9910 C.3   149  VAL149      0.1561
     17  C          7.4060    9.2210  -17.9800 C.2   149  VAL149      0.2260
     18  O          8.5460    8.9710  -17.5850 O.2   149  VAL149     -0.2867
     19  CB         6.4890   10.9770  -16.4660 C.3   149  VAL149      0.0252
     20  CG1        6.5960   11.9490  -17.6390 C.3   149  VAL149      0.0019
     21  CG2        5.3220   11.3560  -15.5670 C.3   149  VAL149      0.0019
     22  N          9.3420   10.6510  -21.4570 N.3   151  THR151     -0.1203
     23  CA         9.5440   11.8550  -22.2520 C.3   151  THR151      0.1994
     24  C         10.3910   11.5250  -23.4720 C.2   151  THR151      0.2618
     25  O         10.8960   10.4130  -23.6030 O.2   151  THR151     -0.2717
     26  CB        10.2680   12.9460  -21.4480 C.3   151  THR151      0.1784
     27  OG1       11.5800   12.4860  -21.0990 O.3   151  THR151     -0.2211
     28  CG2        9.5000   13.2730  -20.1770 C.3   151  THR151      0.0376
     29  N         10.5320   12.4820  -24.3790 N.am  152  ARG152     -0.1965
     30  CA        11.3590   12.2450  -25.5540 C.3   152  ARG152      0.1729
     31  C         12.7970   12.6260  -25.2180 C.2   152  ARG152      0.2616
     32  O         13.0370   13.6560  -24.5870 O.2   152  ARG152     -0.2715
     33  CB        10.8610   13.0680  -26.7440 C.3   152  ARG152      0.0348
     34  CG        10.8750   14.5670  -26.5290 C.3   152  ARG152      0.0492
     35  CD        10.4120   15.2870  -27.7870 C.3   152  ARG152      0.2205
     36  NE        10.3460   16.7340  -27.6070 N.pl3 152  ARG152     -0.0865
     37  CZ         9.8850   17.5780  -28.5240 C.cat 152  ARG152      0.5346
     38  NH1        9.4480   17.1180  -29.6890 N.pl3 152  ARG152      0.1354
     39  NH2        9.8580   18.8810  -28.2780 N.pl3 152  ARG152      0.1354
     40  N         13.7510   11.7900  -25.6200 N.am  153  GLU153     -0.1963
     41  CA        15.1590   12.0750  -25.3530 C.3   153  GLU153      0.1733
     42  C         15.6410   13.2250  -26.2300 C.2   153  GLU153      0.2616
     43  O         15.5630   13.1510  -27.4540 O.2   153  GLU153     -0.2715
     44  CB        16.0300   10.8470  -25.6270 C.3   153  GLU153      0.0429
     45  CG        15.8400    9.6970  -24.6560 C.3   153  GLU153      0.1163
     46  CD        16.9580    8.6740  -24.7490 C.2   153  GLU153      0.3649
     47  OE1       16.8800    7.6370  -24.0570 O.co2 153  GLU153     -0.2457
     48  OE2       17.9200    8.9110  -25.5120 O.co2 153  GLU153     -0.2457
     49  N         16.1450   14.2810  -25.6010 N.am  154  ALA154     -0.1977
     50  CA        16.6350   15.4440  -26.3340 C.3   154  ALA154      0.1597
     51  C         18.1030   15.2830  -26.7170 C.2   154  ALA154      0.2287
     52  O         18.7050   14.2360  -26.4770 O.2   154  ALA154     -0.2864
     53  CB        16.4480   16.7030  -25.4970 C.3   154  ALA154      0.0319
     54  N         21.2400   17.0750  -25.7500 N.3   156  THR156     -0.1203
     55  CA        22.0740   16.9400  -24.5620 C.3   156  THR156      0.1994
     56  C         21.2520   16.2480  -23.4800 C.2   156  THR156      0.2618
     57  O         20.6170   16.9040  -22.6550 O.2   156  THR156     -0.2717
     58  CB        22.5280   18.3180  -24.0360 C.3   156  THR156      0.1784
     59  OG1       23.1780   19.0440  -25.0860 O.3   156  THR156     -0.2211
     60  CG2       23.4940   18.1510  -22.8720 C.3   156  THR156      0.0376
     61  N         21.2660   14.9200  -23.4910 N.am  157  ARG157     -0.1965
     62  CA        20.5060   14.1440  -22.5190 C.3   157  ARG157      0.1729
     63  C         21.0860   14.2740  -21.1120 C.2   157  ARG157      0.2616
     64  O         22.3010   14.1910  -20.9160 O.2   157  ARG157     -0.2715
     65  CB        20.4690   12.6710  -22.9370 C.3   157  ARG157      0.0348
     66  CG        19.4120   11.8470  -22.2170 C.3   157  ARG157      0.0492
     67  CD        19.5370   10.3670  -22.5450 C.3   157  ARG157      0.2205
     68  NE        18.5590    9.5640  -21.8150 N.pl3 157  ARG157     -0.0865
     69  CZ        18.5590    8.2350  -21.7790 C.cat 157  ARG157      0.5346
     70  NH1       19.4910    7.5510  -22.4300 N.pl3 157  ARG157      0.1354
     71  NH2       17.6280    7.5890  -21.0910 N.pl3 157  ARG157      0.1354
     72  N         20.2020   14.4830  -20.1390 N.am  158  ASN158     -0.1972
     73  CA        20.5860   14.6290  -18.7370 C.3   158  ASN158      0.1688
     74  C         20.8510   13.2430  -18.1500 C.2   158  ASN158      0.2292
     75  O         19.9440   12.4140  -18.0730 O.2   158  ASN158     -0.2864
     76  CB        19.4560   15.3070  -17.9580 C.3   158  ASN158      0.1181
     77  CG        19.8880   15.7600  -16.5780 C.2   158  ASN158      0.2629
     78  OD1       20.6320   15.0660  -15.8910 O.2   158  ASN158     -0.2716
     79  ND2       19.4120   16.9280  -16.1630 N.am  158  ASN158     -0.0877
     80  N         16.3970   13.4030  -10.7370 N.3   163  GLN163     -0.1245
     81  CA        16.0180   14.6610  -11.3570 C.3   163  GLN163      0.1566
     82  C         14.8730   15.3340  -10.6230 C.2   163  GLN163      0.2260
     83  O         13.7850   14.7770  -10.4780 O.2   163  GLN163     -0.2867
     84  CB        15.6980   14.4240  -12.8380 C.3   163  GLN163      0.0367
     85  CG        16.9750   14.1540  -13.6400 C.3   163  GLN163      0.0905
     86  CD        16.7440   13.8950  -15.1160 C.2   163  GLN163      0.2608
     87  OE1       15.8290   14.4480  -15.7220 O.2   163  GLN163     -0.2717
     88  NE2       17.6010   13.0660  -15.7090 N.am  163  GLN163     -0.0878
     89  N         12.1670   18.4390  -10.0750 N.3   165  ILE165     -0.1245
     90  CA        11.3490   19.4040  -10.7960 C.3   165  ILE165      0.1561
     91  C         10.3910   19.9860   -9.7690 C.2   165  ILE165      0.2260
     92  O          9.7420   19.2420   -9.0410 O.2   165  ILE165     -0.2867
     93  CB        10.5230   18.7310  -11.9240 C.3   165  ILE165      0.0252
     94  CG1       11.4610   18.1480  -12.9870 C.3   165  ILE165      0.0019
     95  CG2        9.5830   19.7470  -12.5580 C.3   165  ILE165      0.0019
     96  CD1       10.7480   17.4230  -14.1160 C.3   165  ILE165      0.0001
     97  N         12.4940   12.9500   -8.7330 N.3   170  TRP170     -0.1241
     98  CA        12.0870   11.8360   -9.5850 C.3   170  TRP170      0.1605
     99  C         13.2770   10.9180   -9.8250 C.2   170  TRP170      0.2264
    100  O         14.4210   11.3720   -9.8770 O.2   170  TRP170     -0.2867
    101  CB        11.5920   12.3200  -10.9510 C.3   170  TRP170      0.0550
    102  CG        10.3160   13.0820  -10.9190 C.ar  170  TRP170      0.0003
    103  CD1       10.1240   14.3480  -10.4470 C.ar  170  TRP170      0.0946
    104  CD2        9.0430   12.6270  -11.3890 C.ar  170  TRP170      0.0152
    105  NE1        8.8060   14.7120  -10.5970 N.ar  170  TRP170     -0.2442
    106  CE2        8.1210   13.6740  -11.1730 C.ar  170  TRP170      0.0810
    107  CE3        8.5920   11.4340  -11.9750 C.ar  170  TRP170      0.0012
    108  CZ2        6.7700   13.5690  -11.5220 C.ar  170  TRP170      0.0191
    109  CZ3        7.2470   11.3250  -12.3230 C.ar  170  TRP170      0.0001
    110  CH2        6.3520   12.3910  -12.0930 C.ar  170  TRP170      0.0015
@<TRIPOS>BOND
     1    38    37    1
     2    37    39    1
     3    37    36    2
     4    35    36    1
     5    35    34    1
     6    43    42    2
     7    33    34    1
     8    33    30    1
     9    51    52    2
    10    51    50    1
    11    50    49    1
    12    50    53    1
    13    42    49   am
    14    42    41    1
    15    54    55    1
    16    44    41    1
    17    44    45    1
    18    40    41    1
    19    40    31   am
    20    30    31    1
    21    30    29    1
    22    48    46   ar
    23    31    32    2
    24    59    58    1
    25    46    45    1
    26    46    47   ar
    27    55    58    1
    28    55    56    1
    29    29    24   am
    30    58    60    1
    31    25    24    2
    32    61    56   am
    33    61    62    1
    34    56    57    2
    35    24    23    1
    36    65    62    1
    37    65    66    1
    38    67    66    1
    39    67    68    1
    40    62    63    1
    41    70    69    1
    42    23    22    1
    43    23    26    1
    44    10     9    2
    45    68    69    2
    46    69    71    1
    47    26    27    1
    48    26    28    1
    49    63    64    2
    50    63    72   am
    51     9     8    1
    52    72    73    1
    53     8    11    1
    54     8     7    1
    55    11    12    1
    56    73    74    1
    57    73    76    1
    58    14    12    1
    59    12    13    1
    60    74    75    2
    61    17    18    2
    62    17    16    1
    63    76    77    1
    64    20    19    1
    65    16    19    1
    66    16    15    1
    67    77    79   am
    68    77    78    2
    69    19    21    1
    70    87    86    2
    71    88    86   am
    72    86    85    1
    73     4     3    2
    74     3     2    1
    75    96    94    1
    76    85    84    1
    77    94    93    1
    78    84    81    1
    79     2     5    1
    80     2     1    1
    81    95    93    1
    82   109   110   ar
    83   109   107   ar
    84   110   108   ar
    85     5     6    1
    86   107   104   ar
    87    93    90    1
    88   108   106   ar
    89   104   106   ar
    90   104   102   ar
    91    81    80    1
    92    81    82    1
    93   106   105   ar
    94   101   102    1
    95   101    98    1
    96   102   103   ar
    97    90    89    1
    98    90    91    1
    99    82    83    2
   100   105   103   ar
   101   100    99    2
   102    99    98    1
   103    91    92    2
   104    98    97    1
