@<TRIPOS>MOLECULE
tmp/6ekkC00.pdb
 111 105 0 0 0
SMALL
GASTEIGER

@<TRIPOS>ATOM
      1  N         -8.2380    9.0680   -8.1150 N.3    15  SER15      -0.1202
      2  CA        -7.5790    8.5550   -9.3080 C.3    15  SER15       0.2020
      3  C         -8.1050    9.2970  -10.5280 C.2    15  SER15       0.2619
      4  O         -9.3120    9.5070  -10.6680 O.2    15  SER15      -0.2717
      5  CB        -7.8110    7.0500   -9.4610 C.3    15  SER15       0.2103
      6  OG        -7.3100    6.3520   -8.3280 O.3    15  SER15      -0.2182
      7  N         -7.1930    9.7140  -11.3970 N.am   16  GLY16      -0.1942
      8  CA        -7.5790   10.3580  -12.6400 C.3    16  GLY16       0.2014
      9  C         -7.6050   11.8730  -12.6290 C.2    16  GLY16       0.2639
     10  O         -7.8690   12.4750  -13.6710 O.2    16  GLY16      -0.2714
     11  N         -7.3430   12.5010  -11.4770 N.am   17  VAL17      -0.1963
     12  CA        -7.3250   13.9680  -11.4290 C.3    17  VAL17       0.1727
     13  C         -6.0240   14.5510  -12.0030 C.2    17  VAL17       0.2617
     14  O         -5.9380   15.7490  -12.2490 O.2    17  VAL17      -0.2715
     15  CB        -7.5160   14.5070   -9.9840 C.3    17  VAL17       0.0290
     16  CG1       -8.8730   14.0770   -9.4190 C.3    17  VAL17       0.0023
     17  CG2       -6.3630   14.0750   -9.0820 C.3    17  VAL17       0.0023
     18  N         -5.0060   13.7100  -12.1730 N.am   18  GLY18      -0.1940
     19  CA        -3.7640   14.1250  -12.8040 C.3    18  GLY18       0.2014
     20  C         -2.6030   14.2400  -11.8380 C.2    18  GLY18       0.2639
     21  O         -1.6910   15.0260  -12.0580 O.2    18  GLY18      -0.2714
     22  N         -2.6390   13.4530  -10.7610 N.am   19  LYS19      -0.1963
     23  CA        -1.5720   13.4790   -9.7640 C.3    19  LYS19       0.1728
     24  C         -0.2340   13.0110  -10.3470 C.2    19  LYS19       0.2617
     25  O          0.7880   13.6510  -10.1240 O.2    19  LYS19      -0.2715
     26  CB        -1.9300   12.6130   -8.5440 C.3    19  LYS19       0.0311
     27  CG        -3.0590   13.1430   -7.6640 C.3    19  LYS19       0.0038
     28  CD        -3.3390   12.1890   -6.4750 C.3    19  LYS19       0.0206
     29  CE        -3.8360   10.7950   -6.9340 C.3    19  LYS19       0.1093
     30  NZ        -3.9580    9.8850   -5.7380 N.3    19  LYS19      -0.1314
     31  N         -0.2300   11.9020  -11.0780 N.am   20  SER20      -0.1936
     32  CA         1.0210   11.4150  -11.6510 C.3    20  SER20       0.2055
     33  C          1.5560   12.4110  -12.6800 C.2    20  SER20       0.2643
     34  O          2.7670   12.5670  -12.8180 O.2    20  SER20      -0.2714
     35  CB         0.8430   10.0390  -12.2950 C.3    20  SER20       0.2130
     36  OG         0.2170   10.1500  -13.5570 O.3    20  SER20      -0.2179
     37  N          0.6580   13.0950  -13.3870 N.am   21  SER21      -0.1949
     38  CA         1.0930   14.0770  -14.4040 C.3    21  SER21       0.1924
     39  C          1.6930   15.2980  -13.7160 C.2    21  SER21       0.2314
     40  O          2.6690   15.8770  -14.1810 O.2    21  SER21      -0.2863
     41  CB        -0.0710   14.4910  -15.3030 C.3    21  SER21       0.2116
     42  OG        -0.6700   13.3590  -15.9230 O.3    21  SER21      -0.2180
     43  N          2.4170    3.2180   -8.7700 N.3    36  ILE36      -0.1245
     44  CA         1.0480    3.2030   -8.2640 C.3    36  ILE36       0.1561
     45  C          0.3320    1.8920   -8.6070 C.2    36  ILE36       0.2260
     46  O         -0.3210    1.2840   -7.7490 O.2    36  ILE36      -0.2867
     47  CB         0.2360    4.4080   -8.8170 C.3    36  ILE36       0.0252
     48  CG1        0.6080    5.6740   -8.0580 C.3    36  ILE36       0.0019
     49  CG2       -1.2740    4.1820   -8.6470 C.3    36  ILE36       0.0019
     50  CD1        0.1030    5.6970   -6.6010 C.3    36  ILE36       0.0001
     51  N          2.4780    9.3820   -3.2620 N.3    61  ASP61      -0.1239
     52  CA         1.0960    9.1800   -3.6850 C.3    61  ASP61       0.1674
     53  C          0.7130    7.7260   -3.3790 C.2    61  ASP61       0.2266
     54  O          1.5740    6.8720   -3.3430 O.2    61  ASP61      -0.2867
     55  CB         0.9720    9.4600   -5.1820 C.3    61  ASP61       0.1410
     56  CG        -0.4620    9.6190   -5.6370 C.2    61  ASP61       0.3668
     57  OD1       -1.3770    9.5660   -4.7900 O.co2  61  ASP61      -0.2456
     58  OD2       -0.6750    9.8340   -6.8560 O.co2  61  ASP61      -0.2456
     59  N         -6.8420   20.7860  -10.9190 N.3   118  ASN118     -0.1225
     60  CA        -6.0780   20.4540  -12.1150 C.3   118  ASN118      0.1785
     61  C         -6.9940   20.2860  -13.3180 C.2   118  ASN118      0.2597
     62  O         -8.2150   20.1980  -13.1650 O.2   118  ASN118     -0.2718
     63  CB        -5.2370   19.1830  -11.8920 C.3   118  ASN118      0.1169
     64  CG        -4.2490   18.9220  -13.0370 C.2   118  ASN118      0.2627
     65  OD1       -3.5550   19.8370  -13.5030 O.2   118  ASN118     -0.2716
     66  ND2       -4.1920   17.6750  -13.4990 N.am  118  ASN118     -0.0877
     67  N         -6.3840   20.2460  -14.5040 N.am  119  LYS119     -0.1980
     68  CA        -7.0750   20.0780  -15.7870 C.3   119  LYS119      0.1596
     69  C         -7.8640   21.3350  -16.1420 C.2   119  LYS119      0.2287
     70  O         -8.9170   21.2670  -16.7870 O.2   119  LYS119     -0.2864
     71  CB        -7.9970   18.8550  -15.7750 C.3   119  LYS119      0.0298
     72  CG        -7.3220   17.5550  -15.3410 C.3   119  LYS119      0.0038
     73  CD        -8.0550   16.3410  -15.9080 C.3   119  LYS119      0.0206
     74  CE        -7.4410   15.0270  -15.4160 C.3   119  LYS119      0.1093
     75  NZ        -8.1950   13.8440  -15.9470 N.3   119  LYS119     -0.1314
     76  N         -7.9510   23.5070  -18.4440 N.3   121  ASP121     -0.1225
     77  CA        -7.5090   23.7910  -19.8060 C.3   121  ASP121      0.1805
     78  C         -8.5960   23.4960  -20.8290 C.2   121  ASP121      0.2597
     79  O         -8.3090   23.2520  -22.0060 O.2   121  ASP121     -0.2718
     80  CB        -6.2490   22.9820  -20.1340 C.3   121  ASP121      0.1424
     81  CG        -6.3870   21.5110  -19.7640 C.2   121  ASP121      0.3668
     82  OD1       -7.4210   20.9050  -20.1110 O.co2 121  ASP121     -0.2456
     83  OD2       -5.4720   20.9600  -19.1120 O.co2 121  ASP121     -0.2456
     84  N         -9.8430   23.5040  -20.3810 N.am  122  ASP122     -0.1974
     85  CA       -10.9670   23.3000  -21.2820 C.3   122  ASP122      0.1709
     86  C        -12.2610   23.8260  -20.6700 C.2   122  ASP122      0.2293
     87  O        -12.9570   23.0980  -19.9600 O.2   122  ASP122     -0.2864
     88  CB       -11.1150   21.8250  -21.6360 C.3   122  ASP122      0.1436
     89  CG       -12.2280   21.5800  -22.6260 C.2   122  ASP122      0.3671
     90  OD1      -12.4710   22.4680  -23.4700 O.co2 122  ASP122     -0.2456
     91  OD2      -12.8600   20.5060  -22.5610 O.co2 122  ASP122     -0.2456
     92  N         -2.8480   23.3000  -15.0800 N.3   148  SER148     -0.1202
     93  CA        -2.9350   22.3120  -16.1390 C.3   148  SER148      0.2020
     94  C         -1.5950   21.6030  -16.2190 C.2   148  SER148      0.2619
     95  O         -0.6200   22.1650  -16.7070 O.2   148  SER148     -0.2717
     96  CB        -3.2910   22.9500  -17.4780 C.3   148  SER148      0.2103
     97  OG        -3.1590   22.0000  -18.5180 O.3   148  SER148     -0.2182
     98  N         -1.5390   20.3780  -15.7090 N.am  149  ALA149     -0.1965
     99  CA        -0.3340   19.5730  -15.8310 C.3   149  ALA149      0.1728
    100  C         -0.0820   19.3190  -17.3180 C.2   149  ALA149      0.2616
    101  O          1.0600   19.2660  -17.7880 O.2   149  ALA149     -0.2715
    102  CB        -0.4830   18.2470  -15.0530 C.3   149  ALA149      0.0334
    103  N         -1.1730   19.1860  -18.0540 N.am  150  LYS150     -0.1977
    104  CA        -1.1090   18.9050  -19.4830 C.3   150  LYS150      0.1596
    105  C         -0.4130   20.0390  -20.2570 C.2   150  LYS150      0.2287
    106  O          0.4760   19.7830  -21.0680 O.2   150  LYS150     -0.2864
    107  CB        -2.5130   18.6790  -20.0190 C.3   150  LYS150      0.0298
    108  CG        -2.5920   18.4740  -21.5390 C.3   150  LYS150      0.0038
    109  CD        -4.0500   18.3630  -21.9730 C.3   150  LYS150      0.0206
    110  CE        -4.1880   18.1740  -23.4780 C.3   150  LYS150      0.1093
    111  NZ        -5.6240   18.1400  -23.8960 N.3   150  LYS150     -0.1314
@<TRIPOS>BOND
     1   111   110    1
     2   110   109    1
     3    90    89   ar
     4    89    91   ar
     5    89    88    1
     6    79    78    2
     7   109   108    1
     8    88    85    1
     9   108   107    1
    10    85    86    1
    11    85    84    1
    12   106   105    2
    13    78    84   am
    14    78    77    1
    15    86    87    2
    16   105   104    1
    17    80    77    1
    18    80    81    1
    19    82    81   ar
    20   107   104    1
    21    77    76    1
    22    81    83   ar
    23   104   103    1
    24    97    96    1
    25   103   100   am
    26   101   100    2
    27    96    93    1
    28   100    99    1
    29    70    69    2
    30    95    94    2
    31    94    93    1
    32    94    98   am
    33    69    68    1
    34    93    92    1
    35    75    74    1
    36    42    41    1
    37    73    74    1
    38    73    72    1
    39    99    98    1
    40    99   102    1
    41    68    71    1
    42    68    67    1
    43    71    72    1
    44    41    38    1
    45    67    61   am
    46    38    39    1
    47    38    37    1
    48    40    39    2
    49    10     9    2
    50    36    35    1
    51    65    64    2
    52    66    64   am
    53    37    33   am
    54    61    62    2
    55    61    60    1
    56    64    63    1
    57    34    33    2
    58    19    18    1
    59    19    20    1
    60    33    32    1
    61     8     9    1
    62     8     7    1
    63     9    11   am
    64    35    32    1
    65    14    13    2
    66    18    13   am
    67    60    63    1
    68    60    59    1
    69    21    20    2
    70    13    12    1
    71    20    22   am
    72    32    31    1
    73    11    12    1
    74    12    15    1
    75     7     3   am
    76    31    24   am
    77    22    23    1
    78     4     3    2
    79     3     2    1
    80    24    25    2
    81    24    23    1
    82    15    16    1
    83    15    17    1
    84    23    26    1
    85     5     2    1
    86     5     6    1
    87     2     1    1
    88    47    49    1
    89    47    44    1
    90    47    48    1
    91    43    44    1
    92    45    44    1
    93    45    46    2
    94    26    27    1
    95    48    50    1
    96    27    28    1
    97    29    28    1
    98    29    30    1
    99    58    56   ar
   100    56    55    1
   101    56    57   ar
   102    55    52    1
   103    52    53    1
   104    52    51    1
   105    53    54    2
