@<TRIPOS>MOLECULE
tmp/6eksA00.pdb
 185 175 0 0 0
SMALL
GASTEIGER

@<TRIPOS>ATOM
      1  N        -12.7580   16.1690   -7.3780 N.3   197  ARG197     -0.1231
      2  CA       -13.0480   17.5450   -6.9740 C.3   197  ARG197      0.1694
      3  C        -11.7880   18.2450   -6.4390 C.2   197  ARG197      0.2591
      4  O        -10.7880   17.5930   -6.1730 O.2   197  ARG197     -0.2718
      5  CB       -14.1370   17.5850   -5.8630 C.3   197  ARG197      0.0321
      6  CG       -15.6190   17.5490   -6.3510 C.3   197  ARG197      0.0489
      7  CD       -16.5200   18.3070   -5.3640 C.3   197  ARG197      0.2205
      8  NE       -16.3060   19.7550   -5.4120 N.pl3 197  ARG197     -0.0865
      9  CZ       -16.6600   20.6070   -4.4470 C.cat 197  ARG197      0.5346
     10  NH1      -17.2500   20.1710   -3.3370 N.pl3 197  ARG197      0.1354
     11  NH2      -16.4230   21.9040   -4.5840 N.pl3 197  ARG197      0.1354
     12  N        -11.8880   19.5590   -6.2540 N.am  198  ILE198     -0.1980
     13  CA       -10.9640   20.3950   -5.4790 C.3   198  ILE198      0.1595
     14  C         -9.6260   20.6220   -6.2080 C.2   198  ILE198      0.2287
     15  O         -8.5660   20.1230   -5.7940 O.2   198  ILE198     -0.2864
     16  CB       -10.6690   19.8140   -4.0650 C.3   198  ILE198      0.0276
     17  CG1      -11.9420   19.2390   -3.4220 C.3   198  ILE198      0.0022
     18  CG2      -10.1080   20.9160   -3.1600 C.3   198  ILE198      0.0022
     19  CD1      -13.1440   20.2080   -3.4800 C.3   198  ILE198      0.0001
     20  N         -8.5960   15.9600   -5.9650 N.3   216  GLU216     -0.1245
     21  CA        -8.8650   14.8010   -5.1360 C.3   216  GLU216      0.1567
     22  C         -9.5240   13.7190   -5.9900 C.2   216  GLU216      0.2260
     23  O        -10.5540   13.9660   -6.6260 O.2   216  GLU216     -0.2867
     24  CB        -9.7780   15.1740   -3.9420 C.3   216  GLU216      0.0388
     25  CG        -9.1660   16.2160   -3.0140 C.3   216  GLU216      0.1160
     26  CD       -10.1360   16.6780   -1.9340 C.2   216  GLU216      0.3649
     27  OE1      -11.1820   16.0290   -1.7860 O.co2 216  GLU216     -0.2457
     28  OE2       -9.8390   17.6700   -1.2350 O.co2 216  GLU216     -0.2457
     29  N        -11.8370   10.7740   -5.8350 N.3   218  ARG218     -0.1245
     30  CA       -12.8360   10.4100   -4.8190 C.3   218  ARG218      0.1563
     31  C        -13.5930    9.1590   -5.2170 C.2   218  ARG218      0.2260
     32  O        -14.6280    9.2390   -5.8940 O.2   218  ARG218     -0.2867
     33  CB       -13.8060   11.5760   -4.5850 C.3   218  ARG218      0.0307
     34  CG       -13.1390   12.8130   -3.9540 C.3   218  ARG218      0.0489
     35  CD       -14.0110   14.0630   -4.0570 C.3   218  ARG218      0.2205
     36  NE       -13.6060   15.0720   -3.0800 N.pl3 218  ARG218     -0.0865
     37  CZ       -14.4470   15.9220   -2.4840 C.cat 218  ARG218      0.5346
     38  NH1      -15.7460   15.9100   -2.8010 N.pl3 218  ARG218      0.1354
     39  NH2      -13.9850   16.8030   -1.5780 N.pl3 218  ARG218      0.1354
     40  N        -16.8650   14.4340    0.3110 N.3   223  ASP223     -0.1225
     41  CA       -15.7980   14.9500    1.1580 C.3   223  ASP223      0.1790
     42  C        -15.0520   13.8640    1.9190 C.2   223  ASP223      0.2439
     43  O        -15.5790   12.7740    2.1430 O.2   223  ASP223     -0.2733
     44  CB       -16.3710   15.9740    2.1410 C.3   223  ASP223      0.1423
     45  CG       -16.6420   17.3070    1.4770 C.2   223  ASP223      0.3668
     46  OD1      -15.9550   17.6200    0.4760 O.co2 223  ASP223     -0.2456
     47  OD2      -17.5250   18.0430    1.9410 O.co2 223  ASP223     -0.2456
     48  N        -13.7990   14.1550    2.3100 N.am  224  PRO224     -0.2729
     49  CA       -13.0830   13.1740    3.1330 C.3   224  PRO224      0.1401
     50  C        -13.8240   12.8820    4.4470 C.2   224  PRO224      0.2269
     51  O        -14.5750   13.7270    4.9490 O.2   224  PRO224     -0.2865
     52  CB       -11.7320   13.8450    3.4020 C.3   224  PRO224      0.0296
     53  CG       -11.9900   15.3360    3.2270 C.3   224  PRO224      0.0237
     54  CD       -13.0110   15.3780    2.0770 C.3   224  PRO224      0.0939
     55  N         -7.3260   18.1530   -0.3850 N.3   265  ASP265     -0.1239
     56  CA        -6.8570   19.5400   -0.4480 C.3   265  ASP265      0.1674
     57  C         -5.4060   19.6690   -0.9220 C.2   265  ASP265      0.2266
     58  O         -4.5170   20.0880   -0.1710 O.2   265  ASP265     -0.2867
     59  CB        -7.0220   20.2070    0.9260 C.3   265  ASP265      0.1410
     60  CG        -8.4920   20.4030    1.3150 C.2   265  ASP265      0.3668
     61  OD1       -9.0760   21.4540    0.9600 O.co2 265  ASP265     -0.2456
     62  OD2       -9.0600   19.5080    1.9770 O.co2 265  ASP265     -0.2456
     63  N         -6.4400   12.0550    6.3640 N.3   284  TRP284     -0.1241
     64  CA        -7.5200   11.8000    7.3310 C.3   284  TRP284      0.1605
     65  C         -7.7190   10.3030    7.4760 C.2   284  TRP284      0.2264
     66  O         -7.5390    9.5740    6.4960 O.2   284  TRP284     -0.2867
     67  CB        -8.8520   12.4170    6.8660 C.3   284  TRP284      0.0550
     68  CG        -8.7630   13.8290    6.3830 C.ar  284  TRP284      0.0003
     69  CD1       -8.5540   14.2430    5.0990 C.ar  284  TRP284      0.0946
     70  CD2       -8.9080   15.0130    7.1720 C.ar  284  TRP284      0.0152
     71  NE1       -8.5290   15.6110    5.0480 N.ar  284  TRP284     -0.2442
     72  CE2       -8.7540   16.1080    6.3080 C.ar  284  TRP284      0.0810
     73  CE3       -9.1250   15.2510    8.5440 C.ar  284  TRP284      0.0012
     74  CZ2       -8.8340   17.4320    6.7570 C.ar  284  TRP284      0.0191
     75  CZ3       -9.2170   16.5620    8.9850 C.ar  284  TRP284      0.0001
     76  CH2       -9.0480   17.6340    8.1120 C.ar  284  TRP284      0.0015
     77  N        -12.9150   16.6990    8.6350 N.3   290  GLN290     -0.1231
     78  CA       -13.2380   18.0430    9.0950 C.3   290  GLN290      0.1698
     79  C        -14.7370   18.3020    9.3080 C.2   290  GLN290      0.2592
     80  O        -15.1380   18.9480   10.2970 O.2   290  GLN290     -0.2718
     81  CB       -12.6930   19.0330    8.1020 C.3   290  GLN290      0.0381
     82  CG       -12.1250   20.2630    8.7040 C.3   290  GLN290      0.0905
     83  CD       -11.4350   21.0610    7.6370 C.2   290  GLN290      0.2608
     84  OE1      -10.2040   21.0750    7.5440 O.2   290  GLN290     -0.2717
     85  NE2      -12.2340   21.6920    6.7820 N.am  290  GLN290     -0.0878
     86  N        -15.5600   17.8170    8.3750 N.am  291  ASN291     -0.1974
     87  CA       -17.0150   17.9620    8.4830 C.3   291  ASN291      0.1688
     88  C        -17.5530   17.4330    9.8220 C.2   291  ASN291      0.2292
     89  O        -17.1610   16.3640   10.2810 O.2   291  ASN291     -0.2864
     90  CB       -17.7020   17.2360    7.3290 C.3   291  ASN291      0.1181
     91  CG       -17.4630   17.9140    5.9720 C.2   291  ASN291      0.2629
     92  OD1      -17.0210   19.0700    5.8960 O.2   291  ASN291     -0.2716
     93  ND2      -17.7600   17.1890    4.8910 N.am  291  ASN291     -0.0877
     94  N         -4.9760   21.2760    7.7550 N.3   518  ASN518     -0.1240
     95  CA        -5.4120   21.0130    6.3680 C.3   518  ASN518      0.1653
     96  C         -4.8750   22.1120    5.4690 C.2   518  ASN518      0.2266
     97  O         -5.1550   23.2780    5.7180 O.2   518  ASN518     -0.2867
     98  CB        -6.9540   20.9410    6.3460 C.3   518  ASN518      0.1155
     99  CG        -7.5380   20.7360    4.9390 C.2   518  ASN518      0.2627
    100  OD1       -6.8060   20.6270    3.9550 O.2   518  ASN518     -0.2716
    101  ND2       -8.8730   20.6690    4.8600 N.am  518  ASN518     -0.0877
    102  N         -5.8490   25.4720    7.0410 N.3   546  ILE546     -0.1245
    103  CA        -7.0570   25.4780    7.8530 C.3   546  ILE546      0.1561
    104  C         -6.7550   24.6760    9.0920 C.2   546  ILE546      0.2260
    105  O         -6.3800   23.5010    9.0030 O.2   546  ILE546     -0.2867
    106  CB        -8.2570   24.8360    7.1380 C.3   546  ILE546      0.0252
    107  CG1       -8.5040   25.4840    5.7710 C.3   546  ILE546      0.0019
    108  CG2       -9.5120   24.9470    8.0180 C.3   546  ILE546      0.0019
    109  CD1       -9.5210   24.7490    4.9390 C.3   546  ILE546      0.0001
    110  N        -13.0950   26.3970   13.0400 N.3   553  LEU553     -0.1245
    111  CA       -12.0890   26.5210   11.9890 C.3   553  LEU553      0.1561
    112  C        -11.5080   27.9060   11.9570 C.2   553  LEU553      0.2260
    113  O        -12.2100   28.8900   12.2160 O.2   553  LEU553     -0.2867
    114  CB       -12.7010   26.2340   10.6160 C.3   553  LEU553      0.0270
    115  CG       -13.2840   24.8490   10.3970 C.3   553  LEU553      0.0019
    116  CD1      -14.0370   24.8480    9.0630 C.3   553  LEU553      0.0001
    117  CD2      -12.1800   23.8040   10.4070 C.3   553  LEU553      0.0001
    118  N        -11.8670   29.6800    6.4630 N.3   591  SER591     -0.1202
    119  CA       -11.5330   28.3210    6.1110 C.3   591  SER591      0.2020
    120  C        -10.6980   28.2930    4.8400 C.2   591  SER591      0.2618
    121  O         -9.4620   28.3460    4.8790 O.2   591  SER591     -0.2717
    122  CB       -12.8110   27.4840    5.9400 C.3   591  SER591      0.2103
    123  OG       -13.7300   28.0400    4.9920 O.3   591  SER591     -0.2182
    124  N        -11.3650   28.2300    3.6950 N.am  592  GLU592     -0.1979
    125  CA       -10.6240   28.0610    2.4500 C.3   592  GLU592      0.1602
    126  C        -10.0400   29.3800    1.9750 C.2   592  GLU592      0.2287
    127  O        -10.7630   30.3250    1.6770 O.2   592  GLU592     -0.2864
    128  CB       -11.5420   27.4430    1.3850 C.3   592  GLU592      0.0415
    129  CG       -11.9620   26.0260    1.7810 C.3   592  GLU592      0.1163
    130  CD       -12.9470   25.3860    0.8250 C.2   592  GLU592      0.3649
    131  OE1      -13.6040   26.1280    0.0710 O.co2 592  GLU592     -0.2457
    132  OE2      -13.0550   24.1350    0.8350 O.co2 592  GLU592     -0.2457
    133  N        -12.6540   32.3060    2.4870 N.3   608  ARG608     -0.1245
    134  CA       -14.0330   31.9170    2.5910 C.3   608  ARG608      0.1563
    135  C        -14.4010   31.9730    4.0770 C.2   608  ARG608      0.2260
    136  O        -13.6100   31.5190    4.9060 O.2   608  ARG608     -0.2867
    137  CB       -14.2060   30.5150    2.0540 C.3   608  ARG608      0.0307
    138  CG       -15.5250   29.8510    2.3940 C.3   608  ARG608      0.0489
    139  CD       -15.6060   28.5430    1.6260 C.3   608  ARG608      0.2205
    140  NE       -16.8180   27.8020    1.9440 N.pl3 608  ARG608     -0.0865
    141  CZ       -17.2040   26.7000    1.3140 C.cat 608  ARG608      0.5346
    142  NH1      -16.4810   26.2200    0.3060 N.pl3 608  ARG608      0.1354
    143  NH2      -18.3290   26.0850    1.6880 N.pl3 608  ARG608      0.1354
    144  N        -17.0280   30.5180    6.6970 N.3   610  ASP610     -0.1225
    145  CA       -18.0960   29.5210    6.7930 C.3   610  ASP610      0.1805
    146  C        -18.9830   29.6480    8.0280 C.2   610  ASP610      0.2597
    147  O        -18.6140   30.3000    9.0170 O.2   610  ASP610     -0.2718
    148  CB       -17.5030   28.1200    6.7100 C.3   610  ASP610      0.1424
    149  CG       -17.1740   27.7310    5.2540 C.2   610  ASP610      0.3668
    150  OD1      -18.0370   27.9410    4.3650 O.co2 610  ASP610     -0.2456
    151  OD2      -16.0580   27.2440    5.0030 O.co2 610  ASP610     -0.2456
    152  N        -20.1650   29.0460    7.9110 N.am  611  PHE611     -0.1976
    153  CA       -21.2400   29.1300    8.8960 C.3   611  PHE611      0.1639
    154  C        -21.5320   30.5800    9.2030 C.2   611  PHE611      0.2290
    155  O        -21.5950   31.3920    8.2920 O.2   611  PHE611     -0.2864
    156  CB       -20.8830   28.3290   10.1540 C.3   611  PHE611      0.0560
    157  CG       -20.3600   26.9560    9.8410 C.ar  611  PHE611     -0.0200
    158  CD1      -21.1810   26.0110    9.2290 C.ar  611  PHE611     -0.0042
    159  CD2      -19.0340   26.6320   10.0810 C.ar  611  PHE611     -0.0042
    160  CE1      -20.6970   24.7430    8.9090 C.ar  611  PHE611     -0.0003
    161  CE2      -18.5330   25.3750    9.7500 C.ar  611  PHE611     -0.0003
    162  CZ       -19.3710   24.4240    9.1660 C.ar  611  PHE611     -0.0000
    163  N        -23.3340   28.3650   -7.7720 N.3   685  ARG685     -0.1245
    164  CA       -22.0000   28.1150   -8.2840 C.3   685  ARG685      0.1563
    165  C        -22.0920   28.0140   -9.8230 C.2   685  ARG685      0.2260
    166  O        -22.0440   26.9260  -10.3970 O.2   685  ARG685     -0.2867
    167  CB       -21.4060   26.8640   -7.6500 C.3   685  ARG685      0.0307
    168  CG       -21.0320   27.0980   -6.1740 C.3   685  ARG685      0.0489
    169  CD       -20.5410   25.8430   -5.4910 C.3   685  ARG685      0.2205
    170  NE       -20.1950   26.1120   -4.0880 N.pl3 685  ARG685     -0.0865
    171  CZ       -19.5680   25.2530   -3.2970 C.cat 685  ARG685      0.5346
    172  NH1      -19.1920   24.0570   -3.7530 N.pl3 685  ARG685      0.1354
    173  NH2      -19.3110   25.5980   -2.0340 N.pl3 685  ARG685      0.1354
    174  N        -15.3660   25.4360   -7.5770 N.3   713  TYR713     -0.1241
    175  CA       -13.9710   25.7430   -7.1920 C.3   713  TYR713      0.1605
    176  C        -13.1320   26.0450   -8.4230 C.2   713  TYR713      0.2264
    177  O        -13.3630   25.5040   -9.4940 O.2   713  TYR713     -0.2867
    178  CB       -13.3220   24.5990   -6.4330 C.3   713  TYR713      0.0534
    179  CG       -13.7930   24.4380   -4.9980 C.ar  713  TYR713     -0.0201
    180  CD1      -15.0850   24.8040   -4.6210 C.ar  713  TYR713     -0.0009
    181  CD2      -12.9450   23.8960   -4.0340 C.ar  713  TYR713     -0.0009
    182  CE1      -15.5260   24.6350   -3.2940 C.ar  713  TYR713      0.0417
    183  CE2      -13.3510   23.7380   -2.7280 C.ar  713  TYR713      0.0417
    184  CZ       -14.6490   24.1010   -2.3690 C.ar  713  TYR713      0.1957
    185  OH       -15.0430   23.9320   -1.0820 O.3   713  TYR713     -0.2866
@<TRIPOS>BOND
     1   166   165    2
     2   165   164    1
     3   177   176    2
     4   176   175    1
     5   164   163    1
     6   164   167    1
     7   167   168    1
     8   174   175    1
     9     1     2    1
    10   175   178    1
    11     2     3    1
    12     2     5    1
    13    23    22    2
    14     3    12   am
    15     3     4    2
    16   178   179    1
    17     6     5    1
    18     6     7    1
    19    12    13    1
    20    14    15    2
    21    14    13    1
    22   168   169    1
    23    22    21    1
    24    20    21    1
    25    32    31    2
    26    29    30    1
    27   169   170    1
    28    13    16    1
    29     8     7    1
    30     8     9    2
    31    31    30    1
    32    21    24    1
    33   179   180   ar
    34   179   181   ar
    35    30    33    1
    36   180   182   ar
    37    33    34    1
    38    11     9    1
    39     9    10    1
    40   170   171    2
    41    16    17    1
    42    16    18    1
    43    35    34    1
    44    35    36    1
    45   181   183   ar
    46    24    25    1
    47   172   171    1
    48    19    17    1
    49   171   173    1
    50   182   184   ar
    51    36    37    2
    52    25    26    1
    53    38    37    1
    54   183   184   ar
    55    37    39    1
    56   184   185    1
    57    26    27   ar
    58    26    28   ar
    59    57    56    1
    60    57    58    2
    61    56    55    1
    62    56    59    1
    63   131   130   ar
    64   142   141    1
    65    40    41    1
    66    46    45   ar
    67   130   132   ar
    68   130   129    1
    69    59    60    1
    70    61    60   ar
    71    41    42    1
    72    41    44    1
    73   141   143    1
    74   141   140    2
    75    60    62   ar
    76   128   129    1
    77   128   125    1
    78    45    47   ar
    79    45    44    1
    80   139   140    1
    81   139   138    1
    82   127   126    2
    83    42    43    2
    84    42    48   am
    85   126   125    1
    86   137   138    1
    87   137   134    1
    88    54    48    1
    89    54    53    1
    90    48    49    1
    91   125   124    1
    92   133   134    1
    93   134   135    1
    94    49    52    1
    95    49    50    1
    96    53    52    1
    97   124   120   am
    98   100    99    2
    99   135   136    2
   100   150   149   ar
   101    50    51    2
   102   120   121    2
   103   120   119    1
   104   101    99   am
   105    93    91   am
   106   109   107    1
   107    99    98    1
   108   123   122    1
   109   151   149   ar
   110    71    69   ar
   111    71    72   ar
   112    69    68   ar
   113   149   148    1
   114    96    97    2
   115    96    95    1
   116   107   106    1
   117    92    91    2
   118   122   119    1
   119    91    90    1
   120   119   118    1
   121    72    74   ar
   122    72    70   ar
   123    98    95    1
   124    63    64    1
   125    95    94    1
   126    68    67    1
   127    68    70   ar
   128    66    65    2
   129   144   145    1
   130   148   145    1
   131    74    76   ar
   132    85    83   am
   133   145   146    1
   134    67    64    1
   135   102   103    1
   136   106   103    1
   137   106   108    1
   138    70    73   ar
   139    90    87    1
   140    64    65    1
   141    84    83    2
   142    83    82    1
   143   103   104    1
   144   152   146   am
   145   152   153    1
   146   146   147    2
   147    81    82    1
   148    81    78    1
   149    76    75   ar
   150   155   154    2
   151    86    87    1
   152    86    79   am
   153    87    88    1
   154    73    75   ar
   155    77    78    1
   156   153   154    1
   157   153   156    1
   158   160   162   ar
   159   160   158   ar
   160   105   104    2
   161   116   115    1
   162    78    79    1
   163   162   161   ar
   164   158   157   ar
   165    79    80    2
   166   161   159   ar
   167    88    89    2
   168   157   159   ar
   169   157   156    1
   170   115   117    1
   171   115   114    1
   172   114   111    1
   173   112   111    1
   174   112   113    2
   175   111   110    1
