@<TRIPOS>MOLECULE
tmp/6ekuA00.pdb
 190 180 0 0 0
SMALL
GASTEIGER

@<TRIPOS>ATOM
      1  N         -6.2490   10.0200    6.1730 N.3   200  ARG200     -0.1231
      2  CA        -6.7150   10.6720    7.4000 C.3   200  ARG200      0.1694
      3  C         -7.8150    9.8990    8.1300 C.2   200  ARG200      0.2591
      4  O         -8.3260    8.8930    7.6260 O.2   200  ARG200     -0.2718
      5  CB        -7.2480   12.0890    7.1050 C.3   200  ARG200      0.0321
      6  CG        -6.2030   13.1760    6.8530 C.3   200  ARG200      0.0489
      7  CD        -6.8090   14.5620    7.0830 C.3   200  ARG200      0.2205
      8  NE        -7.2030   14.7590    8.4820 N.pl3 200  ARG200     -0.0865
      9  CZ        -8.1270   15.6200    8.8980 C.cat 200  ARG200      0.5346
     10  NH1       -8.8000   16.3650    8.0240 N.pl3 200  ARG200      0.1354
     11  NH2       -8.3980   15.7190   10.1960 N.pl3 200  ARG200      0.1354
     12  N         -8.1630   10.4090    9.3210 N.am  201  ILE201     -0.1980
     13  CA        -9.3680   10.0400   10.0930 C.3   201  ILE201      0.1595
     14  C         -9.2500    8.6450   10.7310 C.2   201  ILE201      0.2287
     15  O         -9.9370    7.7020   10.3510 O.2   201  ILE201     -0.2864
     16  CB       -10.6600   10.1140    9.2200 C.3   201  ILE201      0.0276
     17  CG1      -10.6100   11.2950    8.2460 C.3   201  ILE201      0.0022
     18  CG2      -11.9100   10.2200   10.1280 C.3   201  ILE201      0.0022
     19  CD1      -10.5500   12.6560    8.8860 C.3   201  ILE201      0.0001
     20  N         -9.0010    6.6390    6.2850 N.3   219  GLU219     -0.1245
     21  CA        -9.4740    6.8450    4.9100 C.3   219  GLU219      0.1567
     22  C         -8.2720    6.9140    3.9890 C.2   219  GLU219      0.2260
     23  O         -7.4030    7.7590    4.1840 O.2   219  GLU219     -0.2867
     24  CB       -10.2840    8.1370    4.7770 C.3   219  GLU219      0.0388
     25  CG       -11.5010    8.2130    5.6790 C.3   219  GLU219      0.1160
     26  CD       -12.1750    9.5650    5.6180 C.2   219  GLU219      0.3649
     27  OE1      -11.7970   10.3890    4.7530 O.co2 219  GLU219     -0.2457
     28  OE2      -13.0860    9.8070    6.4380 O.co2 219  GLU219     -0.2457
     29  N         -6.9780    8.4050    0.9240 N.3   221  ARG221     -0.1245
     30  CA        -7.4310    9.5420    0.1460 C.3   221  ARG221      0.1563
     31  C         -6.5620    9.7930   -1.0760 C.2   221  ARG221      0.2260
     32  O         -5.4980   10.4130   -0.9810 O.2   221  ARG221     -0.2867
     33  CB        -7.4650   10.7850    1.0180 C.3   221  ARG221      0.0307
     34  CG        -8.3030   10.6550    2.2530 C.3   221  ARG221      0.0489
     35  CD        -8.0690   11.8750    3.0590 C.3   221  ARG221      0.2205
     36  NE        -9.2120   12.2340    3.8620 N.pl3 221  ARG221     -0.0865
     37  CZ        -9.4760   13.4830    4.2110 C.cat 221  ARG221      0.5346
     38  NH1       -8.6810   14.4650    3.7910 N.pl3 221  ARG221      0.1354
     39  NH2      -10.5330   13.7460    4.9660 N.pl3 221  ARG221      0.1354
     40  N        -11.1230   15.6410    1.3750 N.3   226  ASP226     -0.1225
     41  CA       -12.3520   15.1360    1.9880 C.3   226  ASP226      0.1790
     42  C        -13.2300   14.4480    0.9320 C.2   226  ASP226      0.2439
     43  O        -13.1030   14.7200   -0.2630 O.2   226  ASP226     -0.2733
     44  CB       -13.1260   16.2760    2.6690 C.3   226  ASP226      0.1423
     45  CG       -12.6110   16.5830    4.0710 C.2   226  ASP226      0.3668
     46  OD1      -11.8870   15.7370    4.6390 O.co2 226  ASP226     -0.2456
     47  OD2      -12.9320   17.6690    4.6050 O.co2 226  ASP226     -0.2456
     48  N        -14.1190   13.5420    1.3700 N.am  227  PRO227     -0.2729
     49  CA       -15.0290   12.9160    0.4060 C.3   227  PRO227      0.1401
     50  C        -15.8550   13.9550   -0.3510 C.2   227  PRO227      0.2269
     51  O        -16.1570   15.0170    0.2020 O.2   227  PRO227     -0.2865
     52  CB       -15.9320   12.0420    1.2950 C.3   227  PRO227      0.0296
     53  CG       -15.8440   12.6470    2.6400 C.3   227  PRO227      0.0237
     54  CD       -14.4200   13.1230    2.7520 C.3   227  PRO227      0.0939
     55  N        -15.0040    7.9790    7.2700 N.3   268  ASP268     -0.1239
     56  CA       -15.4060    7.8540    8.6790 C.3   268  ASP268      0.1674
     57  C        -15.5740    6.4090    9.1580 C.2   268  ASP268      0.2266
     58  O        -16.6890    5.9910    9.5190 O.2   268  ASP268     -0.2867
     59  CB       -16.7070    8.6320    8.9200 C.3   268  ASP268      0.1410
     60  CG       -16.5370   10.1420    8.7440 C.2   268  ASP268      0.3668
     61  OD1      -16.5860   10.6300    7.5950 O.co2 268  ASP268     -0.2456
     62  OD2      -16.3460   10.8520    9.7610 O.co2 268  ASP268     -0.2456
     63  N        -20.3480    7.9300   -0.1020 N.3   287  TRP287     -0.1241
     64  CA       -20.7490    9.1680   -0.7620 C.3   287  TRP287      0.1605
     65  C        -20.6140    9.0060   -2.2540 C.2   287  TRP287      0.2264
     66  O        -19.7080    8.3170   -2.7100 O.2   287  TRP287     -0.2867
     67  CB       -19.8770   10.3460   -0.3120 C.3   287  TRP287      0.0550
     68  CG       -19.7300   10.4660    1.1700 C.ar  287  TRP287      0.0003
     69  CD1      -18.7000    9.9890    1.9320 C.ar  287  TRP287      0.0946
     70  CD2      -20.6270   11.1270    2.0700 C.ar  287  TRP287      0.0152
     71  NE1      -18.9080   10.3060    3.2510 N.ar  287  TRP287     -0.2442
     72  CE2      -20.0800   11.0010    3.3660 C.ar  287  TRP287      0.0810
     73  CE3      -21.8430   11.8010    1.9130 C.ar  287  TRP287      0.0012
     74  CZ2      -20.7060   11.5310    4.5030 C.ar  287  TRP287      0.0191
     75  CZ3      -22.4650   12.3320    3.0410 C.ar  287  TRP287      0.0001
     76  CH2      -21.8980   12.1860    4.3250 C.ar  287  TRP287      0.0015
     77  N        -20.7820   15.3500   -0.9490 N.3   292  ALA292     -0.1231
     78  CA       -20.7570   14.7660    0.3770 C.3   292  ALA292      0.1694
     79  C        -21.2720   15.7470    1.4270 C.2   292  ALA292      0.2592
     80  O        -22.0360   16.6720    1.1220 O.2   292  ALA292     -0.2718
     81  CB       -19.3250   14.2850    0.7320 C.3   292  ALA292      0.0304
     82  N        -20.8350   15.5470    2.6630 N.am  293  GLN293     -0.1966
     83  CA       -21.4270   16.2370    3.8020 C.3   293  GLN293      0.1733
     84  C        -21.0680   17.7170    3.8140 C.2   293  GLN293      0.2616
     85  O        -21.9270   18.5680    4.0450 O.2   293  GLN293     -0.2715
     86  CB       -20.9700   15.5640    5.0950 C.3   293  GLN293      0.0408
     87  CG       -21.7810   15.8940    6.3180 C.3   293  GLN293      0.0908
     88  CD       -21.2100   15.1850    7.5260 C.2   293  GLN293      0.2608
     89  OE1      -21.5080   14.0080    7.7630 O.2   293  GLN293     -0.2717
     90  NE2      -20.3420   15.8780    8.2680 N.am  293  GLN293     -0.0878
     91  N        -19.7980   18.0220    3.5430 N.am  294  ASN294     -0.1972
     92  CA       -19.3410   19.4090    3.5100 C.3   294  ASN294      0.1688
     93  C        -20.1040   20.2440    2.4880 C.2   294  ASN294      0.2292
     94  O        -20.3470   19.8030    1.3610 O.2   294  ASN294     -0.2864
     95  CB       -17.8440   19.4740    3.2140 C.3   294  ASN294      0.1181
     96  CG       -17.0080   18.9720    4.3680 C.2   294  ASN294      0.2629
     97  OD1      -17.5110   18.8040    5.4840 O.2   294  ASN294     -0.2716
     98  ND2      -15.7180   18.7390    4.1150 N.am  294  ASN294     -0.0877
     99  N        -23.8600    9.2110    8.4820 N.3   521  ASN521     -0.1240
    100  CA       -22.4030    9.0870    8.4890 C.3   521  ASN521      0.1653
    101  C        -21.9850    8.5870    9.8720 C.2   521  ASN521      0.2266
    102  O        -22.3190    9.2150   10.8680 O.2   521  ASN521     -0.2867
    103  CB       -21.7790   10.4510    8.1460 C.3   521  ASN521      0.1155
    104  CG       -20.2480   10.4750    8.3000 C.2   521  ASN521      0.2627
    105  OD1      -19.6230    9.4480    8.5240 O.2   521  ASN521     -0.2716
    106  ND2      -19.6530   11.6540    8.1320 N.am  521  ASN521     -0.0877
    107  N        -23.6710   10.7800   12.5010 N.3   549  ILE549     -0.1245
    108  CA       -23.9430   12.1510   12.1170 C.3   549  ILE549      0.1561
    109  C        -25.0390   12.1230   11.0620 C.2   549  ILE549      0.2260
    110  O        -24.8880   11.4680   10.0240 O.2   549  ILE549     -0.2867
    111  CB       -22.7100   12.8540   11.5230 C.3   549  ILE549      0.0252
    112  CG1      -21.4950   12.7370   12.4590 C.3   549  ILE549      0.0019
    113  CG2      -23.0310   14.3150   11.2160 C.3   549  ILE549      0.0019
    114  CD1      -20.1870   13.2860   11.8270 C.3   549  ILE549      0.0001
    115  N        -26.5600   19.6030   10.7950 N.3   556  LEU556     -0.1245
    116  CA       -26.0310   18.3740   11.3600 C.3   556  LEU556      0.1561
    117  C        -26.5370   18.1380   12.7810 C.2   556  LEU556      0.2260
    118  O        -26.7900   19.0780   13.5280 O.2   556  LEU556     -0.2867
    119  CB       -24.4850   18.4060   11.3890 C.3   556  LEU556      0.0270
    120  CG       -23.7780   18.5720   10.0400 C.3   556  LEU556      0.0019
    121  CD1      -22.2720   18.8020   10.2800 C.3   556  LEU556      0.0001
    122  CD2      -23.9860   17.3520    9.1790 C.3   556  LEU556      0.0001
    123  N        -21.5670   17.1060   15.6970 N.3   594  SER594     -0.1202
    124  CA       -21.1460   16.2850   14.5680 C.3   594  SER594      0.2020
    125  C        -20.3130   15.0830   15.0020 C.2   594  SER594      0.2618
    126  O        -20.8500   14.0200   15.3220 O.2   594  SER594     -0.2717
    127  CB       -20.3810   17.1420   13.5530 C.3   594  SER594      0.2103
    128  OG       -19.2590   17.8030   14.1330 O.3   594  SER594     -0.2182
    129  N        -18.9960   15.2430   15.0130 N.am  595  GLU595     -0.1979
    130  CA       -18.1260   14.1210   15.3200 C.3   595  GLU595      0.1602
    131  C        -18.1970   13.7670   16.7990 C.2   595  GLU595      0.2287
    132  O        -17.8370   14.5660   17.6620 O.2   595  GLU595     -0.2864
    133  CB       -16.7030   14.4470   14.9110 C.3   595  GLU595      0.0415
    134  CG       -16.6050   14.7160   13.4180 C.3   595  GLU595      0.1163
    135  CD       -15.2250   15.1200   12.9910 C.2   595  GLU595      0.3649
    136  OE1      -14.4630   15.6290   13.8500 O.co2 595  GLU595     -0.2457
    137  OE2      -14.8920   14.9170   11.7930 O.co2 595  GLU595     -0.2457
    138  N        -18.2210   17.0560   19.0860 N.3   611  ARG611     -0.1245
    139  CA       -17.7510   18.2770   18.4510 C.3   611  ARG611      0.1563
    140  C        -18.9450   19.1470   18.0610 C.2   611  ARG611      0.2260
    141  O        -19.9230   18.6360   17.5150 O.2   611  ARG611     -0.2867
    142  CB       -16.9230   17.9130   17.2210 C.3   611  ARG611      0.0307
    143  CG       -16.5400   19.0630   16.3110 C.3   611  ARG611      0.0489
    144  CD       -15.7060   18.4960   15.1580 C.3   611  ARG611      0.2205
    145  NE       -15.3670   19.4990   14.1560 N.pl3 611  ARG611     -0.0865
    146  CZ       -14.4080   19.3450   13.2470 C.cat 611  ARG611      0.5346
    147  NH1      -13.6850   18.2270   13.2180 N.pl3 611  ARG611      0.1354
    148  NH2      -14.1800   20.3030   12.3620 N.pl3 611  ARG611      0.1354
    149  N        -20.0210   21.9930   15.6090 N.3   613  ASP613     -0.1225
    150  CA       -19.5220   22.6600   14.4050 C.3   613  ASP613      0.1805
    151  C        -20.2900   23.9470   14.0900 C.2   613  ASP613      0.2597
    152  O        -21.4370   24.1230   14.5190 O.2   613  ASP613     -0.2718
    153  CB       -19.5760   21.7040   13.2120 C.3   613  ASP613      0.1424
    154  CG       -18.3220   20.8460   13.0850 C.2   613  ASP613      0.3668
    155  OD1      -17.2090   21.3610   13.3350 O.co2 613  ASP613     -0.2456
    156  OD2      -18.4510   19.6600   12.7110 O.co2 613  ASP613     -0.2456
    157  N        -19.6360   24.8460   13.3550 N.am  614  PHE614     -0.1976
    158  CA       -20.2340   26.1200   12.9470 C.3   614  PHE614      0.1639
    159  C        -20.6770   26.9130   14.1820 C.2   614  PHE614      0.2290
    160  O        -19.9210   27.0330   15.1320 O.2   614  PHE614     -0.2864
    161  CB       -21.3960   25.8660   11.9680 C.3   614  PHE614      0.0560
    162  CG       -21.0610   24.8440   10.9110 C.ar  614  PHE614     -0.0200
    163  CD1      -20.1230   25.1290    9.9280 C.ar  614  PHE614     -0.0042
    164  CD2      -21.6380   23.5840   10.9340 C.ar  614  PHE614     -0.0042
    165  CE1      -19.7840   24.1800    8.9710 C.ar  614  PHE614     -0.0003
    166  CE2      -21.3160   22.6370    9.9840 C.ar  614  PHE614     -0.0003
    167  CZ       -20.3810   22.9300    9.0030 C.ar  614  PHE614     -0.0000
    168  N         -4.3160   22.4510   16.3160 N.3   688  ARG688     -0.1245
    169  CA        -4.1740   21.0040   16.3020 C.3   688  ARG688      0.1563
    170  C         -2.7090   20.6400   16.6160 C.2   688  ARG688      0.2260
    171  O         -1.9410   20.2060   15.7510 O.2   688  ARG688     -0.2867
    172  CB        -4.6630   20.4380   14.9630 C.3   688  ARG688      0.0307
    173  CG        -6.1810   20.5370   14.8710 C.3   688  ARG688      0.0489
    174  CD        -6.7500   20.1960   13.4980 C.3   688  ARG688      0.2205
    175  NE        -8.1990   20.4000   13.5100 N.pl3 688  ARG688     -0.0865
    176  CZ        -9.0380   19.8590   12.6380 C.cat 688  ARG688      0.5346
    177  NH1       -8.5770   19.0730   11.6760 N.pl3 688  ARG688      0.1354
    178  NH2      -10.3440   20.0980   12.7340 N.pl3 688  ARG688      0.1354
    179  N         -6.8340   14.5770   14.7060 N.3   716  TYR716     -0.1241
    180  CA        -7.7580   13.5090   15.1000 C.3   716  TYR716      0.1605
    181  C         -7.0040   12.3910   15.8200 C.2   716  TYR716      0.2264
    182  O         -5.8600   12.0870   15.4820 O.2   716  TYR716     -0.2867
    183  CB        -8.4960   12.9180   13.8970 C.3   716  TYR716      0.0534
    184  CG        -9.5820   13.7880   13.3030 C.ar  716  TYR716     -0.0201
    185  CD1       -9.5180   15.1790   13.3740 C.ar  716  TYR716     -0.0009
    186  CD2      -10.6800   13.2110   12.6570 C.ar  716  TYR716     -0.0009
    187  CE1      -10.5140   15.9700   12.8140 C.ar  716  TYR716      0.0417
    188  CE2      -11.6860   13.9970   12.0930 C.ar  716  TYR716      0.0417
    189  CZ       -11.5950   15.3700   12.1860 C.ar  716  TYR716      0.1957
    190  OH       -12.5800   16.1570   11.6670 O.3   716  TYR716     -0.2866
@<TRIPOS>BOND
     1    66    65    2
     2    65    64    1
     3    31    32    2
     4    31    30    1
     5    77    78    1
     6    64    67    1
     7    64    63    1
     8    50    51    2
     9    50    49    1
    10    67    68    1
    11    43    42    2
    12    30    29    1
    13    30    33    1
    14    78    81    1
    15    78    79    1
    16    49    52    1
    17    49    48    1
    18    42    48   am
    19    42    41    1
    20    33    34    1
    21    80    79    2
    22    68    69   ar
    23    68    70   ar
    24    52    53    1
    25    94    93    2
    26    48    54    1
    27    40    41    1
    28    79    82   am
    29    73    70   ar
    30    73    75   ar
    31    69    71   ar
    32    41    44    1
    33    70    72   ar
    34    34    35    1
    35    93    92    1
    36    53    54    1
    37    82    83    1
    38    44    45    1
    39    75    76   ar
    40    35    36    1
    41    95    92    1
    42    95    96    1
    43    71    72   ar
    44    72    74   ar
    45    92    91    1
    46    91    84   am
    47    38    37    1
    48    83    84    1
    49    83    86    1
    50    84    85    2
    51    36    37    2
    52    22    23    2
    53    22    21    1
    54    45    47   ar
    55    45    46   ar
    56    98    96   am
    57    37    39    1
    58    76    74   ar
    59    96    97    2
    60    27    26   ar
    61    24    21    1
    62    24    25    1
    63    21    20    1
    64    86    87    1
    65    26    25    1
    66    26    28   ar
    67     1     2    1
    68    87    88    1
    69     6     7    1
    70     6     5    1
    71     7     8    1
    72     5     2    1
    73    55    56    1
    74     2     3    1
    75    88    89    2
    76    88    90   am
    77    61    60   ar
    78     4     3    2
    79    10     9    1
    80     3    12   am
    81   106   104   am
    82   103   104    1
    83   103   100    1
    84    17    19    1
    85    17    16    1
    86   104   105    2
    87    99   100    1
    88     8     9    2
    89   100   101    1
    90    56    59    1
    91    56    57    1
    92    60    59    1
    93    60    62   ar
    94     9    11    1
    95   165   167   ar
    96   165   163   ar
    97   167   166   ar
    98    57    58    2
    99   122   120    1
   100    16    13    1
   101    16    18    1
   102    12    13    1
   103   101   102    2
   104   163   162   ar
   105   166   164   ar
   106   110   109    2
   107   120   121    1
   108   120   119    1
   109    13    14    1
   110    15    14    2
   111   115   116    1
   112   162   164   ar
   113   162   161    1
   114   109   108    1
   115   113   111    1
   116   116   119    1
   117   116   117    1
   118   111   108    1
   119   111   112    1
   120   190   189    1
   121   177   176    1
   122   137   135   ar
   123   114   112    1
   124   161   158    1
   125   188   189   ar
   126   188   186   ar
   127   108   107    1
   128   189   187   ar
   129   148   146    1
   130   176   178    1
   131   176   175    2
   132   186   184   ar
   133   156   154   ar
   134   117   118    2
   135   187   185   ar
   136   158   157    1
   137   158   159    1
   138   135   134    1
   139   135   136   ar
   140   154   153    1
   141   154   155   ar
   142   153   150    1
   143   147   146    1
   144   146   145    2
   145   184   185   ar
   146   184   183    1
   147   157   151   am
   148   134   133    1
   149   174   175    1
   150   174   173    1
   151   127   128    1
   152   127   124    1
   153   183   180    1
   154   151   150    1
   155   151   152    2
   156   145   144    1
   157   159   160    2
   158   150   149    1
   159   124   125    1
   160   124   123    1
   161   179   180    1
   162   173   172    1
   163   133   130    1
   164   172   169    1
   165   125   129   am
   166   125   126    2
   167   129   130    1
   168   180   181    1
   169   144   143    1
   170   130   131    1
   171   182   181    2
   172   171   170    2
   173   169   168    1
   174   169   170    1
   175   143   142    1
   176   131   132    2
   177   142   139    1
   178   141   140    2
   179   140   139    1
   180   139   138    1
