@<TRIPOS>MOLECULE
tmp/6ekuA01.pdb
 97 99 0 0 0
SMALL
GASTEIGER

@<TRIPOS>ATOM
      1  N         10.2750   -1.6040   18.9900 N.3     2  LEU2       -0.1231
      2  CA        10.7910   -2.1870   20.2260 C.3     2  LEU2        0.1693
      3  C         12.2090   -2.7310   20.0570 C.2     2  LEU2        0.2592
      4  O         12.5350   -3.3650   19.0550 O.2     2  LEU2       -0.2718
      5  CB         9.8510   -3.2910   20.6890 C.3     2  LEU2        0.0284
      6  CG        10.0830   -4.0710   21.9700 C.3     2  LEU2        0.0019
      7  CD1        9.9290   -3.1690   23.1850 C.3     2  LEU2        0.0001
      8  CD2        9.0850   -5.2250   22.0030 C.3     2  LEU2        0.0001
      9  N         13.0480   -2.4840   21.0550 N.am    3  PHE3       -0.1962
     10  CA        14.4130   -2.9750   21.0260 C.3     3  PHE3        0.1771
     11  C         14.6350   -3.7050   22.3240 C.2     3  PHE3        0.2620
     12  O         14.5120   -3.1100   23.3960 O.2     3  PHE3       -0.2715
     13  CB        15.3980   -1.8220   20.8380 C.3     3  PHE3        0.0574
     14  CG        15.0490   -0.9420   19.6780 C.ar    3  PHE3       -0.0200
     15  CD1       14.1580    0.1120   19.8420 C.ar    3  PHE3       -0.0042
     16  CD2       15.5760   -1.1880   18.4180 C.ar    3  PHE3       -0.0042
     17  CE1       13.7960    0.9170   18.7650 C.ar    3  PHE3       -0.0003
     18  CE2       15.2260   -0.3900   17.3300 C.ar    3  PHE3       -0.0003
     19  CZ        14.3260    0.6690   17.5100 C.ar    3  PHE3       -0.0000
     20  N         14.9170   -5.0010   22.2520 N.am    4  ASP4       -0.1957
     21  CA        14.9530   -5.7520   23.4950 C.3     4  ASP4        0.1840
     22  C         15.9880   -6.8600   23.5620 C.2     4  ASP4        0.2622
     23  O         16.5800   -7.2700   22.5660 O.2     4  ASP4       -0.2715
     24  CB        13.5540   -6.3270   23.8140 C.3     4  ASP4        0.1450
     25  CG        12.9990   -7.2170   22.7190 C.2     4  ASP4        0.3671
     26  OD1       13.2490   -6.9480   21.5260 O.co2   4  ASP4       -0.2456
     27  OD2       12.2830   -8.1870   23.0640 O.co2   4  ASP4       -0.2456
     28  N         16.2460   -7.2830   24.7860 N.am    5  TYR5       -0.1960
     29  CA        16.9640   -8.5090   25.0470 C.3     5  TYR5        0.1771
     30  C         16.0750   -9.3540   25.9380 C.2     5  TYR5        0.2619
     31  O         15.5920   -8.8800   26.9590 O.2     5  TYR5       -0.2715
     32  CB        18.3130   -8.2540   25.7230 C.3     5  TYR5        0.0574
     33  CG        18.9340   -9.5270   26.2600 C.ar    5  TYR5       -0.0198
     34  CD1       19.4480  -10.4850   25.3970 C.ar    5  TYR5       -0.0009
     35  CD2       18.9870   -9.7790   27.6290 C.ar    5  TYR5       -0.0009
     36  CE1       20.0060  -11.6580   25.8780 C.ar    5  TYR5        0.0417
     37  CE2       19.5460  -10.9500   28.1210 C.ar    5  TYR5        0.0417
     38  CZ        20.0540  -11.8850   27.2380 C.ar    5  TYR5        0.1957
     39  OH        20.6140  -13.0510   27.7130 O.3     5  TYR5       -0.2866
     40  N         15.8510  -10.5970   25.5370 N.am    6  ASN6       -0.1972
     41  CA        15.0370  -11.5110   26.3140 C.3     6  ASN6        0.1688
     42  C         15.8440  -12.7560   26.6350 C.2     6  ASN6        0.2292
     43  O         16.1130  -13.5700   25.7490 O.2     6  ASN6       -0.2864
     44  CB        13.7620  -11.8700   25.5540 C.3     6  ASN6        0.1181
     45  CG        12.6770  -12.4150   26.4590 C.2     6  ASN6        0.2629
     46  OD1       12.9530  -12.8970   27.5610 O.2     6  ASN6       -0.2716
     47  ND2       11.4300  -12.3440   25.9990 N.am    6  ASN6       -0.0877
     48  N         18.8460  -17.8850   20.5180 N.3    13  PHE13      -0.1241
     49  CA        18.9760  -16.5390   21.0900 C.3    13  PHE13       0.1605
     50  C         19.5440  -16.5810   22.5150 C.2    13  PHE13       0.2264
     51  O         18.9790  -15.9670   23.4230 O.2    13  PHE13      -0.2867
     52  CB        17.6240  -15.8080   21.1330 C.3    13  PHE13       0.0534
     53  CG        16.9470  -15.6490   19.7930 C.ar   13  PHE13      -0.0203
     54  CD1       17.5810  -15.0050   18.7400 C.ar   13  PHE13      -0.0042
     55  CD2       15.6480  -16.1000   19.6090 C.ar   13  PHE13      -0.0042
     56  CE1       16.9450  -14.8530   17.5160 C.ar   13  PHE13      -0.0003
     57  CE2       15.0060  -15.9450   18.3910 C.ar   13  PHE13      -0.0003
     58  CZ        15.6550  -15.3200   17.3440 C.ar   13  PHE13      -0.0000
     59  N         21.2780  -11.2930   19.9930 N.3    19  GLN19      -0.1231
     60  CA        20.0700  -10.4830   19.8560 C.3    19  GLN19       0.1698
     61  C         20.4170   -9.0380   19.4920 C.2    19  GLN19       0.2593
     62  O         19.6290   -8.1270   19.7100 O.2    19  GLN19      -0.2718
     63  CB        19.2340  -10.5410   21.1380 C.3    19  GLN19       0.0381
     64  CG        18.7640  -11.9600   21.4950 C.3    19  GLN19       0.0905
     65  CD        17.7750  -11.9990   22.6620 C.2    19  GLN19       0.2608
     66  OE1       17.0280  -11.0520   22.8940 O.2    19  GLN19      -0.2717
     67  NE2       17.7700  -13.1050   23.3940 N.am   19  GLN19      -0.0878
     68  N         21.6090   -8.8420   18.9340 N.am   20  GLY20      -0.1942
     69  CA        21.9860   -7.5570   18.3690 C.3    20  GLY20       0.2014
     70  C         22.5220   -6.4840   19.2980 C.2    20  GLY20       0.2638
     71  O         22.6340   -5.3250   18.8980 O.2    20  GLY20      -0.2714
     72  N         22.8590   -6.8570   20.5270 N.am   21  TRP21      -0.1973
     73  CA        23.4720   -5.9300   21.4770 C.3    21  TRP21       0.1640
     74  C         24.9960   -5.9470   21.3580 C.2    21  TRP21       0.2290
     75  O         25.5770   -6.9640   20.9870 O.2    21  TRP21      -0.2864
     76  CB        23.0290   -6.2740   22.9030 C.3    21  TRP21       0.0576
     77  CG        21.5480   -6.0660   23.0660 C.ar   21  TRP21       0.0006
     78  CD1       20.5520   -6.9100   22.6600 C.ar   21  TRP21       0.0946
     79  CD2       20.8970   -4.9210   23.6260 C.ar   21  TRP21       0.0152
     80  NE1       19.3240   -6.3690   22.9510 N.ar   21  TRP21      -0.2442
     81  CE2       19.5070   -5.1480   23.5440 C.ar   21  TRP21       0.0810
     82  CE3       21.3530   -3.7290   24.1990 C.ar   21  TRP21       0.0012
     83  CZ2       18.5710   -4.2300   24.0160 C.ar   21  TRP21       0.0191
     84  CZ3       20.4170   -2.8170   24.6660 C.ar   21  TRP21       0.0001
     85  CH2       19.0440   -3.0740   24.5680 C.ar   21  TRP21       0.0015
     86  N         22.9220   -0.7300   22.5780 N.3    55  TYR55      -0.1241
     87  CA        22.2430   -0.7620   21.2890 C.3    55  TYR55       0.1605
     88  C         22.2170    0.6540   20.7210 C.2    55  TYR55       0.2264
     89  O         21.7760    1.5860   21.3900 O.2    55  TYR55      -0.2867
     90  CB        20.8220   -1.3120   21.4290 C.3    55  TYR55       0.0534
     91  CG        20.2260   -1.7430   20.1160 C.ar   55  TYR55      -0.0201
     92  CD1       19.5650   -0.8370   19.2980 C.ar   55  TYR55      -0.0009
     93  CD2       20.3300   -3.0600   19.6910 C.ar   55  TYR55      -0.0009
     94  CE1       19.0250   -1.2360   18.0810 C.ar   55  TYR55       0.0417
     95  CE2       19.7910   -3.4690   18.4890 C.ar   55  TYR55       0.0417
     96  CZ        19.1380   -2.5550   17.6840 C.ar   55  TYR55       0.1957
     97  OH        18.6060   -2.9690   16.4760 O.3    55  TYR55      -0.2866
@<TRIPOS>BOND
     1    97    96    1
     2    18    19   ar
     3    18    16   ar
     4    58    56   ar
     5    58    57   ar
     6    19    17   ar
     7    56    54   ar
     8    96    94   ar
     9    96    95   ar
    10    94    92   ar
    11    69    68    1
    12    69    70    1
    13    57    55   ar
    14    16    14   ar
    15    95    93   ar
    16    54    53   ar
    17    17    15   ar
    18    71    70    2
    19    68    61   am
    20     1     2    1
    21     4     3    2
    22    92    91   ar
    23    70    72   am
    24    61    62    2
    25    61    60    1
    26    55    53   ar
    27    14    15   ar
    28    14    13    1
    29    93    91   ar
    30    53    52    1
    31    60    59    1
    32    60    63    1
    33     3     2    1
    34     3     9   am
    35    91    90    1
    36     2     5    1
    37    48    49    1
    38    72    73    1
    39     5     6    1
    40    88    87    1
    41    88    89    2
    42    13    10    1
    43    75    74    2
    44    10     9    1
    45    10    11    1
    46    49    52    1
    47    49    50    1
    48    63    64    1
    49    87    90    1
    50    87    86    1
    51    74    73    1
    52    73    76    1
    53    64    65    1
    54    26    25   ar
    55     6     8    1
    56     6     7    1
    57    20    11   am
    58    20    21    1
    59    11    12    2
    60    50    51    2
    61    23    22    2
    62    78    80   ar
    63    78    77   ar
    64    65    66    2
    65    65    67   am
    66    25    27   ar
    67    25    24    1
    68    76    77    1
    69    80    81   ar
    70    77    79   ar
    71    21    22    1
    72    21    24    1
    73    81    79   ar
    74    81    83   ar
    75    22    28   am
    76    79    82   ar
    77    83    85   ar
    78    82    84   ar
    79    85    84   ar
    80    28    29    1
    81    29    32    1
    82    29    30    1
    83    34    36   ar
    84    34    33   ar
    85    40    30   am
    86    40    41    1
    87    44    41    1
    88    44    45    1
    89    32    33    1
    90    43    42    2
    91    36    38   ar
    92    30    31    2
    93    47    45   am
    94    33    35   ar
    95    41    42    1
    96    45    46    2
    97    38    39    1
    98    38    37   ar
    99    35    37   ar
