@<TRIPOS>MOLECULE
tmp/6ekxA06.pdb
 112 108 0 0 0
SMALL
GASTEIGER

@<TRIPOS>ATOM
      1  N         13.4030   -5.9000    8.6120 N.3    33  CYS33      -0.1235
      2  CA        14.2140   -4.6830    8.5770 C.3    33  CYS33       0.1677
      3  C         15.6720   -4.9980    8.2550 C.2    33  CYS33       0.2270
      4  O         16.3750   -5.5780    9.0820 O.2    33  CYS33      -0.2867
      5  CB        14.1930   -3.9550    9.9090 C.3    33  CYS33       0.0956
      6  SG        15.2360   -2.4790    9.8470 S.3    33  CYS33      -0.0801
      7  N         21.7170    6.7300   12.2990 N.3    66  PHE66      -0.1241
      8  CA        20.2880    7.0590   12.3340 C.3    66  PHE66       0.1605
      9  C         20.1110    8.1780   13.3540 C.2    66  PHE66       0.2264
     10  O         20.7410    8.1500   14.4160 O.2    66  PHE66      -0.2867
     11  CB        19.4840    5.8300   12.7560 C.3    66  PHE66       0.0534
     12  CG        18.0810    5.7570   12.2100 C.ar   66  PHE66      -0.0203
     13  CD1       17.8470    5.6830   10.8410 C.ar   66  PHE66      -0.0042
     14  CD2       16.9930    5.6430   13.0720 C.ar   66  PHE66      -0.0042
     15  CE1       16.5540    5.5380   10.3440 C.ar   66  PHE66      -0.0003
     16  CE2       15.7000    5.5000   12.5840 C.ar   66  PHE66      -0.0003
     17  CZ        15.4800    5.4480   11.2160 C.ar   66  PHE66      -0.0000
     18  N         14.2780    9.9490   15.3050 N.3    70  ALA70      -0.1245
     19  CA        13.7360    8.8540   14.4990 C.3    70  ALA70       0.1562
     20  C         13.9860    7.5070   15.1690 C.2    70  ALA70       0.2260
     21  O         13.1180    6.6410   15.1700 O.2    70  ALA70      -0.2867
     22  CB        14.3240    8.8720   13.0980 C.3    70  ALA70       0.0290
     23  N         11.4770    7.2750   18.1170 N.3    73  PHE73      -0.1227
     24  CA        10.1050    7.0730   17.6890 C.3    73  PHE73       0.1736
     25  C          9.8800    5.6490   17.1690 C.2    73  PHE73       0.2595
     26  O          8.9570    4.9590   17.6050 O.2    73  PHE73      -0.2718
     27  CB         9.6810    8.0800   16.6280 C.3    73  PHE73       0.0547
     28  CG         8.2190    8.0070   16.3210 C.ar   73  PHE73      -0.0202
     29  CD1        7.2870    8.4900   17.2340 C.ar   73  PHE73      -0.0042
     30  CD2        7.7600    7.3880   15.1640 C.ar   73  PHE73      -0.0042
     31  CE1        5.9260    8.3970   16.9810 C.ar   73  PHE73      -0.0003
     32  CE2        6.4000    7.2960   14.9060 C.ar   73  PHE73      -0.0003
     33  CZ         5.4810    7.7970   15.8150 C.ar   73  PHE73      -0.0000
     34  N         10.7300    5.2080   16.2490 N.am   74  ALA74      -0.1980
     35  CA        10.5620    3.8830   15.6520 C.3    74  ALA74       0.1597
     36  C         10.7140    2.7660   16.6680 C.2    74  ALA74       0.2287
     37  O          9.9410    1.8110   16.6640 O.2    74  ALA74      -0.2864
     38  CB        11.5400    3.6800   14.5120 C.3    74  ALA74       0.0319
     39  N          3.4860   -2.8540   13.1800 N.3   118  PHE118     -0.1241
     40  CA         4.4950   -1.9920   12.5590 C.3   118  PHE118      0.1605
     41  C          4.6600   -2.4360   11.1010 C.2   118  PHE118      0.2264
     42  O          4.4620   -1.6410   10.1790 O.2   118  PHE118     -0.2867
     43  CB         5.8190   -2.0840   13.3330 C.3   118  PHE118      0.0534
     44  CG         6.8200   -0.9930   13.0130 C.ar  118  PHE118     -0.0203
     45  CD1        7.2790   -0.7800   11.7110 C.ar  118  PHE118     -0.0042
     46  CD2        7.3470   -0.2020   14.0340 C.ar  118  PHE118     -0.0042
     47  CE1        8.2150    0.2000   11.4380 C.ar  118  PHE118     -0.0003
     48  CE2        8.2840    0.7790   13.7610 C.ar  118  PHE118     -0.0003
     49  CZ         8.7180    0.9800   12.4630 C.ar  118  PHE118     -0.0000
     50  N         -0.1590    4.3410   10.3500 N.3   185  PHE185     -0.1241
     51  CA         1.2730    4.1520   10.5730 C.3   185  PHE185      0.1605
     52  C          2.0190    3.5850    9.3760 C.2   185  PHE185      0.2264
     53  O          3.1320    4.0160    9.0750 O.2   185  PHE185     -0.2867
     54  CB         1.5060    3.2630   11.7970 C.3   185  PHE185      0.0534
     55  CG         2.9130    3.3080   12.3200 C.ar  185  PHE185     -0.0203
     56  CD1        3.4170    4.4630   12.8930 C.ar  185  PHE185     -0.0042
     57  CD2        3.7320    2.1940   12.2390 C.ar  185  PHE185     -0.0042
     58  CE1        4.7110    4.5080   13.3750 C.ar  185  PHE185     -0.0003
     59  CE2        5.0280    2.2320   12.7190 C.ar  185  PHE185     -0.0003
     60  CZ         5.5180    3.3910   13.2880 C.ar  185  PHE185     -0.0000
     61  N          2.7560    6.1370    6.5610 N.3   188  PHE188     -0.1227
     62  CA         3.9680    6.9260    6.8290 C.3   188  PHE188      0.1736
     63  C          5.2460    6.1320    6.6230 C.2   188  PHE188      0.2596
     64  O          6.1310    6.5830    5.8940 O.2   188  PHE188     -0.2718
     65  CB         3.9960    7.4930    8.2470 C.3   188  PHE188      0.0547
     66  CG         3.1710    8.7340    8.4300 C.ar  188  PHE188     -0.0202
     67  CD1        1.7990    8.6770    8.3860 C.ar  188  PHE188     -0.0042
     68  CD2        3.7710    9.9500    8.6820 C.ar  188  PHE188     -0.0042
     69  CE1        1.0310    9.8190    8.5730 C.ar  188  PHE188     -0.0003
     70  CE2        3.0110   11.0890    8.8700 C.ar  188  PHE188     -0.0003
     71  CZ         1.6390   11.0180    8.8120 C.ar  188  PHE188     -0.0000
     72  N          5.3480    4.9650    7.2610 N.am  189  THR189     -0.1953
     73  CA         6.6090    4.2010    7.2140 C.3   189  THR189      0.1897
     74  C          6.9560    3.7210    5.8180 C.2   189  THR189      0.2313
     75  O          8.1330    3.6270    5.4730 O.2   189  THR189     -0.2863
     76  CB         6.6210    2.9730    8.1460 C.3   189  THR189      0.1794
     77  OG1        5.5690    2.0700    7.7880 O.3   189  THR189     -0.2208
     78  CG2        6.5030    3.3790    9.6000 C.3   189  THR189      0.0378
     79  N          8.9540    6.6340    4.2330 N.3   192  GLY192     -0.1210
     80  CA        10.2470    6.8560    4.8620 C.3   192  GLY192      0.1956
     81  C         11.2560    5.7640    4.5980 C.2   192  GLY192      0.2611
     82  O         12.4230    6.0500    4.3130 O.2   192  GLY192     -0.2717
     83  N         10.8060    4.5200    4.6330 N.am  193  GLU193     -0.1979
     84  CA        11.7100    3.3950    4.4850 C.3   193  GLU193      0.1602
     85  C         12.4380    3.4440    3.1570 C.2   193  GLU193      0.2287
     86  O         13.6200    3.1120    3.0740 O.2   193  GLU193     -0.2864
     87  CB        10.9460    2.0750    4.6150 C.3   193  GLU193      0.0415
     88  CG         9.8620    1.8800    3.5680 C.3   193  GLU193      0.1163
     89  CD         9.0210    0.6450    3.8230 C.2   193  GLU193      0.3649
     90  OE1        8.8030   -0.1340    2.8710 O.co2 193  GLU193     -0.2457
     91  OE2        8.5780    0.4530    4.9750 O.co2 193  GLU193     -0.2457
     92  N         15.7350    5.2050    3.1880 N.3   196  PHE196     -0.1241
     93  CA        16.8130    4.7230    4.0330 C.3   196  PHE196      0.1605
     94  C         17.9850    4.0960    3.2730 C.2   196  PHE196      0.2264
     95  O         19.1260    4.3140    3.6560 O.2   196  PHE196     -0.2867
     96  CB        16.2930    3.7630    5.1060 C.3   196  PHE196      0.0534
     97  CG        15.3350    4.3860    6.1020 C.ar  196  PHE196     -0.0203
     98  CD1       15.1600    5.7720    6.2370 C.ar  196  PHE196     -0.0042
     99  CD2       14.6120    3.5550    6.9430 C.ar  196  PHE196     -0.0042
    100  CE1       14.2680    6.2830    7.1720 C.ar  196  PHE196     -0.0003
    101  CE2       13.7230    4.0670    7.8730 C.ar  196  PHE196     -0.0003
    102  CZ        13.5550    5.4300    7.9920 C.ar  196  PHE196     -0.0000
    103  N         17.6740   10.2300    8.8780 N.3   237  SER237     -0.1202
    104  CA        16.7460    9.1270    8.6920 C.3   237  SER237      0.2020
    105  C         16.0770    9.3040    7.3410 C.2   237  SER237      0.2619
    106  O         16.5680    8.7880    6.3510 O.2   237  SER237     -0.2717
    107  CB        15.7010    8.9360    9.7930 C.3   237  SER237      0.2103
    108  OG        15.1040   10.1610   10.1550 O.3   237  SER237     -0.2182
    109  N         14.9590   10.0190    7.3280 N.am  238  GLY238     -0.1956
    110  CA        14.0940   10.0920    6.1570 C.3   238  GLY238      0.1869
    111  C         14.2150   11.2990    5.2610 C.2   238  GLY238      0.2309
    112  O         13.2510   11.6360    4.5740 O.2   238  GLY238     -0.2863
@<TRIPOS>BOND
     1    90    89   ar
     2    86    85    2
     3    85    84    1
     4    92    93    1
     5    94    95    2
     6    94    93    1
     7    88    89    1
     8    88    87    1
     9    89    91   ar
    10    93    96    1
    11    79    80    1
    12    82    81    2
    13    84    87    1
    14    84    83    1
    15   112   111    2
    16    81    83   am
    17    81    80    1
    18    96    97    1
    19   111   110    1
    20    75    74    2
    21    74    73    1
    22    64    63    2
    23    97    98   ar
    24    97    99   ar
    25   110   109    1
    26    98   100   ar
    27   106   105    2
    28    61    62    1
    29    63    62    1
    30    63    72   am
    31    62    65    1
    32    99   101   ar
    33   100   102   ar
    34    73    72    1
    35    73    76    1
    36   109   105   am
    37   105   104    1
    38    77    76    1
    39   101   102   ar
    40    76    78    1
    41    65    66    1
    42     3     2    1
    43     3     4    2
    44    67    66   ar
    45    67    69   ar
    46    66    68   ar
    47    69    71   ar
    48     2     1    1
    49     2     5    1
    50    68    70   ar
    51   104   103    1
    52   104   107    1
    53    71    70   ar
    54    53    52    2
    55    52    51    1
    56   107   108    1
    57     6     5    1
    58    42    41    2
    59    15    13   ar
    60    15    17   ar
    61    50    51    1
    62    51    54    1
    63    13    12   ar
    64    41    40    1
    65    17    16   ar
    66    47    45   ar
    67    47    49   ar
    68    45    44   ar
    69    54    55    1
    70    12    11    1
    71    12    14   ar
    72    57    55   ar
    73    57    59   ar
    74     7     8    1
    75    55    56   ar
    76     8    11    1
    77     8     9    1
    78    49    48   ar
    79    40    39    1
    80    40    43    1
    81    16    14   ar
    82    59    60   ar
    83    56    58   ar
    84    44    43    1
    85    44    46   ar
    86    22    19    1
    87    60    58   ar
    88     9    10    2
    89    48    46   ar
    90    19    20    1
    91    19    18    1
    92    38    35    1
    93    32    30   ar
    94    32    33   ar
    95    30    28   ar
    96    20    21    2
    97    35    34    1
    98    35    36    1
    99    33    31   ar
   100    34    25   am
   101    28    27    1
   102    28    29   ar
   103    27    24    1
   104    37    36    2
   105    31    29   ar
   106    25    26    2
   107    25    24    1
   108    24    23    1
