@<TRIPOS>MOLECULE
tmp/6ekxA07.pdb
 77 73 0 0 0
SMALL
GASTEIGER

@<TRIPOS>ATOM
      1  N         21.7170    6.7300   12.2990 N.3    66  PHE66      -0.1241
      2  CA        20.2880    7.0590   12.3340 C.3    66  PHE66       0.1605
      3  C         20.1110    8.1780   13.3540 C.2    66  PHE66       0.2264
      4  O         20.7410    8.1500   14.4160 O.2    66  PHE66      -0.2867
      5  CB        19.4840    5.8300   12.7560 C.3    66  PHE66       0.0534
      6  CG        18.0810    5.7570   12.2100 C.ar   66  PHE66      -0.0203
      7  CD1       17.8470    5.6830   10.8410 C.ar   66  PHE66      -0.0042
      8  CD2       16.9930    5.6430   13.0720 C.ar   66  PHE66      -0.0042
      9  CE1       16.5540    5.5380   10.3440 C.ar   66  PHE66      -0.0003
     10  CE2       15.7000    5.5000   12.5840 C.ar   66  PHE66      -0.0003
     11  CZ        15.4800    5.4480   11.2160 C.ar   66  PHE66      -0.0000
     12  N         14.2780    9.9490   15.3050 N.3    70  ALA70      -0.1245
     13  CA        13.7360    8.8540   14.4990 C.3    70  ALA70       0.1562
     14  C         13.9860    7.5070   15.1690 C.2    70  ALA70       0.2260
     15  O         13.1180    6.6410   15.1700 O.2    70  ALA70      -0.2867
     16  CB        14.3240    8.8720   13.0980 C.3    70  ALA70       0.0290
     17  N          2.7560    6.1370    6.5610 N.3   188  PHE188     -0.1227
     18  CA         3.9680    6.9260    6.8290 C.3   188  PHE188      0.1736
     19  C          5.2460    6.1320    6.6230 C.2   188  PHE188      0.2596
     20  O          6.1310    6.5830    5.8940 O.2   188  PHE188     -0.2718
     21  CB         3.9960    7.4930    8.2470 C.3   188  PHE188      0.0547
     22  CG         3.1710    8.7340    8.4300 C.ar  188  PHE188     -0.0202
     23  CD1        1.7990    8.6770    8.3860 C.ar  188  PHE188     -0.0042
     24  CD2        3.7710    9.9500    8.6820 C.ar  188  PHE188     -0.0042
     25  CE1        1.0310    9.8190    8.5730 C.ar  188  PHE188     -0.0003
     26  CE2        3.0110   11.0890    8.8700 C.ar  188  PHE188     -0.0003
     27  CZ         1.6390   11.0180    8.8120 C.ar  188  PHE188     -0.0000
     28  N          5.3480    4.9650    7.2610 N.am  189  THR189     -0.1953
     29  CA         6.6090    4.2010    7.2140 C.3   189  THR189      0.1897
     30  C          6.9560    3.7210    5.8180 C.2   189  THR189      0.2313
     31  O          8.1330    3.6270    5.4730 O.2   189  THR189     -0.2863
     32  CB         6.6210    2.9730    8.1460 C.3   189  THR189      0.1794
     33  OG1        5.5690    2.0700    7.7880 O.3   189  THR189     -0.2208
     34  CG2        6.5030    3.3790    9.6000 C.3   189  THR189      0.0378
     35  N          8.9540    6.6340    4.2330 N.3   192  GLY192     -0.1225
     36  CA        10.2470    6.8560    4.8620 C.3   192  GLY192      0.1811
     37  C         11.2560    5.7640    4.5980 C.2   192  GLY192      0.2280
     38  O         12.4230    6.0500    4.3130 O.2   192  GLY192     -0.2866
     39  N         15.7350    5.2050    3.1880 N.3   196  PHE196     -0.1241
     40  CA        16.8130    4.7230    4.0330 C.3   196  PHE196      0.1605
     41  C         17.9850    4.0960    3.2730 C.2   196  PHE196      0.2264
     42  O         19.1260    4.3140    3.6560 O.2   196  PHE196     -0.2867
     43  CB        16.2930    3.7630    5.1060 C.3   196  PHE196      0.0534
     44  CG        15.3350    4.3860    6.1020 C.ar  196  PHE196     -0.0203
     45  CD1       15.1600    5.7720    6.2370 C.ar  196  PHE196     -0.0042
     46  CD2       14.6120    3.5550    6.9430 C.ar  196  PHE196     -0.0042
     47  CE1       14.2680    6.2830    7.1720 C.ar  196  PHE196     -0.0003
     48  CE2       13.7230    4.0670    7.8730 C.ar  196  PHE196     -0.0003
     49  CZ        13.5550    5.4300    7.9920 C.ar  196  PHE196     -0.0000
     50  N         17.6740   10.2300    8.8780 N.3   237  SER237     -0.1202
     51  CA        16.7460    9.1270    8.6920 C.3   237  SER237      0.2020
     52  C         16.0770    9.3040    7.3410 C.2   237  SER237      0.2619
     53  O         16.5680    8.7880    6.3510 O.2   237  SER237     -0.2717
     54  CB        15.7010    8.9360    9.7930 C.3   237  SER237      0.2103
     55  OG        15.1040   10.1610   10.1550 O.3   237  SER237     -0.2182
     56  N         14.9590   10.0190    7.3280 N.am  238  GLY238     -0.1956
     57  CA        14.0940   10.0920    6.1570 C.3   238  GLY238      0.1869
     58  C         14.2150   11.2990    5.2610 C.2   238  GLY238      0.2309
     59  O         13.2510   11.6360    4.5740 O.2   238  GLY238     -0.2863
     60  N         12.2210   12.2320    1.7070 N.3   241  VAL241     -0.1245
     61  CA        10.9300   11.5720    1.5740 C.3   241  VAL241      0.1561
     62  C          9.9580   12.3910    0.7070 C.2   241  VAL241      0.2260
     63  O          9.1340   11.8210   -0.0120 O.2   241  VAL241     -0.2867
     64  CB        10.3490   11.1950    2.9550 C.3   241  VAL241      0.0252
     65  CG1        9.9590   12.4220    3.7730 C.3   241  VAL241      0.0019
     66  CG2        9.2030   10.2090    2.8130 C.3   241  VAL241      0.0019
     67  N          0.0250   12.8140    5.3610 N.3   271  PHE271     -0.1241
     68  CA         1.1590   13.7110    5.6190 C.3   271  PHE271      0.1605
     69  C          0.7700   15.1250    6.0420 C.2   271  PHE271      0.2264
     70  O          1.6090   15.8590    6.5580 O.2   271  PHE271     -0.2867
     71  CB         2.1420   13.7210    4.4490 C.3   271  PHE271      0.0534
     72  CG         2.7940   12.3890    4.2260 C.ar  271  PHE271     -0.0203
     73  CD1        3.5120   11.7770    5.2500 C.ar  271  PHE271     -0.0042
     74  CD2        2.6680   11.7220    3.0110 C.ar  271  PHE271     -0.0042
     75  CE1        4.0940   10.5330    5.0650 C.ar  271  PHE271     -0.0003
     76  CE2        3.2520   10.4770    2.8210 C.ar  271  PHE271     -0.0003
     77  CZ         3.9650    9.8820    3.8490 C.ar  271  PHE271     -0.0000
@<TRIPOS>BOND
     1    63    62    2
     2    62    61    1
     3    61    60    1
     4    61    64    1
     5    66    64    1
     6    76    74   ar
     7    76    77   ar
     8    64    65    1
     9    74    72   ar
    10    39    40    1
    11    41    42    2
    12    41    40    1
    13    77    75   ar
    14    40    43    1
    15    72    71    1
    16    72    73   ar
    17    35    36    1
    18    38    37    2
    19    71    68    1
    20    59    58    2
    21    37    36    1
    22    75    73   ar
    23    43    44    1
    24    58    57    1
    25    67    68    1
    26    31    30    2
    27    68    69    1
    28    30    29    1
    29    20    19    2
    30    69    70    2
    31    44    45   ar
    32    44    46   ar
    33    57    56    1
    34    45    47   ar
    35    53    52    2
    36    17    18    1
    37    19    18    1
    38    19    28   am
    39    18    21    1
    40    46    48   ar
    41    47    49   ar
    42    29    28    1
    43    29    32    1
    44    56    52   am
    45    52    51    1
    46    33    32    1
    47    48    49   ar
    48    32    34    1
    49    21    22    1
    50    23    22   ar
    51    23    25   ar
    52    22    24   ar
    53    25    27   ar
    54    24    26   ar
    55    51    50    1
    56    51    54    1
    57    27    26   ar
    58    54    55    1
    59     9     7   ar
    60     9    11   ar
    61     7     6   ar
    62    11    10   ar
    63     6     5    1
    64     6     8   ar
    65     1     2    1
    66     2     5    1
    67     2     3    1
    68    10     8   ar
    69    16    13    1
    70     3     4    2
    71    13    14    1
    72    13    12    1
    73    14    15    2
