@<TRIPOS>MOLECULE
tmp/6ekyA02.pdb
 101 98 0 0 0
SMALL
GASTEIGER

@<TRIPOS>ATOM
      1  N         15.9860   11.2670   17.3280 N.3    69  GLN69      -0.1231
      2  CA        14.5270   11.3470   17.4260 C.3    69  GLN69       0.1698
      3  C         13.8420   10.2380   16.6370 C.2    69  GLN69       0.2592
      4  O         12.8920    9.6300   17.1290 O.2    69  GLN69      -0.2718
      5  CB        13.9900   12.7220   17.0210 C.3    69  GLN69       0.0381
      6  CG        13.9920   13.7050   18.1850 C.3    69  GLN69       0.0905
      7  CD        12.8910   14.7350   18.0760 C.2    69  GLN69       0.2608
      8  OE1       12.8780   15.5440   17.1510 O.2    69  GLN69      -0.2717
      9  NE2       11.9520   14.7090   19.0210 N.am   69  GLN69      -0.0878
     10  N         14.3400    9.9710   15.4310 N.am   70  ALA70      -0.1980
     11  CA        13.8010    8.8960   14.6000 C.3    70  ALA70       0.1597
     12  C         14.0270    7.5360   15.2550 C.2    70  ALA70       0.2287
     13  O         13.1360    6.6850   15.2570 O.2    70  ALA70      -0.2864
     14  CB        14.4140    8.9300   13.2120 C.3    70  ALA70       0.0319
     15  N         11.5110    7.2820   18.2110 N.3    73  PHE73      -0.1241
     16  CA        10.1370    7.0780   17.7850 C.3    73  PHE73       0.1605
     17  C          9.9090    5.6560   17.2530 C.2    73  PHE73       0.2264
     18  O          8.9810    4.9670   17.6900 O.2    73  PHE73      -0.2867
     19  CB         9.6840    8.1110   16.7590 C.3    73  PHE73       0.0534
     20  CG         8.2100    8.0560   16.5010 C.ar   73  PHE73      -0.0203
     21  CD1        7.3160    8.5920   17.4220 C.ar   73  PHE73      -0.0042
     22  CD2        7.7030    7.4050   15.3780 C.ar   73  PHE73      -0.0042
     23  CE1        5.9460    8.5170   17.2110 C.ar   73  PHE73      -0.0003
     24  CE2        6.3330    7.3300   15.1610 C.ar   73  PHE73      -0.0003
     25  CZ         5.4540    7.8850   16.0790 C.ar   73  PHE73      -0.0000
     26  N         -0.1050    4.3850   10.3560 N.3   185  PHE185     -0.1241
     27  CA         1.3270    4.2200   10.6070 C.3   185  PHE185      0.1605
     28  C          2.0560    3.6310    9.4030 C.2   185  PHE185      0.2264
     29  O          3.1380    4.0930    9.0630 O.2   185  PHE185     -0.2867
     30  CB         1.5480    3.3640   11.8640 C.3   185  PHE185      0.0534
     31  CG         2.9770    3.3260   12.3600 C.ar  185  PHE185     -0.0203
     32  CD1        3.7650    4.4720   12.4310 C.ar  185  PHE185     -0.0042
     33  CD2        3.5250    2.1310   12.8040 C.ar  185  PHE185     -0.0042
     34  CE1        5.0690    4.4160   12.9050 C.ar  185  PHE185     -0.0003
     35  CE2        4.8260    2.0730   13.2790 C.ar  185  PHE185     -0.0003
     36  CZ         5.5980    3.2140   13.3320 C.ar  185  PHE185     -0.0000
     37  N          2.8150    6.1360    6.5930 N.3   188  PHE188     -0.1241
     38  CA         4.0230    6.9180    6.8560 C.3   188  PHE188      0.1605
     39  C          5.2920    6.0930    6.6640 C.2   188  PHE188      0.2264
     40  O          6.2070    6.5250    5.9520 O.2   188  PHE188     -0.2867
     41  CB         4.0160    7.4970    8.2730 C.3   188  PHE188      0.0534
     42  CG         3.1620    8.7310    8.4370 C.ar  188  PHE188     -0.0203
     43  CD1        1.7730    8.6610    8.4050 C.ar  188  PHE188     -0.0042
     44  CD2        3.7560    9.9680    8.6540 C.ar  188  PHE188     -0.0042
     45  CE1        0.9970    9.8020    8.5790 C.ar  188  PHE188     -0.0003
     46  CE2        2.9860   11.1090    8.8250 C.ar  188  PHE188     -0.0003
     47  CZ         1.6090   11.0270    8.7860 C.ar  188  PHE188     -0.0000
     48  N          0.3710   14.7010   10.8250 N.3   274  PRO274     -0.2116
     49  CA         1.2700   13.7990   11.5590 C.3   274  PRO274      0.1372
     50  C          0.8810   13.5990   13.0250 C.2   274  PRO274      0.2244
     51  O          1.0510   12.5040   13.5530 O.2   274  PRO274     -0.2868
     52  CB         2.6370   14.4850   11.4390 C.3   274  PRO274      0.0268
     53  CG         2.3150   15.9160   11.1980 C.3   274  PRO274      0.0207
     54  CD         1.0780   15.9030   10.3480 C.3   274  PRO274      0.0892
     55  N         -1.5790   10.8110   13.3480 N.3   277  MET277     -0.1230
     56  CA        -0.9130    9.5060   13.2580 C.3   277  MET277      0.1702
     57  C         -0.4260    9.0470   14.6310 C.2   277  MET277      0.2592
     58  O         -0.6660    7.9050   15.0280 O.2   277  MET277     -0.2718
     59  CB         0.2550    9.5370   12.2710 C.3   277  MET277      0.0401
     60  CG         0.8460    8.1580   12.0050 C.3   277  MET277      0.0596
     61  SD         2.0220    7.5830   13.2470 S.3   277  MET277     -0.1393
     62  CE         3.3550    8.6410   12.8220 C.3   277  MET277      0.0692
     63  N          0.2340    9.9460   15.3560 N.am  278  TYR278     -0.1976
     64  CA         0.6870    9.6550   16.7250 C.3   278  TYR278      0.1639
     65  C         -0.4940    9.3610   17.6700 C.2   278  TYR278      0.2290
     66  O         -0.4780    8.3660   18.4000 O.2   278  TYR278     -0.2864
     67  CB         1.5510   10.8080   17.2690 C.3   278  TYR278      0.0560
     68  CG         1.6030   10.8600   18.7800 C.ar  278  TYR278     -0.0198
     69  CD1        2.2720    9.8750   19.5110 C.ar  278  TYR278     -0.0009
     70  CD2        0.9490   11.8720   19.4830 C.ar  278  TYR278     -0.0009
     71  CE1        2.2980    9.9070   20.8980 C.ar  278  TYR278      0.0417
     72  CE2        0.9670   11.9090   20.8670 C.ar  278  TYR278      0.0417
     73  CZ         1.6420   10.9300   21.5690 C.ar  278  TYR278      0.1957
     74  OH         1.6510   10.9750   22.9430 O.3   278  TYR278     -0.2866
     75  N         10.3220   11.0340   20.9830 N.3   311  GLY311     -0.1210
     76  CA        10.6650   10.9220   19.5680 C.3   311  GLY311      0.1956
     77  C          9.7210   11.6140   18.6060 C.2   311  GLY311      0.2612
     78  O         10.0030   11.6670   17.4070 O.2   311  GLY311     -0.2717
     79  N          8.6110   12.1490   19.1110 N.am  312  VAL312     -0.1965
     80  CA         7.6220   12.8000   18.2630 C.3   312  VAL312      0.1727
     81  C          8.1820   14.1580   17.8460 C.2   312  VAL312      0.2616
     82  O          8.3780   15.0380   18.6830 O.2   312  VAL312     -0.2715
     83  CB         6.2600   12.9160   18.9770 C.3   312  VAL312      0.0290
     84  CG1        5.2790   13.7550   18.1700 C.3   312  VAL312      0.0023
     85  CG2        5.6880   11.5240   19.2010 C.3   312  VAL312      0.0023
     86  N          8.4630   14.2970   16.5520 N.am  313  ALA313     -0.1963
     87  CA         9.1520   15.4650   16.0100 C.3   313  ALA313      0.1728
     88  C          8.2420   16.5260   15.3660 C.2   313  ALA313      0.2616
     89  O          8.7520   17.4980   14.7970 O.2   313  ALA313     -0.2715
     90  CB        10.2050   14.9960   15.0130 C.3   313  ALA313      0.0334
     91  N          6.9200   16.3720   15.4740 N.am  314  ALA314     -0.1977
     92  CA         5.9710   17.2530   14.7610 C.3   314  ALA314      0.1597
     93  C          5.2150   18.3130   15.6080 C.2   314  ALA314      0.2287
     94  O          4.2100   18.8620   15.1470 O.2   314  ALA314     -0.2864
     95  CB         4.9860   16.3910   13.9800 C.3   314  ALA314      0.0319
     96  N          3.5670   17.9740   18.4990 N.3   316  CYS316     -0.1235
     97  CA         2.3140   17.4020   18.9630 C.3   316  CYS316      0.1677
     98  C          2.1760   17.4890   20.4720 C.2   316  CYS316      0.2270
     99  O          3.1700   17.5870   21.2000 O.2   316  CYS316     -0.2867
    100  CB         2.2430   15.9340   18.5430 C.3   316  CYS316      0.0956
    101  SG         2.5230   15.6750   16.7760 S.3   316  CYS316     -0.0801
@<TRIPOS>BOND
     1    40    39    2
     2    37    38    1
     3    39    38    1
     4    38    41    1
     5    41    42    1
     6    43    42   ar
     7    43    45   ar
     8    42    44   ar
     9    45    47   ar
    10    44    46   ar
    11    47    46   ar
    12    29    28    2
    13    28    27    1
    14    54    48    1
    15    54    53    1
    16    26    27    1
    17    27    30    1
    18    48    49    1
    19    53    52    1
    20    52    49    1
    21    49    50    1
    22    30    31    1
    23    60    59    1
    24    60    61    1
    25    59    56    1
    26    31    32   ar
    27    31    33   ar
    28    32    34   ar
    29    33    35   ar
    30    62    61    1
    31    34    36   ar
    32    50    51    2
    33    14    11    1
    34    56    55    1
    35    56    57    1
    36    35    36   ar
    37    95    92    1
    38    11    12    1
    39    11    10    1
    40    57    58    2
    41    57    63   am
    42    92    91    1
    43    92    93    1
    44    89    88    2
    45    90    87    1
    46    94    93    2
    47    24    22   ar
    48    24    25   ar
    49    12    13    2
    50    63    64    1
    51    88    91   am
    52    88    87    1
    53    22    20   ar
    54    10     3   am
    55    87    86    1
    56    25    23   ar
    57    20    19    1
    58    20    21   ar
    59    86    81   am
    60     3     4    2
    61     3     2    1
    62    64    67    1
    63    64    65    1
    64    19    16    1
    65   101   100    1
    66     5     2    1
    67     5     6    1
    68     8     7    2
    69    23    21   ar
    70    17    18    2
    71    17    16    1
    72    67    68    1
    73     1     2    1
    74    78    77    2
    75    65    66    2
    76    16    15    1
    77    81    80    1
    78    81    82    2
    79     7     6    1
    80     7     9   am
    81    84    83    1
    82    80    83    1
    83    80    79    1
    84    96    97    1
    85   100    97    1
    86    77    79   am
    87    77    76    1
    88    68    70   ar
    89    68    69   ar
    90    97    98    1
    91    83    85    1
    92    70    72   ar
    93    69    71   ar
    94    76    75    1
    95    98    99    2
    96    72    73   ar
    97    71    73   ar
    98    73    74    1
