@<TRIPOS>MOLECULE
tmp/6ekzA02.pdb
 83 82 0 0 0
SMALL
GASTEIGER

@<TRIPOS>ATOM
      1  N         -3.6530    0.8660   22.5750 N.3   288  LYS288     -0.1245
      2  CA        -4.7730    0.6430   23.4840 C.3   288  LYS288      0.1561
      3  C         -5.5360   -0.6440   23.1870 C.2   288  LYS288      0.2260
      4  O         -5.9540   -1.3260   24.1180 O.2   288  LYS288     -0.2867
      5  CB        -5.7330    1.8340   23.4440 C.3   288  LYS288      0.0271
      6  CG        -6.9070    1.7670   24.4110 C.3   288  LYS288      0.0035
      7  CD        -6.4350    1.8340   25.8490 C.3   288  LYS288      0.0206
      8  CE        -7.6040    1.8920   26.8130 C.3   288  LYS288      0.1093
      9  NZ        -8.1410    3.2710   26.9760 N.3   288  LYS288     -0.1314
     10  N         -6.1120   -3.2760   26.3990 N.3   292  PRO292     -0.2102
     11  CA        -7.3040   -2.5000   26.7550 C.3   292  PRO292      0.1504
     12  C         -7.5230   -2.2860   28.2440 C.2   292  PRO292      0.2576
     13  O         -8.1020   -1.2690   28.6130 O.2   292  PRO292     -0.2718
     14  CB        -8.4540   -3.3280   26.1750 C.3   292  PRO292      0.0282
     15  CG        -7.9200   -4.7070   26.0980 C.3   292  PRO292      0.0208
     16  CD        -6.4730   -4.5440   25.7420 C.3   292  PRO292      0.0893
     17  N         -7.0900   -3.2230   29.0830 N.am  293  ASN293     -0.1961
     18  CA        -7.2760   -3.0710   30.5230 C.3   293  ASN293      0.1804
     19  C         -6.1290   -3.7210   31.2850 C.2   293  ASN293      0.2463
     20  O         -6.2990   -4.7580   31.9350 O.2   293  ASN293     -0.2730
     21  CB        -8.6450   -3.6030   30.9460 C.3   293  ASN293      0.1195
     22  CG        -9.2560   -2.7660   32.0440 C.2   293  ASN293      0.2630
     23  OD1       -8.8270   -2.8230   33.1940 O.2   293  ASN293     -0.2716
     24  ND2      -10.2470   -1.9460   31.6890 N.am  293  ASN293     -0.0877
     25  N         -4.9410   -3.1020   31.2000 N.am  294  PRO294     -0.2727
     26  CA        -3.7580   -3.7330   31.7490 C.3   294  PRO294      0.1402
     27  C         -3.7480   -3.7550   33.2660 C.2   294  PRO294      0.2269
     28  O         -4.2670   -2.8390   33.9170 O.2   294  PRO294     -0.2865
     29  CB        -2.6270   -2.8450   31.2350 C.3   294  PRO294      0.0296
     30  CG        -3.2490   -1.5020   31.1370 C.3   294  PRO294      0.0237
     31  CD        -4.6340   -1.7740   30.6360 C.3   294  PRO294      0.0939
     32  N         -1.6040   -3.6730   36.8820 N.3   296  VAL296     -0.1245
     33  CA        -0.7530   -2.6460   37.3920 C.3   296  VAL296      0.1561
     34  C          0.6660   -2.5890   36.8360 C.2   296  VAL296      0.2260
     35  O          1.1240   -1.5560   36.5060 O.2   296  VAL296     -0.2867
     36  CB        -0.7810   -2.6270   38.9720 C.3   296  VAL296      0.0252
     37  CG1       -0.2420   -3.9090   39.5590 C.3   296  VAL296      0.0019
     38  CG2        0.0040   -1.4450   39.4440 C.3   296  VAL296      0.0019
     39  N          0.5030   -1.6250   33.1130 N.3   299  ARG299     -0.1245
     40  CA         0.1510   -0.2180   32.9710 C.3   299  ARG299      0.1563
     41  C          1.3560    0.6940   33.1960 C.2   299  ARG299      0.2260
     42  O          1.5590    1.6480   32.4450 O.2   299  ARG299     -0.2867
     43  CB        -0.9740    0.1780   33.9240 C.3   299  ARG299      0.0307
     44  CG        -1.3670    1.6350   33.7570 C.3   299  ARG299      0.0489
     45  CD        -2.3740    2.0620   34.7840 C.3   299  ARG299      0.2205
     46  NE        -2.4840    3.5270   34.8320 N.pl3 299  ARG299     -0.0865
     47  CZ        -1.7060    4.3270   35.5600 C.cat 299  ARG299      0.5346
     48  NH1       -0.7370    3.8300   36.3300 N.pl3 299  ARG299      0.1354
     49  NH2       -1.9020    5.6430   35.5200 N.pl3 299  ARG299      0.1354
     50  N         -3.5670    7.3220   27.3600 N.3   322  PRO322     -0.2102
     51  CA        -4.6370    6.3100   27.3490 C.3   322  PRO322      0.1504
     52  C         -4.9350    5.6290   28.6880 C.2   322  PRO322      0.2576
     53  O         -6.0390    5.1100   28.8620 O.2   322  PRO322     -0.2718
     54  CB        -4.1230    5.2700   26.3460 C.3   322  PRO322      0.0282
     55  CG        -2.6460    5.4240   26.3710 C.3   322  PRO322      0.0208
     56  CD        -2.4010    6.8860   26.5670 C.3   322  PRO322      0.0893
     57  N         -3.9680    5.6250   29.6050 N.am  323  TYR323     -0.1963
     58  CA        -4.1110    4.9770   30.9100 C.3   323  TYR323      0.1771
     59  C         -3.9870    5.9840   32.0430 C.2   323  TYR323      0.2620
     60  O         -3.6460    5.6210   33.1750 O.2   323  TYR323     -0.2715
     61  CB        -3.0560    3.8800   31.0620 C.3   323  TYR323      0.0574
     62  CG        -3.0510    2.9400   29.8910 C.ar  323  TYR323     -0.0198
     63  CD1       -4.1060    2.0560   29.6840 C.ar  323  TYR323     -0.0009
     64  CD2       -2.0110    2.9520   28.9680 C.ar  323  TYR323     -0.0009
     65  CE1       -4.1240    1.2010   28.6010 C.ar  323  TYR323      0.0417
     66  CE2       -2.0180    2.1000   27.8780 C.ar  323  TYR323      0.0417
     67  CZ        -3.0740    1.2260   27.7010 C.ar  323  TYR323      0.1957
     68  OH        -3.0750    0.3830   26.6220 O.3   323  TYR323     -0.2866
     69  N         -4.2720    7.2480   31.7410 N.am  324  GLY324     -0.1940
     70  CA        -4.1340    8.3210   32.7110 C.3   324  GLY324      0.2014
     71  C         -2.6860    8.6390   33.0180 C.2   324  GLY324      0.2638
     72  O         -1.7710    8.2290   32.2930 O.2   324  GLY324     -0.2714
     73  N         -2.4920    9.3820   34.1040 N.am  325  ARG325     -0.1977
     74  CA        -1.1620    9.7860   34.5600 C.3   325  ARG325      0.1597
     75  C         -0.9230    9.3720   36.0010 C.2   325  ARG325      0.2287
     76  O         -1.8420    9.3420   36.8190 O.2   325  ARG325     -0.2864
     77  CB        -1.0090   11.2880   34.4170 C.3   325  ARG325      0.0334
     78  CG        -1.2740   11.7280   32.9950 C.3   325  ARG325      0.0492
     79  CD        -1.4080   13.2150   32.8820 C.3   325  ARG325      0.2205
     80  NE        -0.1040   13.8500   32.7760 N.pl3 325  ARG325     -0.0865
     81  CZ         0.1010   15.0590   32.2610 C.cat 325  ARG325      0.5346
     82  NH1        1.3350   15.5490   32.2090 N.pl3 325  ARG325      0.1354
     83  NH2       -0.9170   15.7840   31.7910 N.pl3 325  ARG325      0.1354
@<TRIPOS>BOND
     1     1     2    1
     2     3     2    1
     3     3     4    2
     4     5     2    1
     5     5     6    1
     6     6     7    1
     7    16    15    1
     8    16    10    1
     9     7     8    1
    10    15    14    1
    11    14    11    1
    12    54    55    1
    13    54    51    1
    14    55    56    1
    15    10    11    1
    16    56    50    1
    17    68    67    1
    18    11    12    1
    19     8     9    1
    20    51    50    1
    21    51    52    1
    22    67    66   ar
    23    67    65   ar
    24    66    64   ar
    25    12    13    2
    26    12    17   am
    27    65    63   ar
    28    52    53    2
    29    52    57   am
    30    64    62   ar
    31    17    18    1
    32    57    58    1
    33    63    62   ar
    34    62    61    1
    35    18    21    1
    36    18    19    1
    37    31    30    1
    38    31    25    1
    39    58    61    1
    40    58    59    1
    41    21    22    1
    42    30    29    1
    43    25    19   am
    44    25    26    1
    45    29    26    1
    46    19    20    2
    47    24    22   am
    48    69    59   am
    49    69    70    1
    50    26    27    1
    51    83    81    1
    52    59    60    2
    53    22    23    2
    54    82    81    1
    55    81    80    2
    56    72    71    2
    57    42    41    2
    58    70    71    1
    59    80    79    1
    60    79    78    1
    61    40    39    1
    62    40    41    1
    63    40    43    1
    64    78    77    1
    65    71    73   am
    66    27    28    2
    67    44    43    1
    68    44    45    1
    69    73    74    1
    70    77    74    1
    71    74    75    1
    72    45    46    1
    73    46    47    2
    74    49    47    1
    75    47    48    1
    76    75    76    2
    77    35    34    2
    78    34    33    1
    79    32    33    1
    80    33    36    1
    81    36    38    1
    82    36    37    1
