@<TRIPOS>MOLECULE
tmp/6ekzA09.pdb
 166 163 0 0 0
SMALL
GASTEIGER

@<TRIPOS>ATOM
      1  N         21.6350    6.7070   12.3090 N.3    67  PHE67      -0.1227
      2  CA        20.1990    7.0280   12.3520 C.3    67  PHE67       0.1736
      3  C         20.0230    8.1420   13.3800 C.2    67  PHE67       0.2595
      4  O         20.6520    8.1010   14.4410 O.2    67  PHE67      -0.2718
      5  CB        19.4000    5.7890   12.7670 C.3    67  PHE67       0.0547
      6  CG        17.9870    5.7220   12.2330 C.ar   67  PHE67      -0.0202
      7  CD1       17.7380    5.6790   10.8680 C.ar   67  PHE67      -0.0042
      8  CD2       16.9090    5.5930   13.1040 C.ar   67  PHE67      -0.0042
      9  CE1       16.4410    5.5520   10.3820 C.ar   67  PHE67      -0.0003
     10  CE2       15.6110    5.4650   12.6270 C.ar   67  PHE67      -0.0003
     11  CZ        15.3750    5.4430   11.2620 C.ar   67  PHE67      -0.0000
     12  N         19.2060    9.1460   13.0830 N.am   68  ASP68      -0.1974
     13  CA        19.0730   10.2620   14.0270 C.3    68  ASP68       0.1709
     14  C         18.2510    9.8520   15.2540 C.2    68  ASP68       0.2293
     15  O         17.4310    8.9290   15.2040 O.2    68  ASP68      -0.2864
     16  CB        18.5270   11.5240   13.3700 C.3    68  ASP68       0.1436
     17  CG        17.1050   11.3870   12.9660 C.2    68  ASP68       0.3671
     18  OD1       16.2140   11.7600   13.7570 O.co2  68  ASP68      -0.2456
     19  OD2       16.8850   10.8920   11.8490 O.co2  68  ASP68      -0.2456
     20  N         15.8750   11.2720   17.2350 N.3    70  GLN70      -0.1231
     21  CA        14.4250   11.3650   17.3190 C.3    70  GLN70       0.1698
     22  C         13.7500   10.2190   16.5330 C.2    70  GLN70       0.2592
     23  O         12.8290    9.6170   16.9960 O.2    70  GLN70      -0.2718
     24  CB        13.9790   12.7180   16.7890 C.3    70  GLN70       0.0381
     25  CG        12.5750   13.0720   17.1200 C.3    70  GLN70       0.0905
     26  CD        12.2130   14.4370   16.5570 C.2    70  GLN70       0.2608
     27  OE1       11.5830   14.5220   15.5560 O.2    70  GLN70      -0.2717
     28  NE2       12.6630   15.4540   17.1610 N.am   70  GLN70      -0.0878
     29  N         14.2450    9.9570   15.3280 N.am   71  ALA71      -0.1980
     30  CA        13.6930    8.8630   14.5330 C.3    71  ALA71       0.1597
     31  C         13.9210    7.5060   15.2300 C.2    71  ALA71       0.2287
     32  O         13.0800    6.6320   15.2410 O.2    71  ALA71      -0.2864
     33  CB        14.2810    8.8640   13.1300 C.3    71  ALA71       0.0319
     34  N         11.3850    7.2370   18.1540 N.3    74  PHE74      -0.1227
     35  CA        10.0100    6.9770   17.7630 C.3    74  PHE74       0.1736
     36  C          9.8290    5.5660   17.2080 C.2    74  PHE74       0.2595
     37  O          8.9100    4.8540   17.6180 O.2    74  PHE74      -0.2718
     38  CB         9.4460    7.9760   16.7640 C.3    74  PHE74       0.0547
     39  CG         7.9590    7.8350   16.6130 C.ar   74  PHE74      -0.0202
     40  CD1        7.1140    8.4220   17.5440 C.ar   74  PHE74      -0.0042
     41  CD2        7.4020    7.0290   15.6180 C.ar   74  PHE74      -0.0042
     42  CE1        5.7360    8.2690   17.4520 C.ar   74  PHE74      -0.0003
     43  CE2        6.0230    6.8740   15.5200 C.ar   74  PHE74      -0.0003
     44  CZ         5.1900    7.4910   16.4410 C.ar   74  PHE74      -0.0000
     45  N         10.6950    5.1660   16.2800 N.am   75  ALA75      -0.1980
     46  CA        10.5530    3.8530   15.6520 C.3    75  ALA75       0.1597
     47  C         10.6970    2.7310   16.6690 C.2    75  ALA75       0.2287
     48  O          9.9180    1.7800   16.6660 O.2    75  ALA75      -0.2864
     49  CB        11.5640    3.6740   14.5320 C.3    75  ALA75       0.0319
     50  N          3.5280   -2.8990   13.0990 N.3   119  PHE119     -0.1241
     51  CA         4.5560   -2.0460   12.4870 C.3   119  PHE119      0.1605
     52  C          4.7410   -2.5020   11.0370 C.2   119  PHE119      0.2264
     53  O          4.5580   -1.7130   10.1020 O.2   119  PHE119     -0.2867
     54  CB         5.8600   -2.1320   13.2970 C.3   119  PHE119      0.0534
     55  CG         6.8610   -1.0330   13.0060 C.ar  119  PHE119     -0.0203
     56  CD1        7.3250   -0.7980   11.7180 C.ar  119  PHE119     -0.0042
     57  CD2        7.3850   -0.2630   14.0440 C.ar  119  PHE119     -0.0042
     58  CE1        8.2560    0.1820   11.4690 C.ar  119  PHE119     -0.0003
     59  CE2        8.3210    0.7270   13.7930 C.ar  119  PHE119     -0.0003
     60  CZ         8.7580    0.9540   12.5030 C.ar  119  PHE119     -0.0000
     61  N         -0.0170    4.4490   10.3780 N.3   186  PHE186     -0.1241
     62  CA         1.4100    4.2860   10.6110 C.3   186  PHE186      0.1605
     63  C          2.1310    3.6720    9.4100 C.2   186  PHE186      0.2264
     64  O          3.2260    4.1110    9.0610 O.2   186  PHE186     -0.2867
     65  CB         1.6260    3.4610   11.8810 C.3   186  PHE186      0.0534
     66  CG         3.0600    3.3710   12.3370 C.ar  186  PHE186     -0.0203
     67  CD1        3.8940    4.4880   12.3830 C.ar  186  PHE186     -0.0042
     68  CD2        3.5670    2.1560   12.7650 C.ar  186  PHE186     -0.0042
     69  CE1        5.2070    4.3790   12.8200 C.ar  186  PHE186     -0.0003
     70  CE2        4.8750    2.0440   13.2010 C.ar  186  PHE186     -0.0003
     71  CZ         5.6950    3.1550   13.2370 C.ar  186  PHE186     -0.0000
     72  N          2.8890    6.1400    6.6230 N.3   189  PHE189     -0.1227
     73  CA         4.0960    6.9080    6.9220 C.3   189  PHE189      0.1736
     74  C          5.3760    6.1030    6.7050 C.2   189  PHE189      0.2596
     75  O          6.2670    6.5460    5.9770 O.2   189  PHE189     -0.2718
     76  CB         4.0760    7.4340    8.3560 C.3   189  PHE189      0.0547
     77  CG         3.2850    8.7000    8.5340 C.ar  189  PHE189     -0.0202
     78  CD1        1.9070    8.7160    8.3570 C.ar  189  PHE189     -0.0042
     79  CD2        3.9180    9.8800    8.9190 C.ar  189  PHE189     -0.0042
     80  CE1        1.1790    9.8880    8.5440 C.ar  189  PHE189     -0.0003
     81  CE2        3.1980   11.0520    9.1010 C.ar  189  PHE189     -0.0003
     82  CZ         1.8280   11.0570    8.9110 C.ar  189  PHE189     -0.0000
     83  N          5.4710    4.9330    7.3320 N.am  190  THR190     -0.1953
     84  CA         6.7120    4.1520    7.2720 C.3   190  THR190      0.1897
     85  C          7.0310    3.6600    5.8720 C.2   190  THR190      0.2313
     86  O          8.2040    3.5950    5.5020 O.2   190  THR190     -0.2863
     87  CB         6.7330    2.9570    8.2400 C.3   190  THR190      0.1794
     88  OG1        5.6650    2.0530    7.9320 O.3   190  THR190     -0.2208
     89  CG2        6.6310    3.4260    9.6750 C.3   190  THR190      0.0378
     90  N          8.9010    6.6180    4.2720 N.3   193  GLY193     -0.1210
     91  CA        10.1940    6.8720    4.8970 C.3   193  GLY193      0.1956
     92  C         11.2250    5.7970    4.6050 C.2   193  GLY193      0.2611
     93  O         12.3730    6.1000    4.2800 O.2   193  GLY193     -0.2717
     94  N         10.8140    4.5370    4.6910 N.am  194  GLU194     -0.1979
     95  CA        11.7400    3.4250    4.4840 C.3   194  GLU194      0.1602
     96  C         12.3800    3.4130    3.1110 C.2   194  GLU194      0.2287
     97  O         13.5120    2.9530    2.9740 O.2   194  GLU194     -0.2864
     98  CB        11.0440    2.0940    4.7220 C.3   194  GLU194      0.0415
     99  CG        10.7670    1.8420    6.1840 C.3   194  GLU194      0.1163
    100  CD         9.6270    0.8680    6.4420 C.2   194  GLU194      0.3649
    101  OE1        9.0890    0.2680    5.4920 O.co2 194  GLU194     -0.2457
    102  OE2        9.2480    0.7000    7.6220 O.co2 194  GLU194     -0.2457
    103  N         15.6950    5.2540    3.1760 N.3   197  PHE197     -0.1241
    104  CA        16.7810    4.7590    4.0220 C.3   197  PHE197      0.1605
    105  C         17.9610    4.1450    3.2550 C.2   197  PHE197      0.2264
    106  O         19.1060    4.3710    3.6350 O.2   197  PHE197     -0.2867
    107  CB        16.2660    3.7750    5.0820 C.3   197  PHE197      0.0534
    108  CG        15.2850    4.3630    6.0810 C.ar  197  PHE197     -0.0203
    109  CD1       15.0910    5.7450    6.2540 C.ar  197  PHE197     -0.0042
    110  CD2       14.5730    3.4970    6.8980 C.ar  197  PHE197     -0.0042
    111  CE1       14.1840    6.2190    7.1970 C.ar  197  PHE197     -0.0003
    112  CE2       13.6740    3.9700    7.8330 C.ar  197  PHE197     -0.0003
    113  CZ        13.4790    5.3280    7.9850 C.ar  197  PHE197     -0.0000
    114  N         23.8160   12.5520   11.5030 N.3   236  PRO236     -0.2102
    115  CA        22.5950   11.8190   11.8260 C.3   236  PRO236      0.1504
    116  C         21.4860   12.1240   10.8250 C.2   236  PRO236      0.2576
    117  O         21.2550   13.2890   10.5070 O.2   236  PRO236     -0.2718
    118  CB        22.2290   12.3370   13.2260 C.3   236  PRO236      0.0282
    119  CG        23.4930   12.9300   13.7590 C.3   236  PRO236      0.0208
    120  CD        24.1500   13.5260   12.5560 C.3   236  PRO236      0.0893
    121  N         20.8090   11.0910   10.3320 N.am  237  ARG237     -0.1966
    122  CA        19.6620   11.2870    9.4430 C.3   237  ARG237      0.1729
    123  C         18.7670   10.0650    9.4610 C.2   237  ARG237      0.2617
    124  O         19.1360    9.0180    9.9850 O.2   237  ARG237     -0.2715
    125  CB        20.0960   11.6160    7.9990 C.3   237  ARG237      0.0348
    126  CG        20.6020   10.4440    7.1470 C.3   237  ARG237      0.0492
    127  CD        22.0210   10.0170    7.4930 C.3   237  ARG237      0.2205
    128  NE        22.9750   11.0890    7.2190 N.pl3 237  ARG237     -0.0865
    129  CZ        23.5010   11.3770    6.0280 C.cat 237  ARG237      0.5346
    130  NH1       24.3500   12.3970    5.9220 N.pl3 237  ARG237      0.1354
    131  NH2       23.2020   10.6620    4.9410 N.pl3 237  ARG237      0.1354
    132  N         17.5830   10.2170    8.8850 N.am  238  SER238     -0.1936
    133  CA        16.6740    9.0920    8.6810 C.3   238  SER238      0.2055
    134  C         15.9850    9.2440    7.3360 C.2   238  SER238      0.2644
    135  O         16.4690    8.7330    6.3350 O.2   238  SER238     -0.2714
    136  CB        15.6660    8.9500    9.8330 C.3   238  SER238      0.2130
    137  OG        15.1060   10.1900   10.1910 O.3   238  SER238     -0.2179
    138  N         14.9060   10.0100    7.3090 N.am  239  GLY239     -0.1939
    139  CA        13.9790   10.0410    6.1770 C.3   239  GLY239      0.2014
    140  C         14.0620   11.2700    5.3020 C.2   239  GLY239      0.2639
    141  O         13.1170   11.5730    4.5770 O.2   239  GLY239     -0.2714
    142  N         15.1760   11.9880    5.3480 N.am  240  THR240     -0.1950
    143  CA        15.3150   13.1650    4.4940 C.3   240  THR240      0.1897
    144  C         15.2300   12.7580    3.0120 C.2   240  THR240      0.2313
    145  O         15.7360   11.7070    2.6020 O.2   240  THR240     -0.2863
    146  CB        16.5630   14.0060    4.8340 C.3   240  THR240      0.1794
    147  OG1       16.6340   15.1420    3.9620 O.3   240  THR240     -0.2208
    148  CG2       17.8300   13.2070    4.7260 C.3   240  THR240      0.0378
    149  N         12.1830   12.2410    1.6850 N.3   242  VAL242     -0.1245
    150  CA        10.8890   11.5900    1.5320 C.3   242  VAL242      0.1561
    151  C          9.9360   12.4260    0.6640 C.2   242  VAL242      0.2260
    152  O          9.0900   11.8740   -0.0410 O.2   242  VAL242     -0.2867
    153  CB        10.2740   11.2220    2.9030 C.3   242  VAL242      0.0252
    154  CG1        9.8580   12.4570    3.6990 C.3   242  VAL242      0.0019
    155  CG2        9.1230   10.2460    2.7270 C.3   242  VAL242      0.0019
    156  N          0.1260   12.8750    5.4890 N.3   272  PHE272     -0.1241
    157  CA         1.2510   13.7810    5.7580 C.3   272  PHE272      0.1605
    158  C          0.8480   15.1930    6.1780 C.2   272  PHE272      0.2264
    159  O          1.6800   15.9350    6.7020 O.2   272  PHE272     -0.2867
    160  CB         2.2340   13.8010    4.5900 C.3   272  PHE272      0.0534
    161  CG         2.9440   12.4950    4.4030 C.ar  272  PHE272     -0.0203
    162  CD1        3.6660   11.9260    5.4560 C.ar  272  PHE272     -0.0042
    163  CD2        2.8840   11.8190    3.1880 C.ar  272  PHE272     -0.0042
    164  CE1        4.3110   10.7090    5.2990 C.ar  272  PHE272     -0.0003
    165  CE2        3.5290   10.6000    3.0260 C.ar  272  PHE272     -0.0003
    166  CZ         4.2460   10.0490    4.0800 C.ar  272  PHE272     -0.0000
@<TRIPOS>BOND
     1   152   151    2
     2   151   150    1
     3   150   149    1
     4   150   153    1
     5   145   144    2
     6   155   153    1
     7   153   154    1
     8    97    96    2
     9   144   143    1
    10   165   163   ar
    11   165   166   ar
    12    96    95    1
    13   103   104    1
    14   163   161   ar
    15   105   106    2
    16   105   104    1
    17   147   146    1
    18   104   107    1
    19   166   164   ar
    20    90    91    1
    21    93    92    2
    22   161   160    1
    23   161   162   ar
    24    95    94    1
    25    95    98    1
    26   143   146    1
    27   143   142    1
    28   141   140    2
    29   160   157    1
    30    92    94   am
    31    92    91    1
    32    98    99    1
    33   148   146    1
    34   131   129    1
    35   107   108    1
    36   164   162   ar
    37   140   142   am
    38   140   139    1
    39   156   157    1
    40   101   100   ar
    41    86    85    2
    42   157   158    1
    43    85    84    1
    44   130   129    1
    45    75    74    2
    46   129   128    2
    47   108   109   ar
    48   108   110   ar
    49   139   138    1
    50   158   159    2
    51    99   100    1
    52   109   111   ar
    53   135   134    2
    54   100   102   ar
    55    72    73    1
    56    74    73    1
    57    74    83   am
    58   110   112   ar
    59    73    76    1
    60   126   127    1
    61   126   125    1
    62   111   113   ar
    63   128   127    1
    64    84    83    1
    65    84    87    1
    66   138   134   am
    67   134   133    1
    68   112   113   ar
    69    88    87    1
    70   125   122    1
    71    87    89    1
    72    76    77    1
    73    78    77   ar
    74    78    80   ar
    75    77    79   ar
    76    80    82   ar
    77   133   132    1
    78   133   136    1
    79   132   123   am
    80    82    81   ar
    81    79    81   ar
    82    64    63    2
    83    63    62    1
    84   122   123    1
    85   122   121    1
    86   123   124    2
    87   136   137    1
    88    53    52    2
    89   121   116   am
    90    61    62    1
    91     9     7   ar
    92     9    11   ar
    93   117   116    2
    94    62    65    1
    95   116   115    1
    96     7     6   ar
    97    52    51    1
    98    11    10   ar
    99    58    56   ar
   100    58    60   ar
   101   114   115    1
   102   114   120    1
   103    56    55   ar
   104   115   118    1
   105    19    17   ar
   106    65    66    1
   107     6     5    1
   108     6     8   ar
   109     1     2    1
   110    66    67   ar
   111    66    68   ar
   112     2     5    1
   113     2     3    1
   114    67    69   ar
   115    51    50    1
   116    51    54    1
   117    60    59   ar
   118   120   119    1
   119    10     8   ar
   120    68    70   ar
   121    69    71   ar
   122    17    16    1
   123    17    18   ar
   124    55    54    1
   125    55    57   ar
   126    12     3   am
   127    12    13    1
   128    33    30    1
   129    70    71   ar
   130   118   119    1
   131    16    13    1
   132     3     4    2
   133    59    57   ar
   134    13    14    1
   135    49    46    1
   136    30    31    1
   137    30    29    1
   138    15    14    2
   139    31    32    2
   140    29    22   am
   141    43    41   ar
   142    43    44   ar
   143    27    26    2
   144    41    39   ar
   145    46    45    1
   146    46    47    1
   147    45    36   am
   148    44    42   ar
   149    22    23    2
   150    22    21    1
   151    26    25    1
   152    26    28   am
   153    39    38    1
   154    39    40   ar
   155    48    47    2
   156    38    35    1
   157    24    25    1
   158    24    21    1
   159    36    37    2
   160    36    35    1
   161    20    21    1
   162    42    40   ar
   163    35    34    1
