@<TRIPOS>MOLECULE
tmp/6ekzA00.pdb
 123 119 0 0 0
SMALL
GASTEIGER

@<TRIPOS>ATOM
      1  N         11.3850    7.2370   18.1540 N.3    74  PHE74      -0.1241
      2  CA        10.0100    6.9770   17.7630 C.3    74  PHE74       0.1605
      3  C          9.8290    5.5660   17.2080 C.2    74  PHE74       0.2264
      4  O          8.9100    4.8540   17.6180 O.2    74  PHE74      -0.2867
      5  CB         9.4460    7.9760   16.7640 C.3    74  PHE74       0.0534
      6  CG         7.9590    7.8350   16.6130 C.ar   74  PHE74      -0.0203
      7  CD1        7.1140    8.4220   17.5440 C.ar   74  PHE74      -0.0042
      8  CD2        7.4020    7.0290   15.6180 C.ar   74  PHE74      -0.0042
      9  CE1        5.7360    8.2690   17.4520 C.ar   74  PHE74      -0.0003
     10  CE2        6.0230    6.8740   15.5200 C.ar   74  PHE74      -0.0003
     11  CZ         5.1900    7.4910   16.4410 C.ar   74  PHE74      -0.0000
     12  N         -0.0170    4.4490   10.3780 N.3   186  PHE186     -0.1241
     13  CA         1.4100    4.2860   10.6110 C.3   186  PHE186      0.1605
     14  C          2.1310    3.6720    9.4100 C.2   186  PHE186      0.2264
     15  O          3.2260    4.1110    9.0610 O.2   186  PHE186     -0.2867
     16  CB         1.6260    3.4610   11.8810 C.3   186  PHE186      0.0534
     17  CG         3.0600    3.3710   12.3370 C.ar  186  PHE186     -0.0203
     18  CD1        3.8940    4.4880   12.3830 C.ar  186  PHE186     -0.0042
     19  CD2        3.5670    2.1560   12.7650 C.ar  186  PHE186     -0.0042
     20  CE1        5.2070    4.3790   12.8200 C.ar  186  PHE186     -0.0003
     21  CE2        4.8750    2.0440   13.2010 C.ar  186  PHE186     -0.0003
     22  CZ         5.6950    3.1550   13.2370 C.ar  186  PHE186     -0.0000
     23  N          2.8890    6.1400    6.6230 N.3   189  PHE189     -0.1227
     24  CA         4.0960    6.9080    6.9220 C.3   189  PHE189      0.1736
     25  C          5.3760    6.1030    6.7050 C.2   189  PHE189      0.2596
     26  O          6.2670    6.5460    5.9770 O.2   189  PHE189     -0.2718
     27  CB         4.0760    7.4340    8.3560 C.3   189  PHE189      0.0547
     28  CG         3.2850    8.7000    8.5340 C.ar  189  PHE189     -0.0202
     29  CD1        1.9070    8.7160    8.3570 C.ar  189  PHE189     -0.0042
     30  CD2        3.9180    9.8800    8.9190 C.ar  189  PHE189     -0.0042
     31  CE1        1.1790    9.8880    8.5440 C.ar  189  PHE189     -0.0003
     32  CE2        3.1980   11.0520    9.1010 C.ar  189  PHE189     -0.0003
     33  CZ         1.8280   11.0570    8.9110 C.ar  189  PHE189     -0.0000
     34  N          5.4710    4.9330    7.3320 N.am  190  THR190     -0.1953
     35  CA         6.7120    4.1520    7.2720 C.3   190  THR190      0.1897
     36  C          7.0310    3.6600    5.8720 C.2   190  THR190      0.2313
     37  O          8.2040    3.5950    5.5020 O.2   190  THR190     -0.2863
     38  CB         6.7330    2.9570    8.2400 C.3   190  THR190      0.1794
     39  OG1        5.6650    2.0530    7.9320 O.3   190  THR190     -0.2208
     40  CG2        6.6310    3.4260    9.6750 C.3   190  THR190      0.0378
     41  N         12.1830   12.2410    1.6850 N.3   242  VAL242     -0.1231
     42  CA        10.8890   11.5900    1.5320 C.3   242  VAL242      0.1692
     43  C          9.9360   12.4260    0.6640 C.2   242  VAL242      0.2591
     44  O          9.0900   11.8740   -0.0410 O.2   242  VAL242     -0.2718
     45  CB        10.2740   11.2220    2.9030 C.3   242  VAL242      0.0266
     46  CG1        9.8580   12.4570    3.6990 C.3   242  VAL242      0.0020
     47  CG2        9.1230   10.2460    2.7270 C.3   242  VAL242      0.0020
     48  N         10.1020   13.7470    0.6860 N.am  243  GLU243     -0.1979
     49  CA         9.3160   14.6250   -0.1800 C.3   243  GLU243      0.1602
     50  C          9.4510   14.2900   -1.6710 C.2   243  GLU243      0.2287
     51  O          8.4810   14.3960   -2.4080 O.2   243  GLU243     -0.2864
     52  CB         9.6250   16.1050    0.0880 C.3   243  GLU243      0.0415
     53  CG        10.9880   16.6100   -0.3610 C.3   243  GLU243      0.1163
     54  CD        12.1550   16.1880    0.5160 C.2   243  GLU243      0.3649
     55  OE1       11.9500   15.5940    1.6060 O.co2 243  GLU243     -0.2457
     56  OE2       13.3030   16.4650    0.1020 O.co2 243  GLU243     -0.2457
     57  N          7.2740   11.0600   -2.2930 N.3   246  VAL246     -0.1245
     58  CA         5.8470   11.3980   -2.3230 C.3   246  VAL246      0.1561
     59  C          5.4760   12.1720   -3.5890 C.2   246  VAL246      0.2260
     60  O          4.4890   11.8420   -4.2590 O.2   246  VAL246     -0.2867
     61  CB         5.4450   12.2340   -1.0920 C.3   246  VAL246      0.0252
     62  CG1        4.0140   12.7570   -1.2160 C.3   246  VAL246      0.0019
     63  CG2        5.6040   11.4130    0.1790 C.3   246  VAL246      0.0019
     64  N          0.1260   12.8750    5.4890 N.3   272  PHE272     -0.1241
     65  CA         1.2510   13.7810    5.7580 C.3   272  PHE272      0.1605
     66  C          0.8480   15.1930    6.1780 C.2   272  PHE272      0.2264
     67  O          1.6800   15.9350    6.7020 O.2   272  PHE272     -0.2867
     68  CB         2.2340   13.8010    4.5900 C.3   272  PHE272      0.0534
     69  CG         2.9440   12.4950    4.4030 C.ar  272  PHE272     -0.0203
     70  CD1        3.6660   11.9260    5.4560 C.ar  272  PHE272     -0.0042
     71  CD2        2.8840   11.8190    3.1880 C.ar  272  PHE272     -0.0042
     72  CE1        4.3110   10.7090    5.2990 C.ar  272  PHE272     -0.0003
     73  CE2        3.5290   10.6000    3.0260 C.ar  272  PHE272     -0.0003
     74  CZ         4.2460   10.0490    4.0800 C.ar  272  PHE272     -0.0000
     75  N          0.4070   14.8230   10.8550 N.3   275  PRO275     -0.2116
     76  CA         1.3410   13.9450   11.5650 C.3   275  PRO275      0.1372
     77  C          0.9930   13.6950   13.0320 C.2   275  PRO275      0.2244
     78  O          1.2130   12.5860   13.5210 O.2   275  PRO275     -0.2868
     79  CB         2.6770   14.6820   11.4440 C.3   275  PRO275      0.0268
     80  CG         2.3210   16.0990   11.1830 C.3   275  PRO275      0.0207
     81  CD         1.0730   16.0400   10.3580 C.3   275  PRO275      0.0892
     82  N         -1.4520   10.8360   13.3750 N.3   278  MET278     -0.1230
     83  CA        -0.8070    9.5310   13.2590 C.3   278  MET278      0.1702
     84  C         -0.3300    9.0350   14.6260 C.2   278  MET278      0.2592
     85  O         -0.5870    7.8870   14.9980 O.2   278  MET278     -0.2718
     86  CB         0.3560    9.5940   12.2680 C.3   278  MET278      0.0401
     87  CG         0.9590    8.2370   11.9490 C.3   278  MET278      0.0596
     88  SD         2.1420    7.6420   13.1680 S.3   278  MET278     -0.1393
     89  CE         3.5580    8.6590   12.7470 C.3   278  MET278      0.0692
     90  N          0.3310    9.9140   15.3760 N.am  279  TYR279     -0.1976
     91  CA         0.7680    9.6020   16.7420 C.3   279  TYR279      0.1639
     92  C         -0.4230    9.3030   17.6660 C.2   279  TYR279      0.2290
     93  O         -0.4220    8.2990   18.3800 O.2   279  TYR279     -0.2864
     94  CB         1.6270   10.7450   17.3130 C.3   279  TYR279      0.0560
     95  CG         1.6380   10.7880   18.8230 C.ar  279  TYR279     -0.0198
     96  CD1        2.2760    9.7920   19.5670 C.ar  279  TYR279     -0.0009
     97  CD2        0.9770   11.8040   19.5100 C.ar  279  TYR279     -0.0009
     98  CE1        2.2630    9.8160   20.9540 C.ar  279  TYR279      0.0417
     99  CE2        0.9600   11.8350   20.8940 C.ar  279  TYR279      0.0417
    100  CZ         1.5990   10.8440   21.6120 C.ar  279  TYR279      0.1957
    101  OH         1.5720   10.8930   22.9840 O.3   279  TYR279     -0.2866
    102  N         10.1660   11.0490   20.8160 N.3   312  GLY312     -0.1210
    103  CA        10.4500   10.9560   19.3870 C.3   312  GLY312      0.1956
    104  C          9.4360   11.6160   18.4690 C.2   312  GLY312      0.2612
    105  O          9.5900   11.5610   17.2490 O.2   312  GLY312     -0.2717
    106  N          8.4050   12.2390   19.0360 N.am  313  VAL313     -0.1965
    107  CA         7.3450   12.8540   18.2440 C.3   313  VAL313      0.1727
    108  C          7.7910   14.2590   17.8570 C.2   313  VAL313      0.2616
    109  O          8.3890   14.9680   18.6700 O.2   313  VAL313     -0.2715
    110  CB         6.0070   12.8550   19.0210 C.3   313  VAL313      0.0290
    111  CG1        4.9260   13.6610   18.3080 C.3   313  VAL313      0.0023
    112  CG2        5.5320   11.4240   19.2100 C.3   313  VAL313      0.0023
    113  N          7.5080   14.6450   16.6140 N.am  314  ALA314     -0.1977
    114  CA         7.8580   15.9760   16.1100 C.3   314  ALA314      0.1597
    115  C          7.2960   17.0580   17.0250 C.2   314  ALA314      0.2287
    116  O          6.1570   16.9470   17.4860 O.2   314  ALA314     -0.2864
    117  CB         7.3240   16.1640   14.6990 C.3   314  ALA314      0.0319
    118  N          3.2070   18.5490   18.6820 N.3   317  CYS317     -0.1235
    119  CA         2.1300   17.6350   19.0500 C.3   317  CYS317      0.1677
    120  C          1.9220   17.6300   20.5630 C.2   317  CYS317      0.2270
    121  O          2.8330   17.9290   21.3380 O.2   317  CYS317     -0.2867
    122  CB         2.4080   16.2160   18.5440 C.3   317  CYS317      0.0956
    123  SG         2.6270   16.0450   16.7500 S.3   317  CYS317     -0.0801
@<TRIPOS>BOND
     1    60    59    2
     2    59    58    1
     3    51    50    2
     4    58    57    1
     5    58    61    1
     6    50    49    1
     7    62    61    1
     8    61    63    1
     9    53    52    1
    10    53    54    1
    11    49    52    1
    12    49    48    1
    13    44    43    2
    14    56    54   ar
    15    54    55   ar
    16    43    48   am
    17    43    42    1
    18    42    41    1
    19    42    45    1
    20    47    45    1
    21    45    46    1
    22    73    71   ar
    23    73    74   ar
    24    71    69   ar
    25    74    72   ar
    26    69    68    1
    27    69    70   ar
    28    68    65    1
    29    72    70   ar
    30    64    65    1
    31    37    36    2
    32    65    66    1
    33    36    35    1
    34    26    25    2
    35    66    67    2
    36    23    24    1
    37    25    24    1
    38    25    34   am
    39    24    27    1
    40    35    34    1
    41    35    38    1
    42    39    38    1
    43    38    40    1
    44    27    28    1
    45    29    28   ar
    46    29    31   ar
    47    28    30   ar
    48    31    33   ar
    49    33    32   ar
    50    30    32   ar
    51    15    14    2
    52    14    13    1
    53    81    75    1
    54    81    80    1
    55    12    13    1
    56    13    16    1
    57    75    76    1
    58    80    79    1
    59    79    76    1
    60    76    77    1
    61    16    17    1
    62    87    86    1
    63    87    88    1
    64    86    83    1
    65    17    18   ar
    66    17    19   ar
    67    18    20   ar
    68    89    88    1
    69    19    21   ar
    70    20    22   ar
    71    77    78    2
    72    21    22   ar
    73    83    82    1
    74    83    84    1
    75    84    85    2
    76    84    90   am
    77   117   114    1
    78    90    91    1
    79    10     8   ar
    80    10    11   ar
    81     8     6   ar
    82   114   113    1
    83   114   115    1
    84    11     9   ar
    85     6     5    1
    86     6     7   ar
    87   113   108   am
    88    91    94    1
    89    91    92    1
    90   123   122    1
    91     5     2    1
    92   115   116    2
    93     3     4    2
    94     3     2    1
    95   105   104    2
    96    94    95    1
    97     9     7   ar
    98    92    93    2
    99     2     1    1
   100   108   107    1
   101   108   109    2
   102   107   110    1
   103   107   106    1
   104   111   110    1
   105   104   106   am
   106   104   103    1
   107   122   119    1
   108   118   119    1
   109    95    97   ar
   110    95    96   ar
   111   110   112    1
   112   119   120    1
   113   103   102    1
   114    97    99   ar
   115    96    98   ar
   116   120   121    2
   117    99   100   ar
   118    98   100   ar
   119   100   101    1
