@<TRIPOS>MOLECULE
tmp/6el0A06.pdb
 91 87 0 0 0
SMALL
GASTEIGER

@<TRIPOS>ATOM
      1  N         13.4350   -5.9160    8.6920 N.3    33  CYS33      -0.1235
      2  CA        14.2510   -4.7060    8.6330 C.3    33  CYS33       0.1677
      3  C         15.7020   -5.0150    8.3100 C.2    33  CYS33       0.2270
      4  O         16.4050   -5.5820    9.1510 O.2    33  CYS33      -0.2867
      5  CB        14.2020   -3.9570    9.9550 C.3    33  CYS33       0.0956
      6  SG        15.2870   -2.5080    9.9370 S.3    33  CYS33      -0.0801
      7  N         21.7780    6.7880   12.2820 N.3    66  PHE66      -0.1241
      8  CA        20.3450    7.0840   12.3030 C.3    66  PHE66       0.1605
      9  C         20.1700    8.1960   13.3320 C.2    66  PHE66       0.2264
     10  O         20.8210    8.1840   14.3820 O.2    66  PHE66      -0.2867
     11  CB        19.5550    5.8360   12.7090 C.3    66  PHE66       0.0534
     12  CG        18.1400    5.7700   12.1930 C.ar   66  PHE66      -0.0203
     13  CD1       17.8750    5.6630   10.8320 C.ar   66  PHE66      -0.0042
     14  CD2       17.0710    5.7140   13.0740 C.ar   66  PHE66      -0.0042
     15  CE1       16.5720    5.5380   10.3650 C.ar   66  PHE66      -0.0003
     16  CE2       15.7640    5.5940   12.6160 C.ar   66  PHE66      -0.0003
     17  CZ        15.5140    5.5020   11.2580 C.ar   66  PHE66      -0.0000
     18  N         14.3180   10.0590   15.3050 N.3    70  ALA70      -0.1245
     19  CA        13.7670    8.9610   14.5090 C.3    70  ALA70       0.1562
     20  C         13.9930    7.6060   15.1820 C.2    70  ALA70       0.2260
     21  O         13.1060    6.7540   15.1690 O.2    70  ALA70      -0.2867
     22  CB        14.3600    8.9580   13.1120 C.3    70  ALA70       0.0290
     23  N         11.5140    7.3660   18.1430 N.3    73  PHE73      -0.1227
     24  CA        10.1320    7.1100   17.7440 C.3    73  PHE73       0.1736
     25  C          9.9420    5.6800   17.2190 C.2    73  PHE73       0.2595
     26  O          9.0520    4.9640   17.6720 O.2    73  PHE73      -0.2718
     27  CB         9.6040    8.1200   16.7310 C.3    73  PHE73       0.0547
     28  CG         8.1320    7.9700   16.4840 C.ar   73  PHE73      -0.0202
     29  CD1        7.2030    8.5250   17.3640 C.ar   73  PHE73      -0.0042
     30  CD2        7.6720    7.2240   15.4150 C.ar   73  PHE73      -0.0042
     31  CE1        5.8380    8.3670   17.1500 C.ar   73  PHE73      -0.0003
     32  CE2        6.3120    7.0540   15.2020 C.ar   73  PHE73      -0.0003
     33  CZ         5.3950    7.6260   16.0690 C.ar   73  PHE73      -0.0000
     34  N         10.7960    5.2570   16.2920 N.am   74  ALA74      -0.1980
     35  CA        10.6610    3.9330   15.6850 C.3    74  ALA74       0.1597
     36  C         10.8030    2.8260   16.7070 C.2    74  ALA74       0.2287
     37  O         10.0320    1.8670   16.7020 O.2    74  ALA74      -0.2864
     38  CB        11.6940    3.7450   14.5980 C.3    74  ALA74       0.0319
     39  N          3.6310   -2.8220   13.1700 N.3   118  PHE118     -0.1241
     40  CA         4.6560   -1.9790   12.5440 C.3   118  PHE118      0.1605
     41  C          4.8110   -2.4270   11.0910 C.2   118  PHE118      0.2264
     42  O          4.6240   -1.6290   10.1580 O.2   118  PHE118     -0.2867
     43  CB         5.9860   -2.0910   13.3100 C.3   118  PHE118      0.0534
     44  CG         6.9800   -0.9870   13.0100 C.ar  118  PHE118     -0.0203
     45  CD1        7.4680   -0.7720   11.7180 C.ar  118  PHE118     -0.0042
     46  CD2        7.4680   -0.1810   14.0380 C.ar  118  PHE118     -0.0042
     47  CE1        8.3860    0.2350   11.4580 C.ar  118  PHE118     -0.0003
     48  CE2        8.3860    0.8280   13.7800 C.ar  118  PHE118     -0.0003
     49  CZ         8.8480    1.0350   12.4900 C.ar  118  PHE118     -0.0000
     50  N         -0.0750    4.3140   10.3310 N.3   185  PHE185     -0.1241
     51  CA         1.3450    4.1710   10.5950 C.3   185  PHE185      0.1605
     52  C          2.0970    3.5970    9.3930 C.2   185  PHE185      0.2264
     53  O          3.1830    4.0730    9.0570 O.2   185  PHE185     -0.2867
     54  CB         1.5540    3.3060   11.8450 C.3   185  PHE185      0.0534
     55  CG         2.9720    3.2620   12.3320 C.ar  185  PHE185     -0.0203
     56  CD1        3.7050    4.4240   12.4950 C.ar  185  PHE185     -0.0042
     57  CD2        3.5710    2.0570   12.6480 C.ar  185  PHE185     -0.0042
     58  CE1        5.0120    4.3850   12.9480 C.ar  185  PHE185     -0.0003
     59  CE2        4.8790    2.0130   13.1020 C.ar  185  PHE185     -0.0003
     60  CZ         5.6020    3.1770   13.2550 C.ar  185  PHE185     -0.0000
     61  N          5.4400    4.9790    7.3210 N.3   189  THR189     -0.1218
     62  CA         6.6930    4.2210    7.3230 C.3   189  THR189      0.1862
     63  C          7.0870    3.7290    5.9360 C.2   189  THR189      0.2287
     64  O          8.2770    3.6780    5.6090 O.2   189  THR189     -0.2866
     65  CB         6.6720    3.0140    8.2960 C.3   189  THR189      0.1770
     66  OG1        5.6460    2.0850    7.9270 O.3   189  THR189     -0.2211
     67  CG2        6.4730    3.4770    9.7260 C.3   189  THR189      0.0375
     68  N          9.0250    6.6600    4.2280 N.3   192  GLY192     -0.1210
     69  CA        10.3290    6.9280    4.8230 C.3   192  GLY192      0.1956
     70  C         11.3540    5.8290    4.5750 C.2   192  GLY192      0.2611
     71  O         12.5140    6.1130    4.2620 O.2   192  GLY192     -0.2717
     72  N         10.9210    4.5730    4.6810 N.am  193  GLU193     -0.1979
     73  CA        11.8160    3.4260    4.4810 C.3   193  GLU193      0.1602
     74  C         12.4500    3.3880    3.1130 C.2   193  GLU193      0.2287
     75  O         13.5760    2.9060    2.9860 O.2   193  GLU193     -0.2864
     76  CB        11.0810    2.1150    4.7190 C.3   193  GLU193      0.0415
     77  CG        10.7930    1.8960    6.1790 C.3   193  GLU193      0.1163
     78  CD         9.6500    0.9390    6.4380 C.2   193  GLU193      0.3649
     79  OE1        9.1260    0.3410    5.4790 O.co2 193  GLU193     -0.2457
     80  OE2        9.2770    0.7840    7.6230 O.co2 193  GLU193     -0.2457
     81  N         15.7920    5.2270    3.1330 N.3   196  PHE196     -0.1241
     82  CA        16.8480    4.7440    4.0070 C.3   196  PHE196      0.1605
     83  C         18.0360    4.1260    3.2700 C.2   196  PHE196      0.2264
     84  O         19.1720    4.3670    3.6540 O.2   196  PHE196     -0.2867
     85  CB        16.2920    3.7680    5.0550 C.3   196  PHE196      0.0534
     86  CG        15.3580    4.3990    6.0720 C.ar  196  PHE196     -0.0203
     87  CD1       15.1660    5.7910    6.1790 C.ar  196  PHE196     -0.0042
     88  CD2       14.6970    3.5940    6.9670 C.ar  196  PHE196     -0.0042
     89  CE1       14.3080    6.3220    7.1290 C.ar  196  PHE196     -0.0003
     90  CE2       13.8490    4.1410    7.9180 C.ar  196  PHE196     -0.0003
     91  CZ        13.6520    5.4870    8.0020 C.ar  196  PHE196     -0.0000
@<TRIPOS>BOND
     1    75    74    2
     2    74    73    1
     3    81    82    1
     4    83    84    2
     5    83    82    1
     6    82    85    1
     7    68    69    1
     8    71    70    2
     9    73    72    1
    10    73    76    1
    11    70    72   am
    12    70    69    1
    13    76    77    1
    14    85    86    1
    15    79    78   ar
    16    64    63    2
    17    63    62    1
    18    86    87   ar
    19    86    88   ar
    20    87    89   ar
    21    77    78    1
    22    78    80   ar
    23    88    90   ar
    24    89    91   ar
    25    61    62    1
    26    62    65    1
    27    90    91   ar
    28    66    65    1
    29    65    67    1
    30     3     2    1
    31     3     4    2
    32     2     1    1
    33     2     5    1
    34    53    52    2
    35    52    51    1
    36     6     5    1
    37    42    41    2
    38    50    51    1
    39    15    13   ar
    40    15    17   ar
    41    51    54    1
    42    13    12   ar
    43    41    40    1
    44    17    16   ar
    45    47    45   ar
    46    47    49   ar
    47    45    44   ar
    48    54    55    1
    49    12    11    1
    50    12    14   ar
    51     7     8    1
    52     8    11    1
    53     8     9    1
    54    55    56   ar
    55    55    57   ar
    56    49    48   ar
    57    56    58   ar
    58    40    39    1
    59    40    43    1
    60    16    14   ar
    61    57    59   ar
    62    58    60   ar
    63    44    43    1
    64    44    46   ar
    65    59    60   ar
    66    22    19    1
    67     9    10    2
    68    48    46   ar
    69    19    20    1
    70    19    18    1
    71    38    35    1
    72    21    20    2
    73    32    30   ar
    74    32    33   ar
    75    30    28   ar
    76    35    34    1
    77    35    36    1
    78    33    31   ar
    79    34    25   am
    80    28    27    1
    81    28    29   ar
    82    37    36    2
    83    27    24    1
    84    31    29   ar
    85    25    26    2
    86    25    24    1
    87    24    23    1
