@<TRIPOS>MOLECULE
tmp/6el4A06.pdb
 112 108 0 0 0
SMALL
GASTEIGER

@<TRIPOS>ATOM
      1  N         13.4270   -5.9130    8.6480 N.3    35  CYS35      -0.1235
      2  CA        14.2400   -4.7000    8.5970 C.3    35  CYS35       0.1677
      3  C         15.6940   -5.0170    8.2700 C.2    35  CYS35       0.2270
      4  O         16.3930   -5.5810    9.1080 O.2    35  CYS35      -0.2867
      5  CB        14.2080   -3.9810    9.9310 C.3    35  CYS35       0.0956
      6  SG        15.2430   -2.4990    9.8900 S.3    35  CYS35      -0.0801
      7  N         21.7430    6.7530   12.3180 N.3    68  PHE68      -0.1241
      8  CA        20.3130    7.0700   12.3870 C.3    68  PHE68       0.1605
      9  C         20.1370    8.1930   13.4120 C.2    68  PHE68       0.2264
     10  O         20.7740    8.1700   14.4740 O.2    68  PHE68      -0.2867
     11  CB        19.5150    5.8300   12.8080 C.3    68  PHE68       0.0534
     12  CG        18.1160    5.7600   12.2570 C.ar   68  PHE68      -0.0203
     13  CD1       17.9030    5.6500   10.8920 C.ar   68  PHE68      -0.0042
     14  CD2       17.0170    5.7110   13.1010 C.ar   68  PHE68      -0.0042
     15  CE1       16.6220    5.5270   10.3740 C.ar   68  PHE68      -0.0003
     16  CE2       15.7300    5.5910   12.5930 C.ar   68  PHE68      -0.0003
     17  CZ        15.5350    5.5000   11.2230 C.ar   68  PHE68      -0.0000
     18  N         14.3230   10.0740   15.3560 N.3    72  ALA72      -0.1245
     19  CA        13.8090    8.9910   14.5200 C.3    72  ALA72       0.1562
     20  C         14.0030    7.6170   15.1740 C.2    72  ALA72       0.2260
     21  O         13.1020    6.7680   15.1530 O.2    72  ALA72      -0.2867
     22  CB        14.4750    9.0340   13.1520 C.3    72  ALA72       0.0290
     23  N         11.4760    7.3200   18.1460 N.3    75  PHE75      -0.1227
     24  CA        10.0940    7.0950   17.7390 C.3    75  PHE75       0.1736
     25  C          9.8910    5.6730   17.2090 C.2    75  PHE75       0.2595
     26  O          8.9820    4.9680   17.6470 O.2    75  PHE75      -0.2718
     27  CB         9.6070    8.1130   16.7120 C.3    75  PHE75       0.0547
     28  CG         8.1380    8.0030   16.4380 C.ar   75  PHE75      -0.0202
     29  CD1        7.2110    8.5340   17.3330 C.ar   75  PHE75      -0.0042
     30  CD2        7.6740    7.3190   15.3230 C.ar   75  PHE75      -0.0042
     31  CE1        5.8480    8.4220   17.0990 C.ar   75  PHE75      -0.0003
     32  CE2        6.3130    7.1980   15.0910 C.ar   75  PHE75      -0.0003
     33  CZ         5.3990    7.7430   15.9770 C.ar   75  PHE75      -0.0000
     34  N         10.7560    5.2420   16.2960 N.am   76  ALA76      -0.1980
     35  CA        10.6120    3.9210   15.6850 C.3    76  ALA76       0.1597
     36  C         10.7530    2.7930   16.6940 C.2    76  ALA76       0.2287
     37  O          9.9710    1.8430   16.6790 O.2    76  ALA76      -0.2864
     38  CB        11.6210    3.7400   14.5760 C.3    76  ALA76       0.0319
     39  N          3.4950   -2.8590   13.2180 N.3   120  PHE120     -0.1241
     40  CA         4.5160   -2.0130   12.6090 C.3   120  PHE120      0.1605
     41  C          4.6750   -2.4480   11.1550 C.2   120  PHE120      0.2264
     42  O          4.4930   -1.6450   10.2400 O.2   120  PHE120     -0.2867
     43  CB         5.8450   -2.1280   13.3780 C.3   120  PHE120      0.0534
     44  CG         6.8450   -1.0290   13.0700 C.ar  120  PHE120     -0.0203
     45  CD1        7.3290   -0.8220   11.7750 C.ar  120  PHE120     -0.0042
     46  CD2        7.3310   -0.2080   14.0870 C.ar  120  PHE120     -0.0042
     47  CE1        8.2520    0.1770   11.5030 C.ar  120  PHE120     -0.0003
     48  CE2        8.2520    0.7930   13.8150 C.ar  120  PHE120     -0.0003
     49  CZ         8.7150    0.9850   12.5240 C.ar  120  PHE120     -0.0000
     50  N         -0.1110    4.3640   10.3410 N.3   187  PHE187     -0.1241
     51  CA         1.3110    4.2100   10.6140 C.3   187  PHE187      0.1605
     52  C          2.0630    3.6200    9.4180 C.2   187  PHE187      0.2264
     53  O          3.1550    4.0890    9.0870 O.2   187  PHE187     -0.2867
     54  CB         1.5050    3.3660   11.8830 C.3   187  PHE187      0.0534
     55  CG         2.9190    3.3220   12.3860 C.ar  187  PHE187     -0.0203
     56  CD1        3.6260    4.4830   12.6310 C.ar  187  PHE187     -0.0042
     57  CD2        3.5360    2.1110   12.6440 C.ar  187  PHE187     -0.0042
     58  CE1        4.9310    4.4390   13.0970 C.ar  187  PHE187     -0.0003
     59  CE2        4.8410    2.0620   13.1140 C.ar  187  PHE187     -0.0003
     60  CZ         5.5390    3.2270   13.3470 C.ar  187  PHE187     -0.0000
     61  N          2.8130    6.1330    6.5950 N.3   190  PHE190     -0.1227
     62  CA         4.0070    6.9450    6.8520 C.3   190  PHE190      0.1736
     63  C          5.3040    6.1620    6.6380 C.2   190  PHE190      0.2596
     64  O          6.1900    6.6160    5.9050 O.2   190  PHE190     -0.2718
     65  CB         3.9880    7.5040    8.2750 C.3   190  PHE190      0.0547
     66  CG         3.1180    8.7200    8.4480 C.ar  190  PHE190     -0.0202
     67  CD1        1.7320    8.6380    8.3560 C.ar  190  PHE190     -0.0042
     68  CD2        3.6900    9.9510    8.7470 C.ar  190  PHE190     -0.0042
     69  CE1        0.9400    9.7650    8.5440 C.ar  190  PHE190     -0.0003
     70  CE2        2.9070   11.0760    8.9310 C.ar  190  PHE190     -0.0003
     71  CZ         1.5320   10.9840    8.8300 C.ar  190  PHE190     -0.0000
     72  N          5.4130    5.0010    7.2790 N.am  191  THR191     -0.1953
     73  CA         6.6610    4.2280    7.2540 C.3   191  THR191      0.1897
     74  C          7.0050    3.7140    5.8600 C.2   191  THR191      0.2313
     75  O          8.1790    3.6360    5.5120 O.2   191  THR191     -0.2863
     76  CB         6.6550    3.0260    8.2240 C.3   191  THR191      0.1794
     77  OG1        5.5890    2.1240    7.8950 O.3   191  THR191     -0.2208
     78  CG2        6.5430    3.4820    9.6630 C.3   191  THR191      0.0378
     79  N          8.9220    6.6360    4.2140 N.3   194  GLY194     -0.1210
     80  CA        10.2210    6.9070    4.8060 C.3   194  GLY194      0.1956
     81  C         11.2450    5.8060    4.5830 C.2   194  GLY194      0.2611
     82  O         12.4080    6.0940    4.2980 O.2   194  GLY194     -0.2717
     83  N         10.8130    4.5520    4.6910 N.am  195  GLU195     -0.1979
     84  CA        11.7060    3.4090    4.4980 C.3   195  GLU195      0.1602
     85  C         12.3880    3.3760    3.1360 C.2   195  GLU195      0.2287
     86  O         13.5150    2.8950    3.0270 O.2   195  GLU195     -0.2864
     87  CB        10.9560    2.1000    4.7180 C.3   195  GLU195      0.0415
     88  CG        10.8050    1.7480    6.1810 C.3   195  GLU195      0.1163
     89  CD         9.5970    0.8850    6.4330 C.2   195  GLU195      0.3649
     90  OE1        9.0590    0.3180    5.4680 O.co2 195  GLU195     -0.2457
     91  OE2        9.1790    0.7730    7.6020 O.co2 195  GLU195     -0.2457
     92  N         15.7500    5.2250    3.1590 N.3   198  PHE198     -0.1241
     93  CA        16.8200    4.7300    4.0180 C.3   198  PHE198      0.1605
     94  C         18.0000    4.1170    3.2650 C.2   198  PHE198      0.2264
     95  O         19.1370    4.3450    3.6480 O.2   198  PHE198     -0.2867
     96  CB        16.2820    3.7470    5.0650 C.3   198  PHE198      0.0534
     97  CG        15.3410    4.3600    6.0770 C.ar  198  PHE198     -0.0203
     98  CD1       15.1730    5.7490    6.2180 C.ar  198  PHE198     -0.0042
     99  CD2       14.6360    3.5290    6.9280 C.ar  198  PHE198     -0.0042
    100  CE1       14.3040    6.2660    7.1640 C.ar  198  PHE198     -0.0003
    101  CE2       13.7770    4.0530    7.8730 C.ar  198  PHE198     -0.0003
    102  CZ        13.6110    5.4150    7.9890 C.ar  198  PHE198     -0.0000
    103  N         17.6970   10.2120    8.8780 N.3   239  SER239     -0.1202
    104  CA        16.8150    9.0770    8.6470 C.3   239  SER239      0.2020
    105  C         16.1270    9.2510    7.3080 C.2   239  SER239      0.2619
    106  O         16.5980    8.7270    6.2920 O.2   239  SER239     -0.2717
    107  CB        15.7950    8.9280    9.7810 C.3   239  SER239      0.2103
    108  OG        15.1560   10.1600   10.0630 O.3   239  SER239     -0.2182
    109  N         15.0410   10.0220    7.3020 N.am  240  GLY240     -0.1956
    110  CA        14.1410   10.0910    6.1590 C.3   240  GLY240      0.1869
    111  C         14.2600   11.2940    5.2490 C.2   240  GLY240      0.2309
    112  O         13.2990   11.6110    4.5420 O.2   240  GLY240     -0.2863
@<TRIPOS>BOND
     1    86    85    2
     2    85    84    1
     3    92    93    1
     4    94    95    2
     5    94    93    1
     6    93    96    1
     7    79    80    1
     8    82    81    2
     9    84    83    1
    10    84    87    1
    11   112   111    2
    12    81    83   am
    13    81    80    1
    14    87    88    1
    15    96    97    1
    16   111   110    1
    17    90    89   ar
    18    75    74    2
    19    74    73    1
    20    64    63    2
    21    97    98   ar
    22    97    99   ar
    23   110   109    1
    24    88    89    1
    25    98   100   ar
    26   106   105    2
    27    89    91   ar
    28    61    62    1
    29    63    62    1
    30    63    72   am
    31    62    65    1
    32    99   101   ar
    33   100   102   ar
    34    73    72    1
    35    73    76    1
    36   109   105   am
    37   105   104    1
    38   101   102   ar
    39    77    76    1
    40    76    78    1
    41     3     2    1
    42     3     4    2
    43    65    66    1
    44    67    66   ar
    45    67    69   ar
    46    66    68   ar
    47    69    71   ar
    48     2     1    1
    49     2     5    1
    50   104   103    1
    51   104   107    1
    52    68    70   ar
    53    71    70   ar
    54    53    52    2
    55    52    51    1
    56   107   108    1
    57     6     5    1
    58    42    41    2
    59    50    51    1
    60    15    13   ar
    61    15    17   ar
    62    51    54    1
    63    13    12   ar
    64    41    40    1
    65    17    16   ar
    66    47    45   ar
    67    47    49   ar
    68    45    44   ar
    69    54    55    1
    70    12    11    1
    71    12    14   ar
    72     7     8    1
    73    55    56   ar
    74    55    57   ar
    75     8    11    1
    76     8     9    1
    77    49    48   ar
    78    16    14   ar
    79    40    39    1
    80    40    43    1
    81    56    58   ar
    82    57    59   ar
    83    44    43    1
    84    44    46   ar
    85    58    60   ar
    86    59    60   ar
    87    22    19    1
    88     9    10    2
    89    48    46   ar
    90    19    20    1
    91    19    18    1
    92    38    35    1
    93    32    30   ar
    94    32    33   ar
    95    21    20    2
    96    30    28   ar
    97    35    34    1
    98    35    36    1
    99    33    31   ar
   100    34    25   am
   101    28    27    1
   102    28    29   ar
   103    37    36    2
   104    27    24    1
   105    31    29   ar
   106    25    26    2
   107    25    24    1
   108    24    23    1
