@<TRIPOS>MOLECULE
tmp/6el6A00.pdb
 215 201 0 0 0
SMALL
GASTEIGER

@<TRIPOS>ATOM
      1  N        -36.6550  -26.2880   14.6960 N.3    31  MET31      -0.1245
      2  CA       -35.6430  -25.2250   14.6660 C.3    31  MET31       0.1570
      3  C        -34.3010  -25.7150   14.1420 C.2    31  MET31       0.2261
      4  O        -33.6720  -25.0000   13.3570 O.2    31  MET31      -0.2867
      5  CB       -35.4970  -24.5340   16.0260 C.3    31  MET31       0.0387
      6  CG       -36.5970  -23.5460   16.3120 C.3    31  MET31       0.0595
      7  SD       -36.3760  -22.7690   17.9250 S.3    31  MET31      -0.1393
      8  CE       -37.5950  -21.4830   17.8330 C.3    31  MET31       0.0692
      9  N        -34.6180  -26.4200   10.3710 N.3    34  LEU34      -0.1231
     10  CA       -34.6760  -25.1310    9.6700 C.3    34  LEU34       0.1693
     11  C        -33.3150  -24.4500    9.5530 C.2    34  LEU34       0.2592
     12  O        -33.0610  -23.8160    8.5300 O.2    34  LEU34      -0.2718
     13  CB       -35.7370  -24.1780   10.2630 C.3    34  LEU34       0.0284
     14  CG       -37.2080  -24.5800   10.0590 C.3    34  LEU34       0.0019
     15  CD1      -38.1360  -23.5290   10.6140 C.3    34  LEU34       0.0001
     16  CD2      -37.5230  -24.8500    8.5880 C.3    34  LEU34       0.0001
     17  N        -32.4360  -24.6130   10.5670 N.am   35  ASN35      -0.1974
     18  CA       -31.0680  -24.0850   10.5470 C.3    35  ASN35       0.1688
     19  C        -30.2800  -24.8040    9.4600 C.2    35  ASN35       0.2292
     20  O        -29.6570  -24.1460    8.6340 O.2    35  ASN35      -0.2864
     21  CB       -30.3790  -24.2820   11.8960 C.3    35  ASN35       0.1181
     22  CG       -30.7730  -23.3110   12.9770 C.2    35  ASN35       0.2629
     23  OD1      -31.3540  -22.2530   12.7320 O.2    35  ASN35      -0.2716
     24  ND2      -30.4290  -23.6380   14.2100 N.am   35  ASN35      -0.0877
     25  N        -31.4380  -26.4360    6.7920 N.3    37  LEU37      -0.1231
     26  CA       -32.0460  -25.9970    5.5330 C.3    37  LEU37       0.1693
     27  C        -31.5950  -24.5580    5.1910 C.2    37  LEU37       0.2592
     28  O        -31.3180  -24.2720    4.0280 O.2    37  LEU37      -0.2718
     29  CB       -33.5950  -26.1180    5.6160 C.3    37  LEU37       0.0284
     30  CG       -34.4590  -25.6440    4.4010 C.3    37  LEU37       0.0019
     31  CD1      -34.2110  -26.4840    3.1300 C.3    37  LEU37       0.0001
     32  CD2      -35.9440  -25.6460    4.7520 C.3    37  LEU37       0.0001
     33  N        -31.4690  -23.7030    6.2120 N.am   38  GLY38      -0.1957
     34  CA       -31.0170  -22.3190    6.0750 C.3    38  GLY38       0.1869
     35  C        -29.6300  -22.1890    5.4730 C.2    38  GLY38       0.2309
     36  O        -29.3730  -21.2610    4.6960 O.2    38  GLY38      -0.2863
     37  N        -29.9770  -22.8900    1.8940 N.3    41  GLN41      -0.1245
     38  CA       -30.6180  -21.7270    1.2530 C.3    41  GLN41       0.1566
     39  C        -29.5610  -20.6640    1.0040 C.2    41  GLN41       0.2260
     40  O        -29.5730  -20.0250   -0.0510 O.2    41  GLN41      -0.2867
     41  CB       -31.7590  -21.1080    2.1020 C.3    41  GLN41       0.0367
     42  CG       -32.9260  -22.0350    2.4950 C.3    41  GLN41       0.0905
     43  CD       -33.9130  -22.4330    1.4110 C.2    41  GLN41       0.2608
     44  OE1      -33.7140  -22.2360    0.2020 O.2    41  GLN41      -0.2717
     45  NE2      -34.9990  -23.0590    1.8330 N.am   41  GLN41      -0.0878
     46  N        -27.9940  -11.6140    4.5630 N.3    71  TRP71      -0.1227
     47  CA       -28.4140  -13.0220    4.6560 C.3    71  TRP71       0.1737
     48  C        -29.8490  -13.2360    5.2170 C.2    71  TRP71       0.2595
     49  O        -30.6730  -13.8290    4.5290 O.2    71  TRP71      -0.2718
     50  CB       -27.3750  -13.8490    5.4290 C.3    71  TRP71       0.0564
     51  CG       -27.3500  -13.6120    6.9050 C.ar   71  TRP71       0.0003
     52  CD1      -26.9720  -12.4730    7.5490 C.ar   71  TRP71       0.0946
     53  CD2      -27.7280  -14.5440    7.9230 C.ar   71  TRP71       0.0152
     54  NE1      -27.0600  -12.6470    8.9070 N.ar   71  TRP71      -0.2442
     55  CE2      -27.5200  -13.9120    9.1660 C.ar   71  TRP71       0.0810
     56  CE3      -28.1820  -15.8760    7.9080 C.ar   71  TRP71       0.0012
     57  CZ2      -27.7600  -14.5610   10.3830 C.ar   71  TRP71       0.0191
     58  CZ3      -28.4340  -16.5090    9.1100 C.ar   71  TRP71       0.0001
     59  CH2      -28.2240  -15.8560   10.3300 C.ar   71  TRP71       0.0015
     60  N        -30.1540  -12.7090    6.4070 N.am   72  MET72      -0.1979
     61  CA       -31.4670  -12.8370    7.0510 C.3    72  MET72       0.1605
     62  C        -32.5590  -12.0140    6.3400 C.2    72  MET72       0.2287
     63  O        -33.7040  -12.4690    6.3020 O.2    72  MET72      -0.2864
     64  CB       -31.3820  -12.5230    8.5660 C.3    72  MET72       0.0413
     65  CG       -32.6240  -12.9320    9.3760 C.3    72  MET72       0.0598
     66  SD       -33.2680  -14.6130    9.0830 S.3    72  MET72      -0.1393
     67  CE       -31.9890  -15.5990    9.8610 C.3    72  MET72       0.0692
     68  N        -33.5300  -14.1190    3.2440 N.3    75  MET75      -0.1245
     69  CA       -34.2710  -15.3190    3.6120 C.3    75  MET75       0.1570
     70  C        -35.6640  -15.0420    4.1670 C.2    75  MET75       0.2261
     71  O        -36.5850  -15.7990    3.8630 O.2    75  MET75      -0.2867
     72  CB       -33.4540  -16.1900    4.5640 C.3    75  MET75       0.0387
     73  CG       -32.2660  -16.8570    3.8850 C.3    75  MET75       0.0595
     74  SD       -31.6650  -18.2760    4.8080 S.3    75  MET75      -0.1393
     75  CE       -31.1260  -17.4600    6.3580 C.3    75  MET75       0.0692
     76  N        -37.7490  -13.7830    0.9890 N.3    78  ALA78      -0.1231
     77  CA       -38.0260  -14.8750    0.0550 C.3    78  ALA78       0.1694
     78  C        -39.0660  -15.8370    0.6510 C.2    78  ALA78       0.2591
     79  O        -39.9910  -16.2350   -0.0550 O.2    78  ALA78      -0.2718
     80  CB       -36.7400  -15.6020   -0.3370 C.3    78  ALA78       0.0304
     81  N        -38.9670  -16.1290    1.9620 N.am   79  LEU79      -0.1980
     82  CA       -39.9340  -16.9670    2.6730 C.3    79  LEU79       0.1596
     83  C        -41.3100  -16.2910    2.6920 C.2    79  LEU79       0.2287
     84  O        -42.3110  -16.9560    2.4270 O.2    79  LEU79      -0.2864
     85  CB       -39.4470  -17.2900    4.1020 C.3    79  LEU79       0.0297
     86  CG       -40.4210  -18.0470    5.0140 C.3    79  LEU79       0.0022
     87  CD1      -40.4720  -19.4990    4.6650 C.3    79  LEU79       0.0001
     88  CD2      -40.0520  -17.8790    6.4620 C.3    79  LEU79       0.0001
     89  N        -42.8840  -16.6890   -0.7280 N.3    82  ARG82      -0.1245
     90  CA       -43.2890  -18.0920   -0.8830 C.3    82  ARG82       0.1563
     91  C        -44.5460  -18.4170   -0.0690 C.2    82  ARG82       0.2260
     92  O        -45.4220  -19.1310   -0.5600 O.2    82  ARG82      -0.2867
     93  CB       -42.1350  -19.0570   -0.5290 C.3    82  ARG82       0.0307
     94  CG       -42.1900  -20.3590   -1.3400 C.3    82  ARG82       0.0489
     95  CD       -40.9530  -21.2240   -1.1980 C.3    82  ARG82       0.2205
     96  NE       -39.8030  -20.6820   -1.9300 N.pl3  82  ARG82      -0.0865
     97  CZ       -38.6070  -21.2620   -1.9860 C.cat  82  ARG82       0.5346
     98  NH1      -37.6200  -20.6940   -2.6650 N.pl3  82  ARG82       0.1354
     99  NH2      -38.3900  -22.4160   -1.3680 N.pl3  82  ARG82       0.1354
    100  N        -44.2670  -21.2350    4.7140 N.3    93  CYS93      -0.1221
    101  CA       -43.8750  -22.2910    3.7910 C.3    93  CYS93       0.1808
    102  C        -42.3640  -22.3320    3.6330 C.2    93  CYS93       0.2601
    103  O        -41.8160  -21.8640    2.6260 O.2    93  CYS93      -0.2717
    104  CB       -44.5930  -22.1400    2.4500 C.3    93  CYS93       0.0970
    105  SG       -46.3850  -21.9020    2.5950 S.3    93  CYS93      -0.0800
    106  N        -41.6890  -22.8710    4.6660 N.am   94  PHE94      -0.1976
    107  CA       -40.2330  -23.0240    4.7240 C.3    94  PHE94       0.1639
    108  C        -39.7440  -23.9680    3.6270 C.2    94  PHE94       0.2290
    109  O        -38.7690  -23.6680    2.9540 O.2    94  PHE94      -0.2864
    110  CB       -39.7800  -23.4890    6.1200 C.3    94  PHE94       0.0560
    111  CG       -39.6290  -22.3820    7.1420 C.ar   94  PHE94      -0.0200
    112  CD1      -38.4530  -21.6400    7.2240 C.ar   94  PHE94      -0.0042
    113  CD2      -40.6560  -22.0920    8.0330 C.ar   94  PHE94      -0.0042
    114  CE1      -38.3130  -20.6190    8.1740 C.ar   94  PHE94      -0.0003
    115  CE2      -40.5090  -21.0800    8.9900 C.ar   94  PHE94      -0.0003
    116  CZ       -39.3420  -20.3470    9.0490 C.ar   94  PHE94      -0.0000
    117  N        -45.0700  -24.3920    8.6390 N.3   100  ILE100     -0.1245
    118  CA       -45.4190  -24.0430   10.0180 C.3   100  ILE100      0.1561
    119  C        -46.8600  -23.5640   10.0120 C.2   100  ILE100      0.2260
    120  O        -47.1650  -22.4980    9.4720 O.2   100  ILE100     -0.2867
    121  CB       -44.4350  -23.0350   10.6910 C.3   100  ILE100      0.0252
    122  CG1      -42.9360  -23.4410   10.5240 C.3   100  ILE100      0.0019
    123  CG2      -44.7880  -22.7790   12.1580 C.3   100  ILE100      0.0019
    124  CD1      -42.5100  -24.9230   10.8140 C.3   100  ILE100      0.0001
    125  N        -42.1130  -21.1430   19.5350 N.3   110  MET110     -0.1245
    126  CA       -42.2530  -21.1370   18.0790 C.3   110  MET110      0.1570
    127  C        -42.8240  -19.8400   17.5430 C.2   110  MET110      0.2261
    128  O        -42.2730  -19.2980   16.5760 O.2   110  MET110     -0.2867
    129  CB       -43.0510  -22.3440   17.5680 C.3   110  MET110      0.0387
    130  CG       -42.8090  -22.6300   16.0860 C.3   110  MET110      0.0595
    131  SD       -41.1750  -23.3390   15.7730 S.3   110  MET110     -0.1393
    132  CE       -41.4950  -25.0030   16.1490 C.3   110  MET110      0.0692
    133  N        -40.6600  -16.3260   17.3370 N.3   113  GLN113     -0.1231
    134  CA       -39.7620  -16.1550   16.1990 C.3   113  GLN113      0.1698
    135  C        -40.5350  -16.0570   14.8810 C.2   113  GLN113      0.2592
    136  O        -40.2060  -15.2070   14.0510 O.2   113  GLN113     -0.2718
    137  CB       -38.6840  -17.2610   16.1600 C.3   113  GLN113      0.0381
    138  CG       -37.5390  -16.9920   15.1700 C.3   113  GLN113      0.0905
    139  CD       -36.5050  -15.9840   15.6420 C.2   113  GLN113      0.2608
    140  OE1      -36.8160  -14.9170   16.1740 O.2   113  GLN113     -0.2717
    141  NE2      -35.2390  -16.2700   15.3890 N.am  113  GLN113     -0.0878
    142  N        -41.5660  -16.9140   14.7020 N.am  114  CYS114     -0.1970
    143  CA       -42.4300  -17.0000   13.5110 C.3   114  CYS114      0.1712
    144  C        -43.1690  -15.7000   13.1770 C.2   114  CYS114      0.2296
    145  O        -43.4280  -15.4420   12.0050 O.2   114  CYS114     -0.2864
    146  CB       -43.4170  -18.1550   13.6530 C.3   114  CYS114      0.0983
    147  SG       -42.6960  -19.8020   13.4310 S.3   114  CYS114     -0.0798
    148  N        -41.5500  -13.3260   10.7450 N.3   117  MET117     -0.1245
    149  CA       -41.6280  -13.8890    9.4070 C.3   117  MET117      0.1570
    150  C        -43.0480  -13.6750    8.8840 C.2   117  MET117      0.2261
    151  O        -43.2170  -13.2640    7.7330 O.2   117  MET117     -0.2867
    152  CB       -41.2640  -15.3910    9.4030 C.3   117  MET117      0.0387
    153  CG       -39.8510  -15.7160    9.8550 C.3   117  MET117      0.0595
    154  SD       -38.6060  -15.0560    8.7430 S.3   117  MET117     -0.1393
    155  CE       -37.2790  -16.1890    9.0660 C.3   117  MET117      0.0692
    156  N        -35.4280  -10.9490   14.5750 N.3   203  LEU203     -0.1245
    157  CA       -35.1070  -12.3600   14.3060 C.3   203  LEU203      0.1561
    158  C        -33.6910  -12.7100   14.7980 C.2   203  LEU203      0.2260
    159  O        -33.4900  -13.8080   15.3200 O.2   203  LEU203     -0.2867
    160  CB       -35.1900  -12.6820   12.7970 C.3   203  LEU203      0.0270
    161  CG       -36.5610  -12.7600   12.1170 C.3   203  LEU203      0.0019
    162  CD1      -36.4100  -12.6140   10.6200 C.3   203  LEU203      0.0001
    163  CD2      -37.2710  -14.0710   12.4220 C.3   203  LEU203      0.0001
    164  N        -33.0180  -13.6360   18.8470 N.3   206  TYR206     -0.1227
    165  CA       -33.1680  -15.0350   19.2490 C.3   206  TYR206      0.1736
    166  C        -32.1620  -15.9650   18.5510 C.2   206  TYR206      0.2595
    167  O        -31.6640  -16.9000   19.1810 O.2   206  TYR206     -0.2718
    168  CB       -34.6170  -15.5370   19.0910 C.3   206  TYR206      0.0548
    169  CG       -34.8750  -16.8390   19.8240 C.ar  206  TYR206     -0.0200
    170  CD1      -34.8380  -16.8990   21.2180 C.ar  206  TYR206     -0.0009
    171  CD2      -35.1480  -18.0120   19.1280 C.ar  206  TYR206     -0.0009
    172  CE1      -35.0420  -18.1000   21.8980 C.ar  206  TYR206      0.0417
    173  CE2      -35.3740  -19.2170   19.7980 C.ar  206  TYR206      0.0417
    174  CZ       -35.3120  -19.2580   21.1840 C.ar  206  TYR206      0.1957
    175  OH       -35.5230  -20.4410   21.8550 O.3   206  TYR206     -0.2866
    176  N        -31.8360  -15.6930   17.2790 N.am  207  CYS207     -0.1970
    177  CA       -30.8620  -16.4740   16.5150 C.3   207  CYS207      0.1712
    178  C        -29.4470  -16.4180   17.1450 C.2   207  CYS207      0.2296
    179  O        -28.8500  -17.4740   17.3590 O.2   207  CYS207     -0.2864
    180  CB       -30.8550  -16.0580   15.0450 C.3   207  CYS207      0.0983
    181  SG       -29.6910  -16.9880   14.0120 S.3   207  CYS207     -0.0798
    182  N        -29.4340  -18.5020   20.4860 N.3   210  THR210     -0.1218
    183  CA       -29.4330  -19.9650   20.3070 C.3   210  THR210      0.1862
    184  C        -28.0730  -20.4690   19.8390 C.2   210  THR210      0.2287
    185  O        -27.6830  -21.5820   20.2000 O.2   210  THR210     -0.2866
    186  CB       -30.5760  -20.4720   19.4200 C.3   210  THR210      0.1770
    187  OG1      -30.3850  -20.0240   18.0830 O.3   210  THR210     -0.2211
    188  CG2      -31.9300  -20.0710   19.9180 C.3   210  THR210      0.0375
    189  N        -28.6650  -26.4760   20.0990 N.3   218  ILE218     -0.1245
    190  CA       -29.2540  -26.0930   18.8160 C.3   218  ILE218      0.1561
    191  C        -28.1330  -25.8950   17.7920 C.2   218  ILE218      0.2260
    192  O        -27.3370  -24.9590   17.8870 O.2   218  ILE218     -0.2867
    193  CB       -30.2540  -24.9060   18.9590 C.3   218  ILE218      0.0252
    194  CG1      -31.5500  -25.3990   19.6770 C.3   218  ILE218      0.0019
    195  CG2      -30.5770  -24.2580   17.5960 C.3   218  ILE218      0.0019
    196  CD1      -32.5350  -24.3260   20.1490 C.3   218  ILE218      0.0001
    197  N        -26.2370  -25.3520   14.1150 N.3   220  PHE220     -0.1241
    198  CA       -26.2230  -24.5120   12.9280 C.3   220  PHE220      0.1605
    199  C        -25.2070  -25.1090   11.9660 C.2   220  PHE220      0.2264
    200  O        -24.1490  -25.5720   12.4200 O.2   220  PHE220     -0.2867
    201  CB       -25.8140  -23.0730   13.2600 C.3   220  PHE220      0.0534
    202  CG       -26.8630  -22.2750   13.9880 C.ar  220  PHE220     -0.0203
    203  CD1      -26.9970  -22.3680   15.3690 C.ar  220  PHE220     -0.0042
    204  CD2      -27.6850  -21.3930   13.3020 C.ar  220  PHE220     -0.0042
    205  CE1      -27.9710  -21.6320   16.0420 C.ar  220  PHE220     -0.0003
    206  CE2      -28.6430  -20.6370   13.9810 C.ar  220  PHE220     -0.0003
    207  CZ       -28.7760  -20.7580   15.3480 C.ar  220  PHE220     -0.0000
    208  N        -24.1040  -21.0930    8.0520 N.3   224  LEU224     -0.1245
    209  CA       -24.7630  -20.1770    8.9830 C.3   224  LEU224      0.1561
    210  C        -23.8470  -19.8110   10.1260 C.2   224  LEU224      0.2260
    211  O        -23.7670  -18.6310   10.4590 O.2   224  LEU224     -0.2867
    212  CB       -26.1240  -20.6900    9.4940 C.3   224  LEU224      0.0270
    213  CG       -27.2270  -20.9030    8.4520 C.3   224  LEU224      0.0019
    214  CD1      -28.5450  -21.1260    9.1180 C.3   224  LEU224      0.0001
    215  CD2      -27.3390  -19.7210    7.4790 C.3   224  LEU224      0.0001
@<TRIPOS>BOND
     1    98    97    1
     2    97    96    2
     3    97    99    1
     4    96    95    1
     5    94    95    1
     6    94    93    1
     7    90    89    1
     8    90    93    1
     9    90    91    1
    10    92    91    2
    11    80    77    1
    12    79    78    2
    13    40    39    2
    14    77    78    1
    15    77    76    1
    16    44    43    2
    17    78    81   am
    18    39    38    1
    19    38    37    1
    20    38    41    1
    21    43    45   am
    22    43    42    1
    23    81    82    1
    24    41    42    1
    25    84    83    2
    26   104   105    1
    27   104   101    1
    28   103   102    2
    29    82    83    1
    30    82    85    1
    31   109   108    2
    32    31    30    1
    33    68    69    1
    34    69    70    1
    35    69    72    1
    36   108   107    1
    37   102   101    1
    38   102   106   am
    39   101   100    1
    40    71    70    2
    41    73    72    1
    42    73    74    1
    43    28    27    2
    44    85    86    1
    45    30    32    1
    46    30    29    1
    47    49    48    2
    48    46    47    1
    49    47    48    1
    50    47    50    1
    51    87    86    1
    52   106   107    1
    53    36    35    2
    54   107   110    1
    55    74    75    1
    56    86    88    1
    57    27    26    1
    58    27    33   am
    59    48    60   am
    60    50    51    1
    61    35    34    1
    62    26    29    1
    63    26    25    1
    64    34    33    1
    65   110   111    1
    66    63    62    2
    67    62    61    1
    68    60    61    1
    69    51    52   ar
    70    51    53   ar
    71    61    64    1
    72   111   112   ar
    73   111   113   ar
    74   112   114   ar
    75   215   213    1
    76    52    54   ar
    77   151   150    2
    78    56    53   ar
    79    56    58   ar
    80    53    55   ar
    81   113   115   ar
    82   208   209    1
    83   114   116   ar
    84   213   214    1
    85   213   212    1
    86    12    11    2
    87    64    65    1
    88    16    14    1
    89    20    19    2
    90   117   118    1
    91   154   155    1
    92   154   153    1
    93   150   149    1
    94    54    55   ar
    95   209   212    1
    96   209   210    1
    97   115   116   ar
    98    66    65    1
    99    66    67    1
   100    58    59   ar
   101    55    57   ar
   102   152   149    1
   103   152   153    1
   104   149   148    1
   105    19    18    1
   106   120   119    2
   107    11    10    1
   108    11    17   am
   109    10    13    1
   110    10     9    1
   111   119   118    1
   112   118   121    1
   113    14    13    1
   114    14    15    1
   115   210   211    2
   116    59    57   ar
   117   122   121    1
   118   122   124    1
   119    18    17    1
   120    18    21    1
   121   162   161    1
   122   121   123    1
   123    21    22    1
   124   199   200    2
   125   199   198    1
   126   145   144    2
   127   161   163    1
   128   161   160    1
   129    23    22    2
   130   160   157    1
   131   198   201    1
   132   198   197    1
   133    22    24   am
   134   144   143    1
   135   201   202    1
   136   204   206   ar
   137   204   202   ar
   138     4     3    2
   139   147   146    1
   140   143   146    1
   141   143   142    1
   142   206   207   ar
   143   202   203   ar
   144   181   180    1
   145   136   135    2
   146     3     2    1
   147   157   156    1
   148   157   158    1
   149     2     1    1
   150     2     5    1
   151   142   135   am
   152   158   159    2
   153   135   134    1
   154   180   177    1
   155   138   139    1
   156   138   137    1
   157   207   205   ar
   158   203   205   ar
   159   141   139   am
   160   139   140    2
   161   131   130    1
   162   131   132    1
   163     5     6    1
   164   130   129    1
   165   137   134    1
   166   134   133    1
   167     6     7    1
   168   177   178    1
   169   177   176    1
   170   128   127    2
   171   178   179    2
   172   176   166   am
   173   127   126    1
   174   129   126    1
   175   195   193    1
   176   191   192    2
   177   191   190    1
   178     8     7    1
   179   126   125    1
   180   187   186    1
   181   166   167    2
   182   166   165    1
   183   190   193    1
   184   190   189    1
   185   164   165    1
   186   193   194    1
   187   168   165    1
   188   168   169    1
   189   171   173   ar
   190   171   169   ar
   191   186   188    1
   192   186   183    1
   193   194   196    1
   194   173   174   ar
   195   169   170   ar
   196   184   185    2
   197   184   183    1
   198   183   182    1
   199   174   175    1
   200   174   172   ar
   201   170   172   ar
