@<TRIPOS>MOLECULE
tmp/6el7A00.pdb
 217 203 0 0 0
SMALL
GASTEIGER

@<TRIPOS>ATOM
      1  N        -37.4520  -28.4800   14.7390 N.3    30  ILE30      -0.1231
      2  CA       -37.7940  -27.5860   13.6220 C.3    30  ILE30       0.1692
      3  C        -36.7090  -26.5190   13.4390 C.2    30  ILE30       0.2591
      4  O        -36.2300  -26.3340   12.3240 O.2    30  ILE30      -0.2718
      5  CB       -39.2310  -27.0120   13.7630 C.3    30  ILE30       0.0266
      6  CG1      -40.2750  -28.1290   13.4790 C.3    30  ILE30       0.0019
      7  CG2      -39.4530  -25.7960   12.8370 C.3    30  ILE30       0.0020
      8  CD1      -41.7420  -27.8520   13.9120 C.3    30  ILE30       0.0001
      9  N        -36.2710  -25.8830   14.5440 N.am   31  MET31      -0.1979
     10  CA       -35.2150  -24.8630   14.5140 C.3    31  MET31       0.1605
     11  C        -33.9230  -25.4200   13.9620 C.2    31  MET31       0.2287
     12  O        -33.2860  -24.7250   13.1780 O.2    31  MET31      -0.2864
     13  CB       -34.9740  -24.2560   15.8900 C.3    31  MET31       0.0413
     14  CG       -36.0740  -23.3210   16.3240 C.3    31  MET31       0.0598
     15  SD       -35.7350  -22.7110   17.9880 S.3    31  MET31      -0.1393
     16  CE       -37.0760  -21.4450   18.1320 C.3    31  MET31       0.0692
     17  N        -34.4110  -26.1020   10.1380 N.3    34  LEU34      -0.1231
     18  CA       -34.4460  -24.8070    9.4560 C.3    34  LEU34       0.1693
     19  C        -33.0660  -24.1360    9.3950 C.2    34  LEU34       0.2592
     20  O        -32.7590  -23.4610    8.4120 O.2    34  LEU34      -0.2718
     21  CB       -35.5130  -23.8770   10.0540 C.3    34  LEU34       0.0284
     22  CG       -36.9860  -24.2880    9.8110 C.3    34  LEU34       0.0019
     23  CD1      -37.9320  -23.3050   10.4600 C.3    34  LEU34       0.0001
     24  CD2      -37.2970  -24.3810    8.3160 C.3    34  LEU34       0.0001
     25  N        -32.2090  -24.3710   10.3960 N.am   35  ASN35      -0.1974
     26  CA       -30.8380  -23.8320   10.3490 C.3    35  ASN35       0.1688
     27  C        -30.0920  -24.5340    9.2250 C.2    35  ASN35       0.2292
     28  O        -29.4050  -23.8670    8.4450 O.2    35  ASN35      -0.2864
     29  CB       -30.1230  -24.0110   11.6950 C.3    35  ASN35       0.1181
     30  CG       -30.4900  -22.9820   12.7310 C.2    35  ASN35       0.2629
     31  OD1      -31.0910  -21.9550   12.4410 O.2    35  ASN35      -0.2716
     32  ND2      -30.1520  -23.2510   13.9750 N.am   35  ASN35      -0.0877
     33  N        -31.4170  -25.9590    6.4910 N.3    37  LEU37      -0.1231
     34  CA       -32.0370  -25.4380    5.2790 C.3    37  LEU37       0.1693
     35  C        -31.4920  -24.0140    4.9650 C.2    37  LEU37       0.2592
     36  O        -31.1690  -23.7300    3.8070 O.2    37  LEU37      -0.2718
     37  CB       -33.5820  -25.4170    5.4340 C.3    37  LEU37       0.0284
     38  CG       -34.3800  -24.7610    4.2630 C.3    37  LEU37       0.0019
     39  CD1      -34.2560  -25.6080    2.9680 C.3    37  LEU37       0.0001
     40  CD2      -35.8460  -24.5390    4.6560 C.3    37  LEU37       0.0001
     41  N        -31.3800  -23.1750    6.0050 N.am   38  GLY38      -0.1957
     42  CA       -30.8440  -21.8150    5.9210 C.3    38  GLY38       0.1869
     43  C        -29.4200  -21.7720    5.3740 C.2    38  GLY38       0.2309
     44  O        -29.0900  -20.8960    4.5870 O.2    38  GLY38      -0.2863
     45  N        -29.6440  -22.4910    1.6650 N.3    41  GLN41      -0.1245
     46  CA       -30.1990  -21.3020    1.0050 C.3    41  GLN41       0.1566
     47  C        -29.1090  -20.2480    0.8360 C.2    41  GLN41       0.2260
     48  O        -29.0400  -19.6130   -0.2110 O.2    41  GLN41      -0.2867
     49  CB       -31.3570  -20.7020    1.8200 C.3    41  GLN41       0.0367
     50  CG       -32.5610  -21.6350    2.0070 C.3    41  GLN41       0.0905
     51  CD       -33.6750  -21.5310    0.9820 C.2    41  GLN41       0.2608
     52  OE1      -33.5050  -21.0550   -0.1510 O.2    41  GLN41      -0.2717
     53  NE2      -34.8550  -22.0110    1.3570 N.am   41  GLN41      -0.0878
     54  N        -27.7250  -11.4800    4.6040 N.3    71  TRP71      -0.1227
     55  CA       -28.1220  -12.8910    4.7020 C.3    71  TRP71       0.1737
     56  C        -29.5510  -13.0780    5.2150 C.2    71  TRP71       0.2595
     57  O        -30.3750  -13.6470    4.5160 O.2    71  TRP71      -0.2718
     58  CB       -27.1060  -13.7360    5.5240 C.3    71  TRP71       0.0564
     59  CG       -27.0640  -13.4640    7.0010 C.ar   71  TRP71       0.0003
     60  CD1      -26.6580  -12.3150    7.6120 C.ar   71  TRP71       0.0946
     61  CD2      -27.4260  -14.3700    8.0580 C.ar   71  TRP71       0.0152
     62  NE1      -26.7960  -12.4310    8.9730 N.ar   71  TRP71      -0.2442
     63  CE2      -27.2280  -13.6930    9.2750 C.ar   71  TRP71       0.0810
     64  CE3      -27.9300  -15.6830    8.0900 C.ar   71  TRP71       0.0012
     65  CZ2      -27.4840  -14.2930   10.5150 C.ar   71  TRP71       0.0191
     66  CZ3      -28.2140  -16.2620    9.3120 C.ar   71  TRP71       0.0001
     67  CH2      -27.9730  -15.5820   10.5060 C.ar   71  TRP71       0.0015
     68  N        -29.8370  -12.5800    6.4110 N.am   72  MET72      -0.1979
     69  CA       -31.1360  -12.7180    7.0550 C.3    72  MET72       0.1605
     70  C        -32.2490  -11.9290    6.3290 C.2    72  MET72       0.2287
     71  O        -33.3710  -12.4290    6.2640 O.2    72  MET72      -0.2864
     72  CB       -31.0320  -12.3450    8.5580 C.3    72  MET72       0.0413
     73  CG       -32.3370  -12.5310    9.3320 C.3    72  MET72       0.0598
     74  SD       -32.8360  -14.2790    9.3890 S.3    72  MET72      -0.1393
     75  CE       -31.8940  -14.8000   10.8400 C.3    72  MET72       0.0692
     76  N        -33.1590  -14.1500    3.3140 N.3    75  MET75      -0.1230
     77  CA       -33.9070  -15.3390    3.7000 C.3    75  MET75       0.1702
     78  C        -35.3380  -15.0250    4.1500 C.2    75  MET75       0.2592
     79  O        -36.2620  -15.7040    3.6980 O.2    75  MET75      -0.2718
     80  CB       -33.1540  -16.1310    4.7570 C.3    75  MET75       0.0401
     81  CG       -31.8730  -16.7480    4.2020 C.3    75  MET75       0.0596
     82  SD       -31.1830  -17.9070    5.3850 S.3    75  MET75      -0.1393
     83  CE       -30.7430  -16.8620    6.6620 C.3    75  MET75       0.0692
     84  N        -35.5150  -14.0030    5.0150 N.am   76  ALA76      -0.1980
     85  CA       -36.8390  -13.5910    5.5020 C.3    76  ALA76       0.1597
     86  C        -37.7000  -13.0580    4.3370 C.2    76  ALA76       0.2287
     87  O        -38.8970  -13.3620    4.2590 O.2    76  ALA76      -0.2864
     88  CB       -36.6830  -12.5170    6.5790 C.3    76  ALA76       0.0319
     89  N        -38.6610  -15.9330    2.0970 N.3    79  LEU79      -0.1245
     90  CA       -39.6150  -16.7370    2.8680 C.3    79  LEU79       0.1561
     91  C        -41.0040  -16.0710    2.8640 C.2    79  LEU79       0.2260
     92  O        -42.0060  -16.7600    2.6560 O.2    79  LEU79      -0.2867
     93  CB       -39.1250  -16.9970    4.3140 C.3    79  LEU79       0.0270
     94  CG       -40.2140  -17.4650    5.3280 C.3    79  LEU79       0.0019
     95  CD1      -40.6670  -18.8940    5.0430 C.3    79  LEU79       0.0001
     96  CD2      -39.7350  -17.3530    6.7460 C.3    79  LEU79       0.0001
     97  N        -42.6240  -16.7150   -0.5720 N.3    82  ARG82      -0.1245
     98  CA       -43.1390  -18.0920   -0.6950 C.3    82  ARG82       0.1563
     99  C        -44.4180  -18.2510    0.0990 C.2    82  ARG82       0.2260
    100  O        -45.3500  -18.8720   -0.3880 O.2    82  ARG82      -0.2867
    101  CB       -42.1220  -19.1510   -0.2150 C.3    82  ARG82       0.0307
    102  CG       -40.9110  -19.2780   -1.1060 C.3    82  ARG82       0.0489
    103  CD       -40.0730  -20.5150   -0.7910 C.3    82  ARG82       0.2205
    104  NE       -39.5630  -20.5810    0.5900 N.pl3  82  ARG82      -0.0865
    105  CZ       -38.4630  -19.9750    1.0270 C.cat  82  ARG82       0.5346
    106  NH1      -37.7900  -19.1510    0.2370 N.pl3  82  ARG82       0.1354
    107  NH2      -38.0580  -20.1500    2.2720 N.pl3  82  ARG82       0.1354
    108  N        -41.4750  -22.2990    4.6920 N.3    94  PHE94      -0.1241
    109  CA       -40.0050  -22.4240    4.6540 C.3    94  PHE94       0.1605
    110  C        -39.5540  -23.3250    3.5010 C.2    94  PHE94       0.2264
    111  O        -38.6040  -23.0000    2.7860 O.2    94  PHE94      -0.2867
    112  CB       -39.4650  -22.9630    5.9850 C.3    94  PHE94       0.0534
    113  CG       -39.4640  -21.9580    7.1120 C.ar   94  PHE94      -0.0203
    114  CD1      -38.3660  -21.1260    7.3240 C.ar   94  PHE94      -0.0042
    115  CD2      -40.5390  -21.8750    7.9920 C.ar   94  PHE94      -0.0042
    116  CE1      -38.3530  -20.2110    8.3820 C.ar   94  PHE94      -0.0003
    117  CE2      -40.5140  -20.9800    9.0660 C.ar   94  PHE94      -0.0003
    118  CZ       -39.4380  -20.1270    9.2330 C.ar   94  PHE94      -0.0000
    119  N        -44.8380  -24.0360    8.5080 N.3   100  ILE100     -0.1245
    120  CA       -45.2130  -23.7420    9.8790 C.3   100  ILE100      0.1561
    121  C        -46.6790  -23.3110    9.8820 C.2   100  ILE100      0.2260
    122  O        -47.0140  -22.1600    9.5680 O.2   100  ILE100     -0.2867
    123  CB       -44.2370  -22.7900   10.6380 C.3   100  ILE100      0.0252
    124  CG1      -42.7800  -23.3590   10.6920 C.3   100  ILE100      0.0019
    125  CG2      -44.7640  -22.4330   12.0590 C.3   100  ILE100      0.0019
    126  CD1      -42.5890  -24.8230   11.0360 C.3   100  ILE100      0.0001
    127  N        -42.0840  -21.1840   19.6130 N.3   110  MET110     -0.1245
    128  CA       -42.1410  -21.0810   18.1460 C.3   110  MET110      0.1570
    129  C        -42.5040  -19.6770   17.6230 C.2   110  MET110      0.2261
    130  O        -41.7860  -19.1350   16.7740 O.2   110  MET110     -0.2867
    131  CB       -43.0860  -22.1360   17.5350 C.3   110  MET110      0.0387
    132  CG       -42.9110  -22.2900   16.0090 C.3   110  MET110      0.0595
    133  SD       -41.2770  -22.9400   15.5530 S.3   110  MET110     -0.1393
    134  CE       -41.5590  -24.6550   15.7880 C.3   110  MET110      0.0692
    135  N        -40.0780  -15.9800   17.1330 N.3   113  GLN113     -0.1231
    136  CA       -39.3250  -15.7190   15.9180 C.3   113  GLN113      0.1698
    137  C        -40.2700  -15.5840   14.7180 C.2   113  GLN113      0.2592
    138  O        -40.1210  -14.6570   13.9210 O.2   113  GLN113     -0.2718
    139  CB       -38.2950  -16.8450   15.7180 C.3   113  GLN113      0.0381
    140  CG       -37.0670  -16.4940   14.8910 C.3   113  GLN113      0.0905
    141  CD       -36.1300  -15.4560   15.4760 C.2   113  GLN113      0.2608
    142  OE1      -36.5390  -14.4770   16.1170 O.2   113  GLN113     -0.2717
    143  NE2      -34.8560  -15.5600   15.1130 N.am  113  GLN113     -0.0878
    144  N        -41.2910  -16.4680   14.6480 N.am  114  CYS114     -0.1970
    145  CA       -42.2880  -16.5570   13.5770 C.3   114  CYS114      0.1712
    146  C        -43.0790  -15.2840   13.3200 C.2   114  CYS114      0.2296
    147  O        -43.3660  -15.0040   12.1560 O.2   114  CYS114     -0.2864
    148  CB       -43.2160  -17.7380   13.8050 C.3   114  CYS114      0.0983
    149  SG       -42.4460  -19.3280   13.4470 S.3   114  CYS114     -0.0798
    150  N        -41.3530  -12.9060   10.8230 N.3   117  MET117     -0.1245
    151  CA       -41.4250  -13.4330    9.4680 C.3   117  MET117      0.1570
    152  C        -42.8510  -13.3300    8.9270 C.2   117  MET117      0.2261
    153  O        -43.0200  -12.9610    7.7560 O.2   117  MET117     -0.2867
    154  CB       -40.8750  -14.8590    9.4220 C.3   117  MET117      0.0387
    155  CG       -39.3680  -14.8960    9.6200 C.3   117  MET117      0.0595
    156  SD       -38.6400  -16.5220    9.9430 S.3   117  MET117     -0.1393
    157  CE       -39.4200  -16.9650   11.4470 C.3   117  MET117      0.0692
    158  N        -34.9690  -10.6020   14.3480 N.3   203  LEU203     -0.1245
    159  CA       -34.5730  -11.9860   14.0170 C.3   203  LEU203      0.1561
    160  C        -33.1400  -12.2830   14.4580 C.2   203  LEU203      0.2260
    161  O        -32.8760  -13.3540   15.0160 O.2   203  LEU203     -0.2867
    162  CB       -34.7320  -12.3090   12.5170 C.3   203  LEU203      0.0270
    163  CG       -36.1750  -12.3790   11.9540 C.3   203  LEU203      0.0019
    164  CD1      -36.1630  -12.3690   10.4380 C.3   203  LEU203      0.0001
    165  CD2      -36.9280  -13.5920   12.4850 C.3   203  LEU203      0.0001
    166  N        -32.5060  -12.7180   18.5230 N.3   206  TYR206     -0.1227
    167  CA       -32.8660  -14.0740   18.9050 C.3   206  TYR206      0.1736
    168  C        -31.8400  -15.0820   18.3850 C.2   206  TYR206      0.2595
    169  O        -31.3900  -15.9400   19.1420 O.2   206  TYR206     -0.2718
    170  CB       -34.2460  -14.3700   18.3100 C.3   206  TYR206      0.0548
    171  CG       -34.9610  -15.5850   18.8500 C.ar  206  TYR206     -0.0200
    172  CD1      -34.6560  -16.8620   18.3870 C.ar  206  TYR206     -0.0009
    173  CD2      -36.0120  -15.4530   19.7520 C.ar  206  TYR206     -0.0009
    174  CE1      -35.3370  -17.9840   18.8600 C.ar  206  TYR206      0.0417
    175  CE2      -36.7120  -16.5640   20.2170 C.ar  206  TYR206      0.0417
    176  CZ       -36.3720  -17.8280   19.7680 C.ar  206  TYR206      0.1957
    177  OH       -37.0790  -18.9140   20.2200 O.3   206  TYR206     -0.2866
    178  N        -31.4900  -14.9890   17.0790 N.am  207  CYS207     -0.1970
    179  CA       -30.5370  -15.8730   16.3910 C.3   207  CYS207      0.1712
    180  C        -29.1030  -15.8220   16.9930 C.2   207  CYS207      0.2296
    181  O        -28.4550  -16.8640   17.1440 O.2   207  CYS207     -0.2864
    182  CB       -30.5270  -15.5690   14.8980 C.3   207  CYS207      0.0983
    183  SG       -29.2700  -16.4800   13.9780 S.3   207  CYS207     -0.0798
    184  N        -29.1530  -17.5290   20.5080 N.3   210  THR210     -0.1218
    185  CA       -29.2710  -18.9690   20.2760 C.3   210  THR210      0.1862
    186  C        -27.9220  -19.5380   19.8060 C.2   210  THR210      0.2287
    187  O        -27.5180  -20.6050   20.2610 O.2   210  THR210     -0.2866
    188  CB       -30.4470  -19.2430   19.3120 C.3   210  THR210      0.1770
    189  OG1      -31.6420  -18.6900   19.8880 O.3   210  THR210     -0.2211
    190  CG2      -30.6850  -20.7180   19.0850 C.3   210  THR210      0.0375
    191  N        -28.3420  -25.9280   19.9080 N.3   218  ILE218     -0.1245
    192  CA       -28.9410  -25.5800   18.6170 C.3   218  ILE218      0.1561
    193  C        -27.7870  -25.5060   17.6120 C.2   218  ILE218      0.2260
    194  O        -26.9040  -24.6530   17.7240 O.2   218  ILE218     -0.2867
    195  CB       -29.8320  -24.3010   18.6340 C.3   218  ILE218      0.0252
    196  CG1      -31.1350  -24.4990   19.4710 C.3   218  ILE218      0.0019
    197  CG2      -30.1640  -23.8330   17.2090 C.3   218  ILE218      0.0019
    198  CD1      -32.3200  -25.2290   18.7490 C.3   218  ILE218      0.0001
    199  N        -25.9540  -24.9790   13.9620 N.3   220  PHE220     -0.1241
    200  CA       -25.9090  -24.1180   12.8040 C.3   220  PHE220      0.1605
    201  C        -24.9030  -24.7500   11.8600 C.2   220  PHE220      0.2264
    202  O        -23.8130  -25.1290   12.3090 O.2   220  PHE220     -0.2867
    203  CB       -25.4400  -22.6970   13.1830 C.3   220  PHE220      0.0534
    204  CG       -26.4820  -21.9000   13.9370 C.ar  220  PHE220     -0.0203
    205  CD1      -26.6840  -22.1000   15.3050 C.ar  220  PHE220     -0.0042
    206  CD2      -27.2530  -20.9440   13.2860 C.ar  220  PHE220     -0.0042
    207  CE1      -27.6700  -21.3920   15.9900 C.ar  220  PHE220     -0.0003
    208  CE2      -28.2050  -20.2000   13.9890 C.ar  220  PHE220     -0.0003
    209  CZ       -28.4040  -20.4310   15.3380 C.ar  220  PHE220     -0.0000
    210  N        -23.8110  -20.7450    8.0000 N.3   224  LEU224     -0.1245
    211  CA       -24.4570  -19.8070    8.9310 C.3   224  LEU224      0.1561
    212  C        -23.5640  -19.4820   10.1020 C.2   224  LEU224      0.2260
    213  O        -23.5360  -18.3230   10.4910 O.2   224  LEU224     -0.2867
    214  CB       -25.8180  -20.3390    9.4200 C.3   224  LEU224      0.0270
    215  CG       -26.9120  -20.5050    8.3340 C.3   224  LEU224      0.0019
    216  CD1      -28.3180  -20.7030    9.0060 C.3   224  LEU224      0.0001
    217  CD2      -26.9220  -19.2970    7.3330 C.3   224  LEU224      0.0001
@<TRIPOS>BOND
     1   102   103    1
     2   102   101    1
     3   103   104    1
     4    98    97    1
     5    98   101    1
     6    98    99    1
     7   100    99    2
     8    48    47    2
     9    52    51    2
    10   106   105    1
    11   104   105    2
    12    47    46    1
    13    51    53   am
    14    51    50    1
    15    46    45    1
    16    46    49    1
    17   105   107    1
    18    49    50    1
    19    89    90    1
    20    92    91    2
    21   111   110    2
    22    91    90    1
    23    90    93    1
    24    39    38    1
    25    76    77    1
    26   110   109    1
    27    79    78    2
    28    77    78    1
    29    77    80    1
    30    36    35    2
    31    78    84   am
    32    81    80    1
    33    81    82    1
    34    87    86    2
    35    38    40    1
    36    38    37    1
    37    93    94    1
    38    86    85    1
    39    57    56    2
    40    44    43    2
    41    54    55    1
    42   109   108    1
    43   109   112    1
    44    55    56    1
    45    55    58    1
    46    35    34    1
    47    35    41   am
    48    84    85    1
    49    95    94    1
    50    56    68   am
    51    34    37    1
    52    34    33    1
    53    94    96    1
    54    43    42    1
    55    82    83    1
    56    85    88    1
    57    58    59    1
    58    42    41    1
    59   112   113    1
    60    71    70    2
    61    70    69    1
    62    68    69    1
    63    59    60   ar
    64    59    61   ar
    65    69    72    1
    66   113   114   ar
    67   113   115   ar
    68   114   116   ar
    69   217   215    1
    70    60    62   ar
    71   153   152    2
    72   115   117   ar
    73   210   211    1
    74    61    64   ar
    75    61    63   ar
    76    64    66   ar
    77    24    22    1
    78   215   216    1
    79   215   214    1
    80   116   118   ar
    81    20    19    2
    82    28    27    2
    83   119   120    1
    84    72    73    1
    85   152   151    1
    86   211   214    1
    87   211   212    1
    88    62    63   ar
    89   117   118   ar
    90    27    26    1
    91    63    65   ar
    92    66    67   ar
    93    73    74    1
    94    74    75    1
    95    19    18    1
    96    19    25   am
    97   154   151    1
    98   154   155    1
    99    18    21    1
   100    18    17    1
   101   151   150    1
   102   122   121    2
   103   155   156    1
   104    22    21    1
   105    22    23    1
   106   120   121    1
   107   120   123    1
   108   156   157    1
   109   212   213    2
   110    26    25    1
   111    26    29    1
   112   164   163    1
   113    67    65   ar
   114   123   124    1
   115   123   125    1
   116   124   126    1
   117    29    30    1
   118   201   202    2
   119   201   200    1
   120   163   165    1
   121   163   162    1
   122   147   146    2
   123     4     3    2
   124    31    30    2
   125   162   159    1
   126    30    32   am
   127   200   203    1
   128   200   199    1
   129     7     5    1
   130    12    11    2
   131   203   204    1
   132   206   204   ar
   133   206   208   ar
   134   146   145    1
   135     3     2    1
   136     3     9   am
   137   149   148    1
   138     6     5    1
   139     6     8    1
   140   145   148    1
   141   145   144    1
   142     2     5    1
   143     2     1    1
   144   138   137    2
   145   204   205   ar
   146    11    10    1
   147   183   182    1
   148   208   209   ar
   149   159   158    1
   150   159   160    1
   151   160   161    2
   152    10     9    1
   153    10    13    1
   154   144   137   am
   155   137   136    1
   156   140   141    1
   157   140   139    1
   158   182   179    1
   159   143   141   am
   160   205   207   ar
   161   209   207   ar
   162   141   142    2
   163   133   134    1
   164   133   132    1
   165   139   136    1
   166    13    14    1
   167   136   135    1
   168   132   131    1
   169    14    15    1
   170   179   180    1
   171   179   178    1
   172   130   129    2
   173   180   181    2
   174   178   168   am
   175   197   195    1
   176   131   128    1
   177   193   194    2
   178   193   192    1
   179   129   128    1
   180    15    16    1
   181   128   127    1
   182   170   171    1
   183   170   167    1
   184   168   167    1
   185   168   169    2
   186   172   171   ar
   187   172   174   ar
   188   166   167    1
   189   192   195    1
   190   192   191    1
   191   195   196    1
   192   198   196    1
   193   171   173   ar
   194   174   176   ar
   195   190   188    1
   196   188   189    1
   197   188   185    1
   198   173   175   ar
   199   176   175   ar
   200   176   177    1
   201   186   187    2
   202   186   185    1
   203   185   184    1
