@<TRIPOS>MOLECULE
tmp/6el9A00.pdb
 212 199 0 0 0
SMALL
GASTEIGER

@<TRIPOS>ATOM
      1  N        -36.5410  -26.1910   14.5780 N.3    31  MET31      -0.1245
      2  CA       -35.4630  -25.2060   14.5910 C.3    31  MET31       0.1570
      3  C        -34.1690  -25.7720   14.0110 C.2    31  MET31       0.2261
      4  O        -33.4990  -25.0780   13.2550 O.2    31  MET31      -0.2867
      5  CB       -35.2150  -24.6920   16.0050 C.3    31  MET31       0.0387
      6  CG       -36.1970  -23.6300   16.4580 C.3    31  MET31       0.0595
      7  SD       -35.8980  -23.1860   18.2090 S.3    31  MET31      -0.1393
      8  CE       -34.3810  -22.1940   18.0690 C.3    31  MET31       0.0692
      9  N        -34.6320  -26.3960   10.1770 N.3    34  LEU34      -0.1231
     10  CA       -34.6410  -25.0880    9.5100 C.3    34  LEU34       0.1693
     11  C        -33.2650  -24.4320    9.4370 C.2    34  LEU34       0.2592
     12  O        -32.9900  -23.7170    8.4750 O.2    34  LEU34      -0.2718
     13  CB       -35.6790  -24.1440   10.1450 C.3    34  LEU34       0.0284
     14  CG       -37.1490  -24.5610    9.9580 C.3    34  LEU34       0.0019
     15  CD1      -38.0930  -23.5590   10.5880 C.3    34  LEU34       0.0001
     16  CD2      -37.4920  -24.7040    8.4970 C.3    34  LEU34       0.0001
     17  N        -32.3930  -24.6850   10.4340 N.am   35  ASN35      -0.1974
     18  CA       -31.0150  -24.1710   10.4170 C.3    35  ASN35       0.1688
     19  C        -30.2250  -24.8670    9.3280 C.2    35  ASN35       0.2292
     20  O        -29.5070  -24.1990    8.5820 O.2    35  ASN35      -0.2864
     21  CB       -30.3260  -24.3440   11.7840 C.3    35  ASN35       0.1181
     22  CG       -30.6530  -23.2670   12.7580 C.2    35  ASN35       0.2629
     23  OD1      -31.3240  -22.2910   12.4310 O.2    35  ASN35      -0.2716
     24  ND2      -30.2270  -23.4380   14.0040 N.am   35  ASN35      -0.0877
     25  N        -31.5070  -26.3370    6.6070 N.3    37  LEU37      -0.1231
     26  CA       -32.1210  -25.8650    5.3640 C.3    37  LEU37       0.1693
     27  C        -31.6110  -24.4560    5.0320 C.2    37  LEU37       0.2592
     28  O        -31.2580  -24.1940    3.8850 O.2    37  LEU37      -0.2718
     29  CB       -33.6800  -25.8920    5.4600 C.3    37  LEU37       0.0284
     30  CG       -34.4820  -25.2950    4.2650 C.3    37  LEU37       0.0019
     31  CD1      -34.2690  -26.1030    2.9410 C.3    37  LEU37       0.0001
     32  CD2      -35.9730  -25.1710    4.6160 C.3    37  LEU37       0.0001
     33  N        -31.5380  -23.5930    6.0460 N.am   38  GLY38      -0.1957
     34  CA       -31.0360  -22.2200    5.9300 C.3    38  GLY38       0.1869
     35  C        -29.6220  -22.1410    5.3850 C.2    38  GLY38       0.2309
     36  O        -29.3160  -21.2530    4.5970 O.2    38  GLY38      -0.2863
     37  N        -29.9270  -22.9210    1.6260 N.3    41  GLN41      -0.1245
     38  CA       -30.5390  -21.7280    1.0280 C.3    41  GLN41       0.1566
     39  C        -29.4850  -20.6220    0.8970 C.2    41  GLN41       0.2260
     40  O        -29.4690  -19.9390   -0.1240 O.2    41  GLN41      -0.2867
     41  CB       -31.7120  -21.2100    1.8900 C.3    41  GLN41       0.0367
     42  CG       -32.8090  -22.2290    2.1950 C.3    41  GLN41       0.0905
     43  CD       -33.9240  -22.3100    1.1840 C.2    41  GLN41       0.2608
     44  OE1      -33.7330  -22.1280   -0.0240 O.2    41  GLN41      -0.2717
     45  NE2      -35.1140  -22.6530    1.6600 N.am   41  GLN41      -0.0878
     46  N        -27.7090  -11.4350    4.5180 N.3    71  TRP71      -0.1227
     47  CA       -28.1390  -12.8350    4.4840 C.3    71  TRP71       0.1737
     48  C        -29.5400  -13.0810    5.0990 C.2    71  TRP71       0.2595
     49  O        -30.3900  -13.6800    4.4410 O.2    71  TRP71      -0.2718
     50  CB       -27.0710  -13.7470    5.1070 C.3    71  TRP71       0.0564
     51  CG       -26.9700  -13.6780    6.5970 C.ar   71  TRP71       0.0003
     52  CD1      -26.3830  -12.6980    7.3320 C.ar   71  TRP71       0.0946
     53  CD2      -27.5180  -14.6130    7.5350 C.ar   71  TRP71       0.0152
     54  NE1      -26.5310  -12.9610    8.6720 N.ar   71  TRP71      -0.2442
     55  CE2      -27.1820  -14.1580    8.8230 C.ar   71  TRP71       0.0810
     56  CE3      -28.2700  -15.7920    7.4100 C.ar   71  TRP71       0.0012
     57  CZ2      -27.5570  -14.8460    9.9830 C.ar   71  TRP71       0.0191
     58  CZ3      -28.6390  -16.4700    8.5600 C.ar   71  TRP71       0.0001
     59  CH2      -28.2710  -16.0060    9.8250 C.ar   71  TRP71       0.0015
     60  N        -29.7860  -12.5800    6.3210 N.am   72  MET72      -0.1979
     61  CA       -31.0590  -12.7630    7.0200 C.3    72  MET72       0.1605
     62  C        -32.2130  -12.0110    6.3320 C.2    72  MET72       0.2287
     63  O        -33.3240  -12.5500    6.2930 O.2    72  MET72      -0.2864
     64  CB       -30.9460  -12.4270    8.5370 C.3    72  MET72       0.0413
     65  CG       -32.2210  -12.7490    9.3470 C.3    72  MET72       0.0598
     66  SD       -32.7480  -14.5040    9.3380 S.3    72  MET72      -0.1393
     67  CE       -31.8740  -15.0760   10.7860 C.3    72  MET72       0.0692
     68  N        -33.0970  -14.1430    3.2830 N.3    75  MET75      -0.1230
     69  CA       -33.7810  -15.3580    3.7440 C.3    75  MET75       0.1702
     70  C        -35.2300  -15.0620    4.1240 C.2    75  MET75       0.2592
     71  O        -36.1290  -15.7460    3.6470 O.2    75  MET75      -0.2718
     72  CB       -33.0620  -16.0020    4.9480 C.3    75  MET75       0.0401
     73  CG       -31.6220  -16.4270    4.6990 C.3    75  MET75       0.0596
     74  SD       -31.4370  -17.9500    3.7700 S.3    75  MET75      -0.1393
     75  CE       -31.2690  -17.3070    2.1370 C.3    75  MET75       0.0692
     76  N        -35.4470  -14.0550    4.9970 N.am   76  ALA76      -0.1980
     77  CA       -36.7800  -13.6690    5.4770 C.3    76  ALA76       0.1597
     78  C        -37.6740  -13.1460    4.3460 C.2    76  ALA76       0.2287
     79  O        -38.8750  -13.4310    4.3350 O.2    76  ALA76      -0.2864
     80  CB       -36.6680  -12.6370    6.5990 C.3    76  ALA76       0.0319
     81  N        -37.3620  -13.8710    0.9810 N.3    78  ALA78      -0.1231
     82  CA       -37.6650  -14.9970    0.0880 C.3    78  ALA78       0.1694
     83  C        -38.6950  -15.9270    0.7230 C.2    78  ALA78       0.2591
     84  O        -39.6140  -16.3640    0.0370 O.2    78  ALA78      -0.2718
     85  CB       -36.3960  -15.7460   -0.2900 C.3    78  ALA78       0.0304
     86  N        -38.6090  -16.1310    2.0580 N.am   79  LEU79      -0.1980
     87  CA       -39.5780  -16.9160    2.8230 C.3    79  LEU79       0.1596
     88  C        -40.9720  -16.2440    2.8150 C.2    79  LEU79       0.2287
     89  O        -41.9650  -16.9380    2.6190 O.2    79  LEU79      -0.2864
     90  CB       -39.0770  -17.1560    4.2600 C.3    79  LEU79       0.0297
     91  CG       -40.0860  -17.7270    5.2710 C.3    79  LEU79       0.0022
     92  CD1      -40.4050  -19.1850    4.9750 C.3    79  LEU79       0.0001
     93  CD2      -39.5680  -17.5910    6.6770 C.3    79  LEU79       0.0001
     94  N        -42.5260  -16.8010   -0.6390 N.3    82  ARG82      -0.1245
     95  CA       -42.9880  -18.1770   -0.8120 C.3    82  ARG82       0.1563
     96  C        -44.2450  -18.4730   -0.0020 C.2    82  ARG82       0.2260
     97  O        -45.0910  -19.2260   -0.4620 O.2    82  ARG82      -0.2867
     98  CB       -41.8900  -19.2360   -0.5750 C.3    82  ARG82       0.0307
     99  CG       -42.1190  -20.3850   -1.5530 C.3    82  ARG82       0.0489
    100  CD       -41.0210  -21.3960   -1.6810 C.3    82  ARG82       0.2205
    101  NE       -39.8630  -20.8680   -2.3950 N.pl3  82  ARG82      -0.0865
    102  CZ       -38.6950  -21.4930   -2.4610 C.cat  82  ARG82       0.5346
    103  NH1      -37.6800  -20.9460   -3.1160 N.pl3  82  ARG82       0.1354
    104  NH2      -38.5280  -22.6650   -1.8610 N.pl3  82  ARG82       0.1354
    105  N        -44.1010  -20.9510    4.7830 N.3    93  CYS93      -0.1221
    106  CA       -43.7450  -22.0250    3.8690 C.3    93  CYS93       0.1808
    107  C        -42.2320  -22.0440    3.6780 C.2    93  CYS93       0.2601
    108  O        -41.7060  -21.4980    2.7050 O.2    93  CYS93      -0.2717
    109  CB       -44.5050  -21.8990    2.5460 C.3    93  CYS93       0.0970
    110  SG       -46.3050  -21.7310    2.7540 S.3    93  CYS93      -0.0800
    111  N        -41.5250  -22.6290    4.6550 N.am   94  PHE94      -0.1976
    112  CA       -40.0640  -22.7420    4.6240 C.3    94  PHE94       0.1639
    113  C        -39.6110  -23.6250    3.4970 C.2    94  PHE94       0.2290
    114  O        -38.6120  -23.3330    2.8440 O.2    94  PHE94      -0.2864
    115  CB       -39.5330  -23.2850    5.9430 C.3    94  PHE94       0.0560
    116  CG       -39.5020  -22.2650    7.0470 C.ar   94  PHE94      -0.0200
    117  CD1      -38.3970  -21.4370    7.2190 C.ar   94  PHE94      -0.0042
    118  CD2      -40.5580  -22.1590    7.9450 C.ar   94  PHE94      -0.0042
    119  CE1      -38.3600  -20.5070    8.2630 C.ar   94  PHE94      -0.0003
    120  CE2      -40.5060  -21.2420    9.0030 C.ar   94  PHE94      -0.0003
    121  CZ       -39.4170  -20.4100    9.1400 C.ar   94  PHE94      -0.0000
    122  N        -42.5850  -21.2550   19.4350 N.3   110  MET110     -0.1245
    123  CA       -42.6200  -21.2620   17.9740 C.3   110  MET110      0.1570
    124  C        -43.1270  -19.9220   17.4350 C.2   110  MET110      0.2261
    125  O        -42.4780  -19.3450   16.5640 O.2   110  MET110     -0.2867
    126  CB       -43.4590  -22.4360   17.4350 C.3   110  MET110      0.0387
    127  CG       -43.3140  -22.6550   15.9320 C.3   110  MET110      0.0595
    128  SD       -41.6210  -23.0330   15.4160 S.3   110  MET110     -0.1393
    129  CE       -41.5120  -24.7210   15.8740 C.3   110  MET110      0.0692
    130  N        -40.8040  -16.6080   17.5420 N.3   113  GLN113     -0.1231
    131  CA       -39.7670  -16.5610   16.5180 C.3   113  GLN113      0.1698
    132  C        -40.3830  -16.4350   15.1020 C.2   113  GLN113      0.2592
    133  O        -39.8640  -15.6810   14.2820 O.2   113  GLN113     -0.2718
    134  CB       -38.7570  -17.7170   16.6500 C.3   113  GLN113      0.0381
    135  CG       -39.3440  -19.1140   16.7650 C.3   113  GLN113      0.0905
    136  CD       -38.2720  -20.1230   17.0810 C.2   113  GLN113      0.2608
    137  OE1      -37.5260  -20.5710   16.2020 O.2   113  GLN113     -0.2717
    138  NE2      -38.1590  -20.4920   18.3460 N.am  113  GLN113     -0.0878
    139  N        -41.5460  -17.0700   14.8730 N.am  114  CYS114     -0.1970
    140  CA       -42.2960  -17.0540   13.6100 C.3   114  CYS114      0.1712
    141  C        -42.9580  -15.7100   13.2650 C.2   114  CYS114      0.2296
    142  O        -43.0480  -15.3790   12.0830 O.2   114  CYS114     -0.2864
    143  CB       -43.3190  -18.1850   13.5850 C.3   114  CYS114      0.0983
    144  SG       -42.6030  -19.8170   13.2700 S.3   114  CYS114     -0.0798
    145  N        -41.3160  -13.1490   10.8180 N.3   117  MET117     -0.1245
    146  CA       -41.3420  -13.6550    9.4480 C.3   117  MET117      0.1570
    147  C        -42.7440  -13.5440    8.8940 C.2   117  MET117      0.2261
    148  O        -42.8960  -13.1470    7.7390 O.2   117  MET117     -0.2867
    149  CB       -40.8190  -15.0910    9.3870 C.3   117  MET117      0.0387
    150  CG       -39.3240  -15.1550    9.4880 C.3   117  MET117      0.0595
    151  SD       -38.6630  -16.7520   10.0090 S.3   117  MET117     -0.1393
    152  CE       -39.6210  -17.1000   11.4040 C.3   117  MET117      0.0692
    153  N        -34.9780  -11.0320   14.3220 N.3   203  LEU203     -0.1245
    154  CA       -34.5880  -12.4020   13.9680 C.3   203  LEU203      0.1561
    155  C        -33.1480  -12.7110   14.3900 C.2   203  LEU203      0.2260
    156  O        -32.8720  -13.8410   14.8000 O.2   203  LEU203     -0.2867
    157  CB       -34.7520  -12.6820   12.4600 C.3   203  LEU203      0.0270
    158  CG       -36.1710  -12.6630   11.8910 C.3   203  LEU203      0.0019
    159  CD1      -36.1330  -12.6540   10.4050 C.3   203  LEU203      0.0001
    160  CD2      -37.0240  -13.8120   12.4370 C.3   203  LEU203      0.0001
    161  N        -32.7000  -13.5640   18.2450 N.3   206  TYR206     -0.1227
    162  CA       -33.0060  -14.9800   18.4760 C.3   206  TYR206      0.1736
    163  C        -31.8170  -15.8180   17.9780 C.2   206  TYR206      0.2595
    164  O        -31.3310  -16.6990   18.6930 O.2   206  TYR206     -0.2718
    165  CB       -34.2420  -15.3930   17.6520 C.3   206  TYR206      0.0548
    166  CG       -35.4720  -15.7310   18.4580 C.ar  206  TYR206     -0.0200
    167  CD1      -35.6220  -16.9860   19.0440 C.ar  206  TYR206     -0.0009
    168  CD2      -36.5320  -14.8320   18.5600 C.ar  206  TYR206     -0.0009
    169  CE1      -36.7600  -17.3090   19.7860 C.ar  206  TYR206      0.0417
    170  CE2      -37.6740  -15.1400   19.3040 C.ar  206  TYR206      0.0417
    171  CZ       -37.7840  -16.3820   19.9130 C.ar  206  TYR206      0.1957
    172  OH       -38.9140  -16.7050   20.6260 O.3   206  TYR206     -0.2866
    173  N        -31.3620  -15.5290   16.7400 N.am  207  CYS207     -0.1970
    174  CA       -30.2600  -16.2030   16.0640 C.3   207  CYS207      0.1712
    175  C        -28.9340  -16.1770   16.8550 C.2   207  CYS207      0.2296
    176  O        -28.3360  -17.2320   17.0560 O.2   207  CYS207     -0.2864
    177  CB       -30.0810  -15.6480   14.6560 C.3   207  CYS207      0.0983
    178  SG       -28.6950  -16.3730   13.7620 S.3   207  CYS207     -0.0798
    179  N        -29.2960  -18.0420   20.3300 N.3   210  THR210     -0.1218
    180  CA       -29.3980  -19.4770   20.0470 C.3   210  THR210      0.1862
    181  C        -28.0290  -20.0440   19.6180 C.2   210  THR210      0.2287
    182  O        -27.6810  -21.1770   19.9820 O.2   210  THR210     -0.2866
    183  CB       -30.5550  -19.6990   19.0420 C.3   210  THR210      0.1770
    184  OG1      -31.7950  -19.6450   19.7380 O.3   210  THR210     -0.2211
    185  CG2      -30.4880  -20.9860   18.3320 C.3   210  THR210      0.0375
    186  N        -25.9790  -25.3130   13.9430 N.3   220  PHE220     -0.1241
    187  CA       -25.8900  -24.3950   12.8300 C.3   220  PHE220      0.1605
    188  C        -24.9070  -24.9950   11.8330 C.2   220  PHE220      0.2264
    189  O        -23.8180  -25.4280   12.2320 O.2   220  PHE220     -0.2867
    190  CB       -25.4020  -23.0090   13.2600 C.3   220  PHE220      0.0534
    191  CG       -26.4490  -22.2140   13.9970 C.ar  220  PHE220     -0.0203
    192  CD1      -26.6720  -22.4170   15.3550 C.ar  220  PHE220     -0.0042
    193  CD2      -27.2120  -21.2620   13.3380 C.ar  220  PHE220     -0.0042
    194  CE1      -27.6650  -21.7100   16.0220 C.ar  220  PHE220     -0.0003
    195  CE2      -28.1730  -20.5240   14.0240 C.ar  220  PHE220     -0.0003
    196  CZ       -28.3810  -20.7430   15.3600 C.ar  220  PHE220     -0.0000
    197  N        -23.7990  -20.9080    7.9460 N.3   224  LEU224     -0.1245
    198  CA       -24.4120  -19.9630    8.8820 C.3   224  LEU224      0.1561
    199  C        -23.5100  -19.6590   10.0600 C.2   224  LEU224      0.2260
    200  O        -23.3900  -18.4900   10.4130 O.2   224  LEU224     -0.2867
    201  CB       -25.8090  -20.4270    9.3490 C.3   224  LEU224      0.0270
    202  CG       -26.8380  -20.7130    8.2500 C.3   224  LEU224      0.0019
    203  CD1      -28.1690  -21.0980    8.8590 C.3   224  LEU224      0.0001
    204  CD2      -26.9960  -19.5220    7.3190 C.3   224  LEU224      0.0001
    205  N        -22.4530  -15.8480   11.1300 N.3   228  ILE228     -0.1245
    206  CA       -22.7950  -15.4060   12.5020 C.3   228  ILE228      0.1561
    207  C        -21.5340  -14.9930   13.2920 C.2   228  ILE228      0.2260
    208  O        -21.5330  -13.9400   13.9180 O.2   228  ILE228     -0.2867
    209  CB       -23.6900  -16.4510   13.2530 C.3   228  ILE228      0.0252
    210  CG1      -25.0320  -16.6510   12.4950 C.3   228  ILE228      0.0019
    211  CG2      -23.9630  -16.0210   14.7050 C.3   228  ILE228      0.0019
    212  CD1      -25.6460  -18.0200   12.6900 C.3   228  ILE228      0.0001
@<TRIPOS>BOND
     1   103   102    1
     2   102   101    2
     3   102   104    1
     4   101   100    1
     5   100    99    1
     6    99    98    1
     7    95    94    1
     8    95    98    1
     9    95    96    1
    10    97    96    2
    11    85    82    1
    12    40    39    2
    13    44    43    2
    14    84    83    2
    15    82    83    1
    16    82    81    1
    17    83    86   am
    18    39    38    1
    19    38    37    1
    20    38    41    1
    21    43    45   am
    22    43    42    1
    23    41    42    1
    24    86    87    1
    25    75    74    1
    26   109   110    1
    27   109   106    1
    28    89    88    2
    29   108   107    2
    30    88    87    1
    31    87    90    1
    32   114   113    2
    33    31    30    1
    34    68    69    1
    35   113   112    1
    36    71    70    2
    37   107   106    1
    38   107   111   am
    39    69    70    1
    40    69    72    1
    41    74    73    1
    42   106   105    1
    43    28    27    2
    44    70    76   am
    45    90    91    1
    46    30    32    1
    47    30    29    1
    48    79    78    2
    49    78    77    1
    50    49    48    2
    51    47    46    1
    52    47    48    1
    53    47    50    1
    54    36    35    2
    55   112   111    1
    56   112   115    1
    57    73    72    1
    58    92    91    1
    59    76    77    1
    60    27    26    1
    61    27    33   am
    62    48    60   am
    63    50    51    1
    64    91    93    1
    65    26    29    1
    66    26    25    1
    67    35    34    1
    68    77    80    1
    69    34    33    1
    70   115   116    1
    71    63    62    2
    72    60    61    1
    73    62    61    1
    74    51    52   ar
    75    51    53   ar
    76    61    64    1
    77   116   117   ar
    78   116   118   ar
    79   117   119   ar
    80   204   202    1
    81    52    54   ar
    82    56    53   ar
    83    56    58   ar
    84    53    55   ar
    85   148   147    2
    86   118   120   ar
    87   197   198    1
    88   202   203    1
    89   202   201    1
    90   119   121   ar
    91    12    11    2
    92    16    14    1
    93    64    65    1
    94    58    59   ar
    95    20    19    2
    96    54    55   ar
    97    55    57   ar
    98   198   201    1
    99   198   199    1
   100   147   146    1
   101   120   121   ar
   102    19    18    1
   103    66    65    1
   104    66    67    1
   105   149   146    1
   106   149   150    1
   107    11    10    1
   108    11    17   am
   109   146   145    1
   110   150   151    1
   111    10    13    1
   112    10     9    1
   113    59    57   ar
   114    14    13    1
   115    14    15    1
   116   151   152    1
   117   199   200    2
   118   159   158    1
   119    18    17    1
   120    18    21    1
   121   205   206    1
   122    21    22    1
   123   188   189    2
   124   188   187    1
   125   158   160    1
   126   158   157    1
   127   142   141    2
   128    23    22    2
   129   157   154    1
   130   210   212    1
   131   210   209    1
   132   206   209    1
   133   206   207    1
   134    22    24   am
   135   187   190    1
   136   187   186    1
   137   209   211    1
   138     4     3    2
   139   190   191    1
   140   141   140    1
   141   144   143    1
   142   207   208    2
   143   193   191   ar
   144   193   195   ar
   145   143   140    1
   146   140   139    1
   147   178   177    1
   148   154   153    1
   149   154   155    1
   150   191   192   ar
   151     3     2    1
   152   195   196   ar
   153   133   132    2
   154   155   156    2
   155     1     2    1
   156     2     5    1
   157   177   174    1
   158   139   132   am
   159   132   131    1
   160   192   194   ar
   161   196   194   ar
   162   128   129    1
   163   128   127    1
   164   127   126    1
   165     5     6    1
   166   174   173    1
   167   174   175    1
   168   137   136    2
   169     6     7    1
   170   131   134    1
   171   131   130    1
   172   125   124    2
   173   134   135    1
   174   173   163   am
   175   135   136    1
   176   175   176    2
   177   136   138   am
   178   126   123    1
   179   124   123    1
   180   165   166    1
   181   165   162    1
   182   123   122    1
   183   163   162    1
   184   163   164    2
   185     8     7    1
   186   161   162    1
   187   185   183    1
   188   166   168   ar
   189   166   167   ar
   190   168   170   ar
   191   183   184    1
   192   183   180    1
   193   167   169   ar
   194   170   171   ar
   195   181   182    2
   196   181   180    1
   197   169   171   ar
   198   171   172    1
   199   180   179    1
