@<TRIPOS>MOLECULE
tmp/6elaB00.pdb
 180 179 0 0 0
SMALL
GASTEIGER

@<TRIPOS>ATOM
      1  N         14.3230  -22.1090   33.5280 N.3    67  HIS67      -0.1241
      2  CA        14.0570  -20.7370   33.9640 C.3    67  HIS67       0.1621
      3  C         13.5290  -20.7780   35.3960 C.2    67  HIS67       0.2264
      4  O         12.3290  -20.6830   35.6470 O.2    67  HIS67      -0.2867
      5  CB        13.0870  -20.0630   32.9800 C.3    67  HIS67       0.0745
      6  CG        13.6440  -19.9500   31.5990 C.ar   67  HIS67       0.0817
      7  ND1       14.4710  -18.9170   31.2170 N.ar   67  HIS67      -0.2268
      8  CD2       13.5460  -20.7720   30.5270 C.ar   67  HIS67       0.1154
      9  CE1       14.8340  -19.0910   29.9580 C.ar   67  HIS67       0.1986
     10  NE2       14.2890  -20.2110   29.5170 N.ar   67  HIS67      -0.2212
     11  N          9.8260  -10.2870   43.1340 N.3    74  GLY74      -0.1210
     12  CA        10.6210  -10.4080   41.9210 C.3    74  GLY74       0.1956
     13  C          9.7760  -10.9380   40.7800 C.2    74  GLY74       0.2612
     14  O          8.6720  -10.4490   40.5150 O.2    74  GLY74      -0.2717
     15  N         10.2870  -11.9700   40.1050 N.am   75  ILE75      -0.1965
     16  CA         9.5370  -12.6210   39.0330 C.3    75  ILE75       0.1727
     17  C          8.3160  -13.2980   39.6360 C.2    75  ILE75       0.2616
     18  O          8.4380  -14.1480   40.5230 O.2    75  ILE75      -0.2715
     19  CB        10.4230  -13.6270   38.2870 C.3    75  ILE75       0.0290
     20  CG1       11.6250  -12.9050   37.6650 C.3    75  ILE75       0.0022
     21  CG2        9.6190  -14.3580   37.1930 C.3    75  ILE75       0.0023
     22  CD1       12.6300  -13.8330   36.9850 C.3    75  ILE75       0.0001
     23  N          7.1260  -12.9190   39.1620 N.am   76  LEU76      -0.1963
     24  CA         5.9000  -13.4780   39.7150 C.3    76  LEU76       0.1728
     25  C          5.4180  -14.6940   38.9470 C.2    76  LEU76       0.2616
     26  O          4.6980  -15.5350   39.5150 O.2    76  LEU76      -0.2715
     27  CB         4.7980  -12.4200   39.7020 C.3    76  LEU76       0.0311
     28  CG         5.1880  -11.1100   40.3810 C.3    76  LEU76       0.0022
     29  CD1        4.0740  -10.0850   40.2250 C.3    76  LEU76       0.0001
     30  CD2        5.4920  -11.3600   41.8530 C.3    76  LEU76       0.0001
     31  N          5.8080  -14.7970   37.6840 N.am   77  ALA77      -0.1963
     32  CA         5.2980  -15.7780   36.7390 C.3    77  ALA77       0.1728
     33  C          6.0670  -15.5720   35.4450 C.2    77  ALA77       0.2616
     34  O          6.8290  -14.6140   35.2970 O.2    77  ALA77      -0.2715
     35  CB         3.8050  -15.5840   36.4520 C.3    77  ALA77       0.0334
     36  N          5.8590  -16.4900   34.5040 N.am   78  HIS78      -0.1973
     37  CA         6.4690  -16.3660   33.1880 C.3    78  HIS78       0.1656
     38  C          5.7290  -17.2760   32.2160 C.2    78  HIS78       0.2291
     39  O          5.0880  -18.2520   32.6190 O.2    78  HIS78      -0.2864
     40  CB         8.0050  -16.5590   33.2170 C.3    78  HIS78       0.0771
     41  CG         8.4780  -17.9220   33.6470 C.ar   78  HIS78       0.0820
     42  ND1        9.7550  -18.1330   34.1260 N.ar   78  HIS78      -0.2267
     43  CD2        7.8840  -19.1380   33.6260 C.ar   78  HIS78       0.1154
     44  CE1        9.9230  -19.4160   34.3910 C.ar   78  HIS78       0.1986
     45  NE2        8.8010  -20.0490   34.0960 N.ar   78  HIS78      -0.2212
     46  N         -5.2800  -11.0210   37.2040 N.3   109  LEU109     -0.1231
     47  CA        -4.5170  -10.0050   36.4760 C.3   109  LEU109      0.1693
     48  C         -3.1840  -10.5550   35.9900 C.2   109  LEU109      0.2592
     49  O         -2.7480  -10.2520   34.8760 O.2   109  LEU109     -0.2718
     50  CB        -4.2770   -8.7730   37.3540 C.3   109  LEU109      0.0284
     51  CG        -5.4920   -7.9650   37.8110 C.3   109  LEU109      0.0019
     52  CD1       -5.0860   -6.9200   38.8350 C.3   109  LEU109      0.0001
     53  CD2       -6.1790   -7.3030   36.6250 C.3   109  LEU109      0.0001
     54  N         -2.5200  -11.3620   36.8150 N.am  110  THR110     -0.1953
     55  CA        -1.2590  -11.9620   36.3830 C.3   110  THR110      0.1897
     56  C         -1.4900  -12.9140   35.2180 C.2   110  THR110      0.2313
     57  O         -0.7050  -12.9470   34.2590 O.2   110  THR110     -0.2863
     58  CB        -0.6070  -12.6780   37.5680 C.3   110  THR110      0.1794
     59  OG1       -0.4370  -11.7430   38.6450 O.3   110  THR110     -0.2208
     60  CG2        0.7550  -13.2340   37.1980 C.3   110  THR110      0.0378
     61  N         -1.8650  -11.1020   31.9050 N.3   113  HIS113     -0.1226
     62  CA        -0.5500  -10.7120   31.4130 C.3   113  HIS113      0.1752
     63  C          0.2080  -11.9020   30.8240 C.2   113  HIS113      0.2595
     64  O          0.7530  -11.8200   29.7150 O.2   113  HIS113     -0.2718
     65  CB         0.2250  -10.0630   32.5630 C.3   113  HIS113      0.0759
     66  CG         1.6090   -9.6380   32.1970 C.ar  113  HIS113      0.0818
     67  ND1        1.9220   -8.3320   31.8680 N.ar  113  HIS113     -0.2268
     68  CD2        2.7620  -10.3400   32.1170 C.ar  113  HIS113      0.1154
     69  CE1        3.2150   -8.2540   31.6000 C.ar  113  HIS113      0.1986
     70  NE2        3.7410   -9.4600   31.7320 N.ar  113  HIS113     -0.2212
     71  N          0.2540  -13.0260   31.5540 N.am  114  GLU114     -0.1979
     72  CA         1.0360  -14.1700   31.0870 C.3   114  GLU114      0.1602
     73  C          0.4220  -14.8090   29.8450 C.2   114  GLU114      0.2287
     74  O          1.1480  -15.2090   28.9240 O.2   114  GLU114     -0.2864
     75  CB         1.2110  -15.1930   32.2140 C.3   114  GLU114      0.0415
     76  CG         1.9920  -14.6380   33.3980 C.3   114  GLU114      0.1163
     77  CD         3.4020  -14.1810   33.0070 C.2   114  GLU114      0.3649
     78  OE1        3.9450  -14.6510   31.9960 O.co2 114  GLU114     -0.2457
     79  OE2        3.9470  -13.3160   33.7300 O.co2 114  GLU114     -0.2457
     80  N          1.5630  -13.1290   26.8340 N.3   117  HIS117     -0.1241
     81  CA         2.8310  -13.6940   26.3780 C.3   117  HIS117      0.1621
     82  C          2.6300  -15.0410   25.6800 C.2   117  HIS117      0.2264
     83  O          3.2610  -15.3130   24.6510 O.2   117  HIS117     -0.2867
     84  CB         3.7820  -13.8730   27.5650 C.3   117  HIS117      0.0745
     85  CG         4.3580  -12.5990   28.1170 C.ar  117  HIS117      0.0817
     86  ND1        4.7580  -11.5430   27.3250 N.ar  117  HIS117     -0.2268
     87  CD2        4.6570  -12.2450   29.3900 C.ar  117  HIS117      0.1154
     88  CE1        5.2560  -10.5860   28.0900 C.ar  117  HIS117      0.1986
     89  NE2        5.2030  -10.9860   29.3480 N.ar  117  HIS117     -0.2212
     90  N          5.9800   -6.7070   25.7650 N.3   123  HIS123     -0.1241
     91  CA         5.5370   -5.7200   26.7400 C.3   123  HIS123      0.1621
     92  C          5.1300   -4.4040   26.0840 C.2   123  HIS123      0.2264
     93  O          5.5120   -4.0930   24.9570 O.2   123  HIS123     -0.2867
     94  CB         6.6110   -5.4850   27.7990 C.3   123  HIS123      0.0745
     95  CG         6.7120   -6.6000   28.7870 C.ar  123  HIS123      0.0817
     96  ND1        7.9160   -7.0220   29.3100 N.ar  123  HIS123     -0.2268
     97  CD2        5.7570   -7.3860   29.3460 C.ar  123  HIS123      0.1154
     98  CE1        7.7010   -8.0210   30.1500 C.ar  123  HIS123      0.1986
     99  NE2        6.4000   -8.2660   30.1830 N.ar  123  HIS123     -0.2212
    100  N         -0.8980    1.8020   31.6690 N.3   128  LYS128     -0.1231
    101  CA        -2.2540    1.3010   31.8610 C.3   128  LYS128      0.1693
    102  C         -2.5110   -0.0030   31.1220 C.2   128  LYS128      0.2592
    103  O         -3.5910   -0.5840   31.2750 O.2   128  LYS128     -0.2718
    104  CB        -3.2660    2.3380   31.3740 C.3   128  LYS128      0.0285
    105  CG        -3.1870    3.6690   32.1030 C.3   128  LYS128      0.0035
    106  CD        -3.5870    3.5110   33.5650 C.3   128  LYS128      0.0206
    107  CE        -3.9120    4.8540   34.2070 C.3   128  LYS128      0.1093
    108  NZ        -4.3110    4.7000   35.6360 N.3   128  LYS128     -0.1314
    109  N         -1.5670   -0.4570   30.3130 N.am  129  ALA129     -0.1966
    110  CA        -1.7210   -1.6990   29.5710 C.3   129  ALA129      0.1728
    111  C         -1.5040   -2.8990   30.4800 C.2   129  ALA129      0.2616
    112  O         -0.6580   -2.8780   31.3820 O.2   129  ALA129     -0.2715
    113  CB        -0.6950   -1.7460   28.4410 C.3   129  ALA129      0.0334
    114  N         -2.2800   -3.9580   30.2390 N.am  130  VAL130     -0.1977
    115  CA        -2.0480   -5.1870   30.9870 C.3   130  VAL130      0.1596
    116  C         -0.6860   -5.7940   30.6660 C.2   130  VAL130      0.2287
    117  O         -0.1390   -6.5400   31.4910 O.2   130  VAL130     -0.2864
    118  CB        -3.2040   -6.1950   30.8330 C.3   130  VAL130      0.0276
    119  CG1       -3.1220   -6.9340   29.5020 C.3   130  VAL130      0.0022
    120  CG2       -3.2060   -7.1750   32.0220 C.3   130  VAL130      0.0022
    121  N          2.0410   -4.0370   30.3380 N.3   132  PHE132     -0.1228
    122  CA         3.1140   -3.2850   30.9750 C.3   132  PHE132      0.1721
    123  C          4.0020   -4.2470   31.7700 C.2   132  PHE132      0.2437
    124  O          3.5220   -5.2550   32.2880 O.2   132  PHE132     -0.2733
    125  CB         2.4950   -2.2540   31.9200 C.3   132  PHE132      0.0547
    126  CG         3.4550   -1.1910   32.3860 C.ar  132  PHE132     -0.0202
    127  CD1        4.0430   -0.3220   31.4700 C.ar  132  PHE132     -0.0042
    128  CD2        3.7260   -1.0320   33.7320 C.ar  132  PHE132     -0.0042
    129  CE1        4.9220    0.6690   31.8930 C.ar  132  PHE132     -0.0003
    130  CE2        4.5870   -0.0350   34.1750 C.ar  132  PHE132     -0.0003
    131  CZ         5.1910    0.8170   33.2480 C.ar  132  PHE132     -0.0000
    132  N          5.3130   -3.9840   31.8620 N.am  133  PRO133     -0.2718
    133  CA         6.2010   -4.9520   32.5410 C.3   133  PRO133      0.1535
    134  C          5.9920   -5.0840   34.0390 C.2   133  PRO133      0.2599
    135  O          6.3880   -6.1130   34.6030 O.2   133  PRO133     -0.2715
    136  CB         7.6080   -4.4240   32.2270 C.3   133  PRO133      0.0310
    137  CG         7.4340   -3.6930   30.9490 C.3   133  PRO133      0.0237
    138  CD         6.0910   -3.0180   31.0660 C.3   133  PRO133      0.0939
    139  N          5.4090   -4.0930   34.7110 N.am  134  THR134     -0.1937
    140  CA         5.3840   -4.0630   36.1680 C.3   134  THR134      0.2028
    141  C          4.0000   -4.4150   36.6880 C.2   134  THR134      0.2642
    142  O          3.0090   -3.7720   36.3240 O.2   134  THR134     -0.2714
    143  CB         5.7800   -2.6850   36.6860 C.3   134  THR134      0.1808
    144  OG1        7.0040   -2.2880   36.0570 O.3   134  THR134     -0.2208
    145  CG2        5.9850   -2.7490   38.1870 C.3   134  THR134      0.0379
    146  N          3.9410   -5.4210   37.5520 N.am  135  TYR135     -0.1959
    147  CA         2.6740   -5.7610   38.1780 C.3   135  TYR135      0.1771
    148  C          2.2400   -4.6550   39.1310 C.2   135  TYR135      0.2619
    149  O          3.0460   -4.0890   39.8740 O.2   135  TYR135     -0.2715
    150  CB         2.7930   -7.0710   38.9570 C.3   135  TYR135      0.0574
    151  CG         1.5700   -7.3670   39.8010 C.ar  135  TYR135     -0.0198
    152  CD1        0.4830   -8.0440   39.2630 C.ar  135  TYR135     -0.0009
    153  CD2        1.4980   -6.9510   41.1260 C.ar  135  TYR135     -0.0009
    154  CE1       -0.6470   -8.3030   40.0280 C.ar  135  TYR135      0.0417
    155  CE2        0.3690   -7.2020   41.8970 C.ar  135  TYR135      0.0417
    156  CZ        -0.6920   -7.8800   41.3450 C.ar  135  TYR135      0.1957
    157  OH        -1.8120   -8.1250   42.1210 O.3   135  TYR135     -0.2866
    158  N          0.9450   -4.3590   39.1120 N.am  136  ALA136     -0.1977
    159  CA         0.3240   -3.5570   40.1470 C.3   136  ALA136      0.1597
    160  C         -1.1420   -3.9380   40.1460 C.2   136  ALA136      0.2287
    161  O         -1.7180   -4.1810   39.0820 O.2   136  ALA136     -0.2864
    162  CB         0.4760   -2.0520   39.8820 C.3   136  ALA136      0.0319
    163  N         -4.9690   -3.4340   40.0310 N.3   138  VAL138     -0.1245
    164  CA        -5.9300   -2.4690   39.5280 C.3   138  VAL138      0.1561
    165  C         -7.3090   -2.9700   39.9380 C.2   138  VAL138      0.2260
    166  O         -7.5070   -4.1580   40.2070 O.2   138  VAL138     -0.2867
    167  CB        -5.8380   -2.3010   37.9940 C.3   138  VAL138      0.0252
    168  CG1       -4.4400   -1.8230   37.5960 C.3   138  VAL138      0.0019
    169  CG2       -6.1660   -3.6190   37.2750 C.3   138  VAL138      0.0019
    170  N        -11.6280   -3.3080   35.2820 N.3   143  PHE143     -0.1241
    171  CA       -10.5190   -3.7620   34.4590 C.3   143  PHE143      0.1605
    172  C        -10.9010   -3.7580   32.9850 C.2   143  PHE143      0.2264
    173  O        -11.9900   -4.1940   32.5980 O.2   143  PHE143     -0.2867
    174  CB       -10.0610   -5.1640   34.8610 C.3   143  PHE143      0.0534
    175  CG        -9.0800   -5.7570   33.8850 C.ar  143  PHE143     -0.0203
    176  CD1       -7.7310   -5.4420   33.9660 C.ar  143  PHE143     -0.0042
    177  CD2       -9.5160   -6.5590   32.8450 C.ar  143  PHE143     -0.0042
    178  CE1       -6.8290   -5.9610   33.0490 C.ar  143  PHE143     -0.0003
    179  CE2       -8.6140   -7.0730   31.9240 C.ar  143  PHE143     -0.0003
    180  CZ        -7.2760   -6.7700   32.0290 C.ar  143  PHE143     -0.0000
@<TRIPOS>BOND
     1    83    82    2
     2    93    92    2
     3    82    81    1
     4    90    91    1
     5    92    91    1
     6    81    80    1
     7    81    84    1
     8    91    94    1
     9    86    88   ar
    10    86    85   ar
    11    84    85    1
    12    94    95    1
    13    88    89   ar
    14    85    87   ar
    15   113   110    1
    16    95    96   ar
    17    95    97   ar
    18    74    73    2
    19    96    98   ar
    20    97    99   ar
    21    89    87   ar
    22   119   118    1
    23    10     9   ar
    24    10     8   ar
    25   110   109    1
    26   110   111    1
    27    64    63    2
    28    73    72    1
    29     9     7   ar
    30    98    99   ar
    31   114   111   am
    32   114   115    1
    33   109   102   am
    34   121   122    1
    35   111   112    2
    36     8     6   ar
    37   116   115    1
    38   116   117    2
    39    63    62    1
    40    63    71   am
    41   118   115    1
    42   118   120    1
    43   137   138    1
    44   137   136    1
    45   122   123    1
    46   122   125    1
    47   138   132    1
    48    72    71    1
    49    72    75    1
    50   102   103    2
    51   102   101    1
    52     7     6   ar
    53   104   101    1
    54   104   105    1
    55    62    61    1
    56    62    65    1
    57   127   129   ar
    58   127   126   ar
    59     6     5    1
    60    69    70   ar
    61    69    67   ar
    62   100   101    1
    63    70    68   ar
    64   123   132   am
    65   123   124    2
    66   132   133    1
    67    67    66   ar
    68   129   131   ar
    69   125   126    1
    70   179   180   ar
    71   179   177   ar
    72    78    77   ar
    73   180   178   ar
    74   105   106    1
    75    68    66   ar
    76    66    65    1
    77    75    76    1
    78    38    39    2
    79    38    37    1
    80   136   133    1
    81   126   128   ar
    82   133   134    1
    83   173   172    2
    84   177   175   ar
    85     5     2    1
    86   172   171    1
    87    77    76    1
    88    77    79   ar
    89   178   176   ar
    90    37    40    1
    91    37    36    1
    92    40    41    1
    93   131   130   ar
    94     1     2    1
    95   106   107    1
    96    43    41   ar
    97    43    45   ar
    98    41    42   ar
    99   128   130   ar
   100   175   176   ar
   101   175   174    1
   102     2     3    1
   103   134   135    2
   104   134   139   am
   105    45    44   ar
   106    42    44   ar
   107   107   108    1
   108    57    56    2
   109   171   174    1
   110   171   170    1
   111    36    33   am
   112   139   140    1
   113    49    48    2
   114    56    55    1
   115    34    33    2
   116     3     4    2
   117    33    32    1
   118    48    47    1
   119    48    54   am
   120   144   143    1
   121   140   143    1
   122   140   141    1
   123   142   141    2
   124    55    54    1
   125    55    58    1
   126    35    32    1
   127    47    46    1
   128    47    50    1
   129    53    51    1
   130   143   145    1
   131   141   146   am
   132    32    31    1
   133    22    20    1
   134    21    19    1
   135    60    58    1
   136   169   167    1
   137    50    51    1
   138   146   147    1
   139    58    59    1
   140   168   167    1
   141    20    19    1
   142    31    25   am
   143    51    52    1
   144   167   164    1
   145   147   150    1
   146   147   148    1
   147    19    16    1
   148    25    26    2
   149    25    24    1
   150   150   151    1
   151    16    17    1
   152    16    15    1
   153   161   160    2
   154   158   148   am
   155   158   159    1
   156   148   149    2
   157    23    17   am
   158    23    24    1
   159   152   151   ar
   160   152   154   ar
   161   164   165    1
   162   164   163    1
   163    17    18    2
   164    27    24    1
   165    27    28    1
   166   151   153   ar
   167   162   159    1
   168   165   166    2
   169   154   156   ar
   170    15    13   am
   171   160   159    1
   172    29    28    1
   173    28    30    1
   174    14    13    2
   175    13    12    1
   176   153   155   ar
   177   156   155   ar
   178   156   157    1
   179    12    11    1
