@<TRIPOS>MOLECULE
tmp/6elcA01.pdb
 99 99 0 0 0
SMALL
GASTEIGER

@<TRIPOS>ATOM
      1  N         -6.5170    1.3270  -24.6590 N.3    52  SER52      -0.1202
      2  CA        -7.8250    1.8550  -24.9340 C.3    52  SER52       0.2020
      3  C         -8.2010    1.7030  -26.4210 C.2    52  SER52       0.2619
      4  O         -7.3640    1.3840  -27.2860 O.2    52  SER52      -0.2717
      5  CB        -7.8880    3.3190  -24.5370 C.3    52  SER52       0.2103
      6  OG        -7.5380    3.5090  -23.1780 O.3    52  SER52      -0.2182
      7  N         -9.4880    1.8940  -26.6710 N.am   53  SER53      -0.1951
      8  CA       -10.1020    1.7370  -28.0100 C.3    53  SER53       0.1924
      9  C         -9.6040    2.8750  -28.9160 C.2    53  SER53       0.2314
     10  O         -9.1420    3.9270  -28.4330 O.2    53  SER53      -0.2863
     11  CB       -11.6360    1.8160  -27.8810 C.3    53  SER53       0.2116
     12  OG       -12.0670    3.1190  -27.4110 O.3    53  SER53      -0.2180
     13  N        -11.3780    6.0800  -28.1360 N.3    56  TRP56      -0.1241
     14  CA       -10.8680    6.8200  -26.9860 C.3    56  TRP56       0.1605
     15  C         -9.5400    7.5620  -27.3160 C.2    56  TRP56       0.2264
     16  O         -9.3010    8.7120  -26.9720 O.2    56  TRP56      -0.2867
     17  CB       -10.5860    5.8370  -25.8220 C.3    56  TRP56       0.0550
     18  CG       -10.0740    6.5650  -24.6450 C.ar   56  TRP56       0.0003
     19  CD1       -8.7780    6.6340  -24.2080 C.ar   56  TRP56       0.0946
     20  CD2      -10.8300    7.4120  -23.7960 C.ar   56  TRP56       0.0152
     21  NE1       -8.7120    7.4520  -23.0880 N.ar   56  TRP56      -0.2442
     22  CE2       -9.9600    7.9480  -22.8340 C.ar   56  TRP56       0.0810
     23  CE3      -12.1830    7.7350  -23.7250 C.ar   56  TRP56       0.0012
     24  CZ2      -10.4060    8.8310  -21.8360 C.ar   56  TRP56       0.0191
     25  CZ3      -12.6180    8.5750  -22.7550 C.ar   56  TRP56       0.0001
     26  CH2      -11.7580    9.1310  -21.8290 C.ar   56  TRP56       0.0015
     27  N        -18.1550   16.9260  -22.6110 N.3    66  PHE66      -0.1241
     28  CA       -17.4270   16.5480  -21.3850 C.3    66  PHE66       0.1605
     29  C        -16.6220   17.6610  -20.7440 C.2    66  PHE66       0.2264
     30  O        -15.9430   17.4530  -19.7180 O.2    66  PHE66      -0.2867
     31  CB       -16.5170   15.3950  -21.7240 C.3    66  PHE66       0.0534
     32  CG       -17.2580   14.1770  -22.0660 C.ar   66  PHE66      -0.0203
     33  CD1      -17.7600   13.3860  -21.0440 C.ar   66  PHE66      -0.0042
     34  CD2      -17.5350   13.8400  -23.3950 C.ar   66  PHE66      -0.0042
     35  CE1      -18.4370   12.2290  -21.3230 C.ar   66  PHE66      -0.0003
     36  CE2      -18.2620   12.6830  -23.6900 C.ar   66  PHE66      -0.0003
     37  CZ       -18.7340   11.8870  -22.6360 C.ar   66  PHE66      -0.0000
     38  N        -17.5840   17.9130  -17.1630 N.3    69  ASP69      -0.1239
     39  CA       -17.5220   16.6770  -16.3370 C.3    69  ASP69       0.1674
     40  C        -16.3090   16.7610  -15.4260 C.2    69  ASP69       0.2266
     41  O        -15.2250   16.9100  -15.9410 O.2    69  ASP69      -0.2867
     42  CB       -17.4190   15.4560  -17.2610 C.3    69  ASP69       0.1410
     43  CG       -17.4920   14.1480  -16.5130 C.2    69  ASP69       0.3668
     44  OD1      -16.6400   13.9010  -15.6140 O.co2  69  ASP69      -0.2456
     45  OD2      -18.3590   13.3300  -16.9010 O.co2  69  ASP69      -0.2456
     46  N        -14.5550   14.7600  -13.5870 N.3    71  THR71      -0.1203
     47  CA       -13.5130   13.7540  -13.8700 C.3    71  THR71       0.1994
     48  C        -12.7300   14.0820  -15.1470 C.2    71  THR71       0.2617
     49  O        -11.4900   14.0570  -15.1520 O.2    71  THR71      -0.2717
     50  CB       -14.0960   12.3400  -13.9040 C.3    71  THR71       0.1784
     51  OG1      -14.5870   12.0320  -12.5920 O.3    71  THR71      -0.2211
     52  CG2      -13.0300   11.3250  -14.2330 C.3    71  THR71       0.0376
     53  N        -13.4250   14.4690  -16.2190 N.am   72  TRP72      -0.1975
     54  CA       -12.7000   14.7840  -17.4190 C.3    72  TRP72       0.1640
     55  C        -11.8450   16.0380  -17.2180 C.2    72  TRP72       0.2290
     56  O        -10.6740   16.1060  -17.7020 O.2    72  TRP72      -0.2864
     57  CB       -13.6040   14.9530  -18.5930 C.3    72  TRP72       0.0576
     58  CG       -14.1230   13.7250  -19.0960 C.ar   72  TRP72       0.0006
     59  CD1      -14.9120   12.8340  -18.4330 C.ar   72  TRP72       0.0946
     60  CD2      -13.9790   13.2290  -20.4190 C.ar   72  TRP72       0.0152
     61  NE1      -15.2420   11.8100  -19.2420 N.ar   72  TRP72      -0.2442
     62  CE2      -14.7330   12.0470  -20.4940 C.ar   72  TRP72       0.0810
     63  CE3      -13.3050   13.6820  -21.5670 C.ar   72  TRP72       0.0012
     64  CZ2      -14.8180   11.2800  -21.6620 C.ar   72  TRP72       0.0191
     65  CZ3      -13.4110   12.9410  -22.7340 C.ar   72  TRP72       0.0001
     66  CH2      -14.1580   11.7400  -22.7710 C.ar   72  TRP72       0.0015
     67  N         -4.0160   12.7840  -19.0240 N.3    79  TRP79      -0.1241
     68  CA        -4.2120   12.0300  -20.2540 C.3    79  TRP79       0.1605
     69  C         -3.4100   12.6520  -21.4030 C.2    79  TRP79       0.2264
     70  O         -2.8350   11.9310  -22.2090 O.2    79  TRP79      -0.2867
     71  CB        -5.6950   11.9580  -20.6700 C.3    79  TRP79       0.0550
     72  CG        -6.6240   11.1780  -19.7270 C.ar   79  TRP79       0.0003
     73  CD1       -6.2730   10.2120  -18.8460 C.ar   79  TRP79       0.0946
     74  CD2       -8.0460   11.3050  -19.6140 C.ar   79  TRP79       0.0152
     75  NE1       -7.3830    9.7030  -18.1910 N.ar   79  TRP79      -0.2442
     76  CE2       -8.4840   10.3760  -18.6480 C.ar   79  TRP79       0.0810
     77  CE3       -8.9990   12.1120  -20.2500 C.ar   79  TRP79       0.0012
     78  CZ2       -9.8490   10.2500  -18.2910 C.ar   79  TRP79       0.0191
     79  CZ3      -10.3160   12.0160  -19.8920 C.ar   79  TRP79       0.0001
     80  CH2      -10.7350   11.0960  -18.9130 C.ar   79  TRP79       0.0015
     81  N         -7.0140   -3.8720  -19.4750 N.3   113  ARG113     -0.1231
     82  CA        -7.3840   -2.4860  -19.1430 C.3   113  ARG113      0.1694
     83  C         -8.3750   -2.4060  -17.9680 C.2   113  ARG113      0.2591
     84  O         -8.2540   -1.6110  -17.0690 O.2   113  ARG113     -0.2718
     85  CB        -7.9410   -1.7780  -20.3660 C.3   113  ARG113      0.0321
     86  CG        -7.9460   -0.2970  -20.1540 C.3   113  ARG113      0.0489
     87  CD        -8.5060    0.4670  -21.3250 C.3   113  ARG113      0.2205
     88  NE        -9.9320    0.2210  -21.2930 N.pl3 113  ARG113     -0.0865
     89  CZ       -10.5850   -0.6580  -22.0360 C.cat 113  ARG113      0.5346
     90  NH1       -9.9760   -1.3550  -22.9930 N.pl3 113  ARG113      0.1354
     91  NH2      -11.8600   -0.8100  -21.8150 N.pl3 113  ARG113      0.1354
     92  N         -9.3600   -3.2700  -17.9830 N.am  114  LEU114     -0.1980
     93  CA       -10.3650   -3.3060  -16.9170 C.3   114  LEU114      0.1596
     94  C         -9.7210   -3.6670  -15.6140 C.2   114  LEU114      0.2287
     95  O        -10.1060   -3.1210  -14.5730 O.2   114  LEU114     -0.2864
     96  CB       -11.5340   -4.2190  -17.2720 C.3   114  LEU114      0.0297
     97  CG       -12.3020   -3.8270  -18.5340 C.3   114  LEU114      0.0022
     98  CD1      -13.3770   -4.8680  -18.8340 C.3   114  LEU114      0.0001
     99  CD2      -12.9310   -2.4340  -18.4130 C.3   114  LEU114      0.0001
@<TRIPOS>BOND
     1     9    10    2
     2     9     8    1
     3    13    14    1
     4     8    11    1
     5     8     7    1
     6    11    12    1
     7    15    14    1
     8    15    16    2
     9     4     3    2
    10    14    17    1
    11     7     3   am
    12     3     2    1
    13    17    18    1
    14     2     1    1
    15     2     5    1
    16    18    19   ar
    17    18    20   ar
    18     5     6    1
    19    19    21   ar
    20    20    23   ar
    21    20    22   ar
    22    23    25   ar
    23    36    34   ar
    24    36    37   ar
    25    34    32   ar
    26    21    22   ar
    27    90    89    1
    28    22    24   ar
    29    66    65   ar
    30    66    64   ar
    31    25    26   ar
    32    65    63   ar
    33    37    35   ar
    34    27    28    1
    35    70    69    2
    36    32    31    1
    37    32    33   ar
    38    89    91    1
    39    89    88    2
    40    24    26   ar
    41    31    28    1
    42    64    62   ar
    43    63    60   ar
    44    69    68    1
    45    28    29    1
    46    87    88    1
    47    87    86    1
    48    35    33   ar
    49    29    30    2
    50    71    68    1
    51    71    72    1
    52    62    60   ar
    53    62    61   ar
    54    60    58   ar
    55    85    86    1
    56    85    82    1
    57    68    67    1
    58    77    79   ar
    59    77    74   ar
    60    79    80   ar
    61    72    74   ar
    62    72    73   ar
    63    74    76   ar
    64    81    82    1
    65    61    59   ar
    66    82    83    1
    67    58    57    1
    68    58    59   ar
    69    80    78   ar
    70    73    75   ar
    71    98    97    1
    72    76    78   ar
    73    76    75   ar
    74    57    54    1
    75    97    99    1
    76    97    96    1
    77    92    83   am
    78    92    93    1
    79    83    84    2
    80    56    55    2
    81    54    55    1
    82    54    53    1
    83    96    93    1
    84    42    43    1
    85    42    39    1
    86    38    39    1
    87    93    94    1
    88    45    43   ar
    89    43    44   ar
    90    39    40    1
    91    53    48   am
    92    41    40    2
    93    94    95    2
    94    49    48    2
    95    48    47    1
    96    52    50    1
    97    50    47    1
    98    50    51    1
    99    47    46    1
