@<TRIPOS>MOLECULE
tmp/6elcA00.pdb
 113 107 0 0 0
SMALL
GASTEIGER

@<TRIPOS>ATOM
      1  N          3.4200    6.5320  -11.9490 N.3    41  TYR41      -0.1241
      2  CA         2.0240    6.8110  -12.2490 C.3    41  TYR41       0.1605
      3  C          1.7970    7.1770  -13.7230 C.2    41  TYR41       0.2264
      4  O          0.8750    6.6770  -14.3520 O.2    41  TYR41      -0.2867
      5  CB         1.4590    7.8520  -11.3140 C.3    41  TYR41       0.0534
      6  CG        -0.0350    8.0600  -11.4770 C.ar   41  TYR41      -0.0201
      7  CD1       -0.9500    7.1900  -10.9000 C.ar   41  TYR41      -0.0009
      8  CD2       -0.5100    9.0880  -12.2370 C.ar   41  TYR41      -0.0009
      9  CE1       -2.3020    7.3720  -11.1060 C.ar   41  TYR41       0.0417
     10  CE2       -1.8520    9.2820  -12.4070 C.ar   41  TYR41       0.0417
     11  CZ        -2.7420    8.4180  -11.8420 C.ar   41  TYR41       0.1957
     12  OH        -4.1200    8.5860  -12.0550 O.3    41  TYR41      -0.2866
     13  N         -0.5540    5.4060  -16.5410 N.3    45  GLN45      -0.1245
     14  CA        -1.4910    6.1630  -17.4040 C.3    45  GLN45       0.1566
     15  C         -1.2310    5.8490  -18.8930 C.2    45  GLN45       0.2260
     16  O         -2.1510    5.7230  -19.6850 O.2    45  GLN45      -0.2867
     17  CB        -1.3200    7.6420  -17.1500 C.3    45  GLN45       0.0367
     18  CG        -2.0610    8.1500  -15.9360 C.3    45  GLN45       0.0905
     19  CD        -3.5780    8.2180  -16.1840 C.2    45  GLN45       0.2608
     20  OE1       -4.0190    8.3020  -17.3290 O.2    45  GLN45      -0.2717
     21  NE2       -4.3820    8.2610  -15.1090 N.am   45  GLN45      -0.0878
     22  N         -2.5820    2.4120  -19.6300 N.3    48  ASN48      -0.1240
     23  CA        -4.0230    2.4510  -19.7400 C.3    48  ASN48       0.1653
     24  C         -4.4790    3.0130  -21.0910 C.2    48  ASN48       0.2266
     25  O         -5.3920    2.4650  -21.7520 O.2    48  ASN48      -0.2867
     26  CB        -4.5630    3.2860  -18.5810 C.3    48  ASN48       0.1155
     27  CG        -6.0600    3.2730  -18.5300 C.2    48  ASN48       0.2627
     28  OD1       -6.6380    2.2100  -18.3910 O.2    48  ASN48      -0.2716
     29  ND2       -6.7010    4.4470  -18.6180 N.am   48  ASN48      -0.0877
     30  N         -6.5170    1.3270  -24.6590 N.3    52  SER52      -0.1202
     31  CA        -7.8250    1.8550  -24.9340 C.3    52  SER52       0.2020
     32  C         -8.2010    1.7030  -26.4210 C.2    52  SER52       0.2619
     33  O         -7.3640    1.3840  -27.2860 O.2    52  SER52      -0.2717
     34  CB        -7.8880    3.3190  -24.5370 C.3    52  SER52       0.2103
     35  OG        -7.5380    3.5090  -23.1780 O.3    52  SER52      -0.2182
     36  N         -9.4880    1.8940  -26.6710 N.am   53  SER53      -0.1951
     37  CA       -10.1020    1.7370  -28.0100 C.3    53  SER53       0.1924
     38  C         -9.6040    2.8750  -28.9160 C.2    53  SER53       0.2314
     39  O         -9.1420    3.9270  -28.4330 O.2    53  SER53      -0.2863
     40  CB       -11.6360    1.8160  -27.8810 C.3    53  SER53       0.2116
     41  OG       -12.0670    3.1190  -27.4110 O.3    53  SER53      -0.2180
     42  N        -11.3780    6.0800  -28.1360 N.3    56  TRP56      -0.1241
     43  CA       -10.8680    6.8200  -26.9860 C.3    56  TRP56       0.1605
     44  C         -9.5400    7.5620  -27.3160 C.2    56  TRP56       0.2264
     45  O         -9.3010    8.7120  -26.9720 O.2    56  TRP56      -0.2867
     46  CB       -10.5860    5.8370  -25.8220 C.3    56  TRP56       0.0550
     47  CG       -10.0740    6.5650  -24.6450 C.ar   56  TRP56       0.0003
     48  CD1       -8.7780    6.6340  -24.2080 C.ar   56  TRP56       0.0946
     49  CD2      -10.8300    7.4120  -23.7960 C.ar   56  TRP56       0.0152
     50  NE1       -8.7120    7.4520  -23.0880 N.ar   56  TRP56      -0.2442
     51  CE2       -9.9600    7.9480  -22.8340 C.ar   56  TRP56       0.0810
     52  CE3      -12.1830    7.7350  -23.7250 C.ar   56  TRP56       0.0012
     53  CZ2      -10.4060    8.8310  -21.8360 C.ar   56  TRP56       0.0191
     54  CZ3      -12.6180    8.5750  -22.7550 C.ar   56  TRP56       0.0001
     55  CH2      -11.7580    9.1310  -21.8290 C.ar   56  TRP56       0.0015
     56  N        -14.5550   14.7600  -13.5870 N.3    71  THR71      -0.1218
     57  CA       -13.5130   13.7540  -13.8700 C.3    71  THR71       0.1862
     58  C        -12.7300   14.0820  -15.1470 C.2    71  THR71       0.2287
     59  O        -11.4900   14.0570  -15.1520 O.2    71  THR71      -0.2866
     60  CB       -14.0960   12.3400  -13.9040 C.3    71  THR71       0.1770
     61  OG1      -14.5870   12.0320  -12.5920 O.3    71  THR71      -0.2211
     62  CG2      -13.0300   11.3250  -14.2330 C.3    71  THR71       0.0375
     63  N         -8.7310   14.9650  -15.2120 N.3    75  GLN75      -0.1245
     64  CA        -7.8710   13.9860  -15.8260 C.3    75  GLN75       0.1566
     65  C         -7.2690   14.4900  -17.1130 C.2    75  GLN75       0.2260
     66  O         -6.1990   13.9950  -17.5150 O.2    75  GLN75      -0.2867
     67  CB        -8.6000   12.6840  -16.1490 C.3    75  GLN75       0.0367
     68  CG        -9.0400   11.8590  -14.9420 C.3    75  GLN75       0.0905
     69  CD        -7.9140   11.2960  -14.0870 C.2    75  GLN75       0.2608
     70  OE1       -7.2200   12.0440  -13.4340 O.2    75  GLN75      -0.2717
     71  NE2       -7.7860    9.9930  -14.0330 N.am   75  GLN75      -0.0878
     72  N         -4.0160   12.7840  -19.0240 N.3    79  TRP79      -0.1241
     73  CA        -4.2120   12.0300  -20.2540 C.3    79  TRP79       0.1605
     74  C         -3.4100   12.6520  -21.4030 C.2    79  TRP79       0.2264
     75  O         -2.8350   11.9310  -22.2090 O.2    79  TRP79      -0.2867
     76  CB        -5.6950   11.9580  -20.6700 C.3    79  TRP79       0.0550
     77  CG        -6.6240   11.1780  -19.7270 C.ar   79  TRP79       0.0003
     78  CD1       -6.2730   10.2120  -18.8460 C.ar   79  TRP79       0.0946
     79  CD2       -8.0460   11.3050  -19.6140 C.ar   79  TRP79       0.0152
     80  NE1       -7.3830    9.7030  -18.1910 N.ar   79  TRP79      -0.2442
     81  CE2       -8.4840   10.3760  -18.6480 C.ar   79  TRP79       0.0810
     82  CE3       -8.9990   12.1120  -20.2500 C.ar   79  TRP79       0.0012
     83  CZ2       -9.8490   10.2500  -18.2910 C.ar   79  TRP79       0.0191
     84  CZ3      -10.3160   12.0160  -19.8920 C.ar   79  TRP79       0.0001
     85  CH2      -10.7350   11.0960  -18.9130 C.ar   79  TRP79       0.0015
     86  N         -7.0140   -3.8720  -19.4750 N.3   113  ARG113     -0.1245
     87  CA        -7.3840   -2.4860  -19.1430 C.3   113  ARG113      0.1563
     88  C         -8.3750   -2.4060  -17.9680 C.2   113  ARG113      0.2260
     89  O         -8.2540   -1.6110  -17.0690 O.2   113  ARG113     -0.2867
     90  CB        -7.9410   -1.7780  -20.3660 C.3   113  ARG113      0.0307
     91  CG        -7.9460   -0.2970  -20.1540 C.3   113  ARG113      0.0489
     92  CD        -8.5060    0.4670  -21.3250 C.3   113  ARG113      0.2205
     93  NE        -9.9320    0.2210  -21.2930 N.pl3 113  ARG113     -0.0865
     94  CZ       -10.5850   -0.6580  -22.0360 C.cat 113  ARG113      0.5346
     95  NH1       -9.9760   -1.3550  -22.9930 N.pl3 113  ARG113      0.1354
     96  NH2      -11.8600   -0.8100  -21.8150 N.pl3 113  ARG113      0.1354
     97  N         -5.5240    1.7090  -10.6290 N.3   120  LEU120     -0.1245
     98  CA        -5.4280    3.1310  -10.8890 C.3   120  LEU120      0.1561
     99  C         -6.1970    3.9250   -9.8560 C.2   120  LEU120      0.2260
    100  O         -5.7370    4.9830   -9.4500 O.2   120  LEU120     -0.2867
    101  CB        -5.8820    3.4590  -12.3120 C.3   120  LEU120      0.0270
    102  CG        -4.8580    3.0440  -13.3420 C.3   120  LEU120      0.0019
    103  CD1       -5.5650    3.0520  -14.6810 C.3   120  LEU120      0.0001
    104  CD2       -3.6530    3.9860  -13.2800 C.3   120  LEU120      0.0001
    105  N         -4.3950    6.7250   -7.5290 N.3   124  GLU124     -0.1245
    106  CA        -4.7170    8.1200   -7.8020 C.3   124  GLU124      0.1567
    107  C         -4.4730    9.0010   -6.5830 C.2   124  GLU124      0.2260
    108  O         -3.8580   10.0570   -6.7050 O.2   124  GLU124     -0.2867
    109  CB        -6.1850    8.2450   -8.2300 C.3   124  GLU124      0.0388
    110  CG        -6.6110    9.6390   -8.6410 C.3   124  GLU124      0.1160
    111  CD        -7.9910    9.6090   -9.2930 C.2   124  GLU124      0.3649
    112  OE1       -8.2280    8.8380  -10.2800 O.co2 124  GLU124     -0.2457
    113  OE2       -8.8290   10.3710   -8.8200 O.co2 124  GLU124     -0.2457
@<TRIPOS>BOND
     1    38    39    2
     2    38    37    1
     3    42    43    1
     4    37    40    1
     5    37    36    1
     6    40    41    1
     7    44    43    1
     8    44    45    2
     9    33    32    2
    10    43    46    1
    11    36    32   am
    12    32    31    1
    13    46    47    1
    14    31    30    1
    15    31    34    1
    16    47    48   ar
    17    47    49   ar
    18    34    35    1
    19    48    50   ar
    20    49    52   ar
    21    49    51   ar
    22    52    54   ar
    23    50    51   ar
    24    95    94    1
    25    51    53   ar
    26    54    55   ar
    27    75    74    2
    28    94    96    1
    29    94    93    2
    30    53    55   ar
    31    25    24    2
    32    74    73    1
    33    92    93    1
    34    92    91    1
    35    24    23    1
    36    76    73    1
    37    76    77    1
    38    90    91    1
    39    90    87    1
    40    73    72    1
    41    82    84   ar
    42    82    79   ar
    43    84    85   ar
    44    23    22    1
    45    23    26    1
    46    77    79   ar
    47    77    78   ar
    48    16    15    2
    49    79    81   ar
    50    86    87    1
    51    87    88    1
    52    85    83   ar
    53    15    14    1
    54    78    80   ar
    55    81    83   ar
    56    81    80   ar
    57    29    27   am
    58    26    27    1
    59    27    28    2
    60    88    89    2
    61    66    65    2
    62    14    17    1
    63    14    13    1
    64    20    19    2
    65    17    18    1
    66    65    64    1
    67    19    18    1
    68    19    21   am
    69    67    64    1
    70    67    68    1
    71    64    63    1
    72    59    58    2
    73    58    57    1
    74    68    69    1
    75   103   102    1
    76     4     3    2
    77    62    60    1
    78    69    71   am
    79    69    70    2
    80    60    57    1
    81    60    61    1
    82    57    56    1
    83     3     2    1
    84   102   104    1
    85   102   101    1
    86    10     8   ar
    87    10    11   ar
    88   101    98    1
    89     2     1    1
    90     2     5    1
    91     8     6   ar
    92    12    11    1
    93    11     9   ar
    94     6     5    1
    95     6     7   ar
    96     9     7   ar
    97    98    97    1
    98    98    99    1
    99   112   111   ar
   100    99   100    2
   101   111   113   ar
   102   111   110    1
   103   110   109    1
   104   109   106    1
   105   106   105    1
   106   106   107    1
   107   108   107    2
