@<TRIPOS>MOLECULE
tmp/6eliA01.pdb
 73 68 0 0 0
SMALL
GASTEIGER

@<TRIPOS>ATOM
      1  N          9.4130   14.8660    6.3240 N.3   445  ASP445     -0.1225
      2  CA         9.3760   15.5180    7.6270 C.3   445  ASP445      0.1805
      3  C          8.2820   14.8890    8.4790 C.2   445  ASP445      0.2598
      4  O          7.4120   14.1690    7.9830 O.2   445  ASP445     -0.2718
      5  CB         9.1400   17.0290    7.5320 C.3   445  ASP445      0.1424
      6  CG         9.6540   17.7650    8.7630 C.2   445  ASP445      0.3668
      7  OD1       10.4010   17.1440    9.5570 O.co2 445  ASP445     -0.2456
      8  OD2        9.2670   18.9350    8.9620 O.co2 445  ASP445     -0.2456
      9  N          8.3540   15.1690    9.7760 N.am  446  GLY446     -0.1957
     10  CA         7.3560   14.7020   10.7190 C.3   446  GLY446      0.1869
     11  C          7.1740   15.7070   11.8340 C.2   446  GLY446      0.2309
     12  O          8.0370   16.5590   12.0780 O.2   446  GLY446     -0.2863
     13  N          9.8520   11.3530   12.3350 N.3   480  GLU480     -0.1245
     14  CA        10.9170   11.5570   11.3590 C.3   480  GLU480      0.1567
     15  C         11.3160   10.2260   10.7370 C.2   480  GLU480      0.2260
     16  O         11.5740   10.1440    9.5330 O.2   480  GLU480     -0.2867
     17  CB        12.1270   12.2240   12.0230 C.3   480  GLU480      0.0388
     18  CG        11.9010   13.6600   12.4810 C.3   480  GLU480      0.1160
     19  CD        11.8460   14.6670   11.3430 C.2   480  GLU480      0.3649
     20  OE1       11.9540   14.2670   10.1600 O.co2 480  GLU480     -0.2457
     21  OE2       11.6870   15.8670   11.6390 O.co2 480  GLU480     -0.2457
     22  N         15.5680   16.5750    7.5590 N.3   500  ASP500     -0.1225
     23  CA        16.1550   17.5320    8.4870 C.3   500  ASP500      0.1805
     24  C         16.3990   16.9370    9.8670 C.2   500  ASP500      0.2598
     25  O         16.8020   17.6620   10.7820 O.2   500  ASP500     -0.2718
     26  CB        15.3060   18.8130    8.5820 C.3   500  ASP500      0.1424
     27  CG        13.8850   18.5720    9.0680 C.2   500  ASP500      0.3668
     28  OD1       13.6510   17.7130    9.9400 O.co2 500  ASP500     -0.2456
     29  OD2       12.9850   19.3110    8.6050 O.co2 500  ASP500     -0.2456
     30  N         16.1600   15.6390   10.0360 N.am  501  SER501     -0.1938
     31  CA        16.3220   14.9610   11.3210 C.3   501  SER501      0.2055
     32  C         17.7770   14.5610   11.5280 C.2   501  SER501      0.2642
     33  O         18.2620   13.6040   10.9180 O.2   501  SER501     -0.2714
     34  CB        15.4080   13.7460   11.4100 C.3   501  SER501      0.2130
     35  OG        15.6160   13.0710   12.6350 O.3   501  SER501     -0.2179
     36  N         18.4900   15.2940   12.3880 N.am  502  GLN502     -0.1976
     37  CA        19.8170   14.8350   12.7820 C.3   502  GLN502      0.1601
     38  C         19.7190   13.4700   13.4530 C.2   502  GLN502      0.2287
     39  O         20.5690   12.5960   13.2420 O.2   502  GLN502     -0.2864
     40  CB        20.4730   15.8280   13.7450 C.3   502  GLN502      0.0394
     41  CG        20.7100   17.2320   13.2160 C.3   502  GLN502      0.0908
     42  CD        19.6340   18.2020   13.6590 C.2   502  GLN502      0.2608
     43  OE1       18.4740   17.8260   13.8230 O.2   502  GLN502     -0.2717
     44  NE2       20.0190   19.4550   13.8770 N.am  502  GLN502     -0.0878
     45  N         16.3630   22.4030    9.4400 N.3   540  ALA540     -0.1231
     46  CA        14.9540   22.7590    9.3910 C.3   540  ALA540      0.1694
     47  C         14.7720   24.2710    9.4140 C.2   540  ALA540      0.2592
     48  O         15.6070   25.0090    9.9460 O.2   540  ALA540     -0.2718
     49  CB        14.1990   22.1250   10.5610 C.3   540  ALA540      0.0304
     50  N         13.6520   24.7330    8.8420 N.am  541  HIS541     -0.1976
     51  CA        13.2190   26.1180    9.0310 C.3   541  HIS541      0.1656
     52  C         14.2340   27.1360    8.5210 C.2   541  HIS541      0.2291
     53  O         14.4800   28.1700    9.1480 O.2   541  HIS541     -0.2864
     54  CB        12.8120   26.3550   10.4790 C.3   541  HIS541      0.0771
     55  CG        11.5990   25.5690   10.8530 C.ar  541  HIS541      0.0820
     56  ND1       10.4020   25.7210   10.1880 N.ar  541  HIS541     -0.2267
     57  CD2       11.4240   24.5390   11.7110 C.ar  541  HIS541      0.1154
     58  CE1        9.5140   24.8800   10.6850 C.ar  541  HIS541      0.1986
     59  NE2       10.1120   24.1440   11.6050 N.ar  541  HIS541     -0.2212
     60  N          7.2840   20.2210    5.7090 N.3   551  ASP551     -0.1239
     61  CA         7.1130   20.6760    7.0910 C.3   551  ASP551      0.1674
     62  C          5.7320   21.2680    7.3370 C.2   551  ASP551      0.2266
     63  O          5.1100   21.0070    8.3730 O.2   551  ASP551     -0.2867
     64  CB         8.1690   21.7150    7.4560 C.3   551  ASP551      0.1410
     65  CG         7.8860   22.3600    8.7980 C.2   551  ASP551      0.3668
     66  OD1        8.2210   21.7710    9.8420 O.co2 551  ASP551     -0.2456
     67  OD2        7.2970   23.4620    8.8040 O.co2 551  ASP551     -0.2456
     68  N          2.9800   19.6430   10.1180 N.3   555  SER555     -0.1217
     69  CA         2.9160   20.3800   11.3740 C.3   555  SER555      0.1889
     70  C          1.5820   21.0800   11.6080 C.2   555  SER555      0.2288
     71  O          1.3680   21.6150   12.7010 O.2   555  SER555     -0.2866
     72  CB         4.0490   21.4110   11.4390 C.3   555  SER555      0.2089
     73  OG         5.3050   20.7920   11.2160 O.3   555  SER555     -0.2183
@<TRIPOS>BOND
     1    60    61    1
     2     1     2    1
     3    61    62    1
     4    61    64    1
     5    62    63    2
     6    64    65    1
     7     5     2    1
     8     5     6    1
     9    22    23    1
    10     2     3    1
    11     4     3    2
    12     3     9   am
    13    23    26    1
    14    23    24    1
    15    52    51    1
    16    52    53    2
    17    26    27    1
    18    29    27   ar
    19     6     8   ar
    20     6     7   ar
    21    65    67   ar
    22    65    66   ar
    23    50    51    1
    24    50    47   am
    25    51    54    1
    26    27    28   ar
    27    46    47    1
    28    46    45    1
    29    46    49    1
    30    47    48    2
    31    16    15    2
    32     9    10    1
    33    24    30   am
    34    24    25    2
    35    30    31    1
    36    68    69    1
    37    20    19   ar
    38    56    58   ar
    39    56    55   ar
    40    54    55    1
    41    58    59   ar
    42    10    11    1
    43    15    14    1
    44    55    57   ar
    45    33    32    2
    46    73    72    1
    47    31    34    1
    48    31    32    1
    49    19    21   ar
    50    19    18    1
    51    14    17    1
    52    14    13    1
    53    69    72    1
    54    69    70    1
    55    34    35    1
    56    32    36   am
    57    59    57   ar
    58    70    71    2
    59    11    12    2
    60    17    18    1
    61    36    37    1
    62    37    38    1
    63    37    40    1
    64    41    42    1
    65    41    40    1
    66    39    38    2
    67    42    43    2
    68    42    44   am
