@<TRIPOS>MOLECULE
tmp/6elnA00.pdb
 147 134 0 0 0
SMALL
GASTEIGER

@<TRIPOS>ATOM
      1  N         64.1750   33.2260   34.0700 N.3    32  LEU32      -0.1245
      2  CA        63.6000   32.7280   32.8190 C.3    32  LEU32       0.1561
      3  C         62.3090   33.4630   32.4570 C.2    32  LEU32       0.2260
      4  O         62.0960   33.8010   31.2870 O.2    32  LEU32      -0.2867
      5  CB        63.3820   31.2140   32.9060 C.3    32  LEU32       0.0270
      6  CG        64.6790   30.3780   32.9970 C.3    32  LEU32       0.0019
      7  CD1       64.3460   28.9300   33.2170 C.3    32  LEU32       0.0001
      8  CD2       65.5750   30.5630   31.7380 C.3    32  LEU32       0.0001
      9  N         63.2710   36.8720   31.0810 N.3    35  ASN35      -0.1225
     10  CA        63.6270   36.7600   29.6630 C.3    35  ASN35       0.1785
     11  C         62.3520   36.6430   28.7990 C.2    35  ASN35       0.2597
     12  O         62.2430   37.3190   27.7710 O.2    35  ASN35      -0.2718
     13  CB        64.5580   35.5740   29.4490 C.3    35  ASN35       0.1169
     14  CG        66.0120   35.8870   29.7500 C.2    35  ASN35       0.2627
     15  OD1       66.3430   36.7850   30.5370 O.2    35  ASN35      -0.2716
     16  ND2       66.9180   35.1700   29.0910 N.am   35  ASN35      -0.0877
     17  N         61.3950   35.8000   29.2280 N.am   36  SER36      -0.1952
     18  CA        60.0960   35.6530   28.5380 C.3    36  SER36       0.1924
     19  C         59.3910   37.0320   28.4130 C.2    36  SER36       0.2314
     20  O         58.9570   37.3990   27.3190 O.2    36  SER36      -0.2863
     21  CB        59.2050   34.6570   29.2760 C.3    36  SER36       0.2116
     22  OG        59.6680   33.3330   29.0490 O.3    36  SER36      -0.2180
     23  N         60.7930   40.0700   28.5360 N.3    38  ASP38      -0.1225
     24  CA        61.5530   40.8980   27.5980 C.3    38  ASP38       0.1805
     25  C         61.2060   40.5720   26.1560 C.2    38  ASP38       0.2597
     26  O         60.9940   41.4940   25.3650 O.2    38  ASP38      -0.2718
     27  CB        63.0580   40.7480   27.8240 C.3    38  ASP38       0.1424
     28  CG        63.5490   41.3420   29.1380 C.2    38  ASP38       0.3668
     29  OD1       62.7540   42.0780   29.8090 O.co2  38  ASP38      -0.2456
     30  OD2       64.7200   41.1130   29.4790 O.co2  38  ASP38      -0.2456
     31  N         61.1300   39.2600   25.8140 N.am   39  ALA39      -0.1979
     32  CA        60.7760   38.7840   24.4660 C.3    39  ALA39       0.1597
     33  C         59.3220   39.1520   24.0650 C.2    39  ALA39       0.2287
     34  O         59.0530   39.4390   22.8980 O.2    39  ALA39      -0.2864
     35  CB        60.9810   37.2870   24.3810 C.3    39  ALA39       0.0319
     36  N         59.2160   42.8670   23.2710 N.3    42  LYS42      -0.1245
     37  CA        59.7830   43.0340   21.9260 C.3    42  LYS42       0.1561
     38  C         58.7420   42.8340   20.8080 C.2    42  LYS42       0.2260
     39  O         58.5990   43.7100   19.9430 O.2    42  LYS42      -0.2867
     40  CB        61.0180   42.1320   21.7530 C.3    42  LYS42       0.0271
     41  CG        62.2550   42.7000   22.4510 C.3    42  LYS42       0.0035
     42  CD        63.4560   41.7780   22.3130 C.3    42  LYS42       0.0206
     43  CE        64.7460   42.5390   22.5120 C.3    42  LYS42       0.1093
     44  NZ        65.9380   41.6500   22.3650 N.3    42  LYS42      -0.1314
     45  N         58.8960   26.1920   30.3860 N.3    75  ILE75      -0.1245
     46  CA        58.4530   27.5910   30.3870 C.3    75  ILE75       0.1561
     47  C         58.2340   27.9740   28.9190 C.2    75  ILE75       0.2260
     48  O         59.1940   27.9720   28.1470 O.2    75  ILE75      -0.2867
     49  CB        59.4460   28.5380   31.1110 C.3    75  ILE75       0.0252
     50  CG1       59.7140   28.0590   32.5620 C.3    75  ILE75       0.0019
     51  CG2       58.9180   29.9820   31.1140 C.3    75  ILE75       0.0019
     52  CD1       61.0100   27.4210   32.7590 C.3    75  ILE75       0.0001
     53  N         56.6340   30.8300   26.1610 N.3    77  ASP77      -0.1239
     54  CA        56.1550   32.1880   25.9580 C.3    77  ASP77       0.1674
     55  C         55.8390   32.4000   24.4730 C.2    77  ASP77       0.2266
     56  O         56.3490   31.6640   23.6130 O.2    77  ASP77      -0.2867
     57  CB        57.1400   33.2400   26.4970 C.3    77  ASP77       0.1410
     58  CG        58.4470   33.3440   25.7390 C.2    77  ASP77       0.3668
     59  OD1       58.4140   33.7250   24.5380 O.co2  77  ASP77      -0.2456
     60  OD2       59.5080   33.0870   26.3510 O.co2  77  ASP77      -0.2456
     61  N         58.9110   37.2870   20.9540 N.3    80  ILE80      -0.1231
     62  CA        59.4670   37.4810   19.6040 C.3    80  ILE80       0.1692
     63  C         60.2470   36.2470   19.0710 C.2    80  ILE80       0.2593
     64  O         60.4350   36.1160   17.8540 O.2    80  ILE80      -0.2718
     65  CB        60.3060   38.7940   19.5680 C.3    80  ILE80       0.0266
     66  CG1       60.4930   39.3240   18.1140 C.3    80  ILE80       0.0019
     67  CG2       61.6380   38.6550   20.3270 C.3    80  ILE80       0.0020
     68  CD1       60.9020   40.7540   18.0160 C.3    80  ILE80       0.0001
     69  N         60.6830   35.3650   19.9700 N.am   81  GLY81      -0.1942
     70  CA        61.4730   34.1930   19.5900 C.3    81  GLY81       0.2014
     71  C         62.8620   34.5980   19.1410 C.2    81  GLY81       0.2638
     72  O         63.2370   35.7700   19.2390 O.2    81  GLY81      -0.2714
     73  N         63.6420   33.6410   18.6540 N.am   82  MET82      -0.1976
     74  CA        65.0070   33.9360   18.2260 C.3    82  MET82       0.1605
     75  C         65.3290   33.2670   16.9050 C.2    82  MET82       0.2287
     76  O         64.8530   32.1640   16.6390 O.2    82  MET82      -0.2864
     77  CB        66.0190   33.4240   19.2810 C.3    82  MET82       0.0413
     78  CG        65.9410   34.1190   20.6230 C.3    82  MET82       0.0598
     79  SD        67.0940   33.3640   21.8090 S.3    82  MET82      -0.1393
     80  CE        66.0370   32.1230   22.5750 C.3    82  MET82       0.0692
     81  N         70.9050   34.0580   16.4110 N.3    86  ASP86      -0.1239
     82  CA        70.8360   34.5480   17.7920 C.3    86  ASP86       0.1674
     83  C         70.9230   33.4220   18.8080 C.2    86  ASP86       0.2266
     84  O         71.5560   33.5740   19.8590 O.2    86  ASP86      -0.2867
     85  CB        69.6050   35.4350   18.0020 C.3    86  ASP86       0.1410
     86  CG        69.7370   36.8200   17.3720 C.2    86  ASP86       0.3668
     87  OD1       70.7050   37.0400   16.5870 O.co2  86  ASP86      -0.2456
     88  OD2       68.8750   37.6610   17.6260 O.co2  86  ASP86      -0.2456
     89  N         72.0770   32.6840   22.7890 N.3    91  LEU91      -0.1231
     90  CA        70.6410   32.8690   23.0160 C.3    91  LEU91       0.1693
     91  C         70.2190   34.3590   23.1590 C.2    91  LEU91       0.2593
     92  O         69.4850   34.7290   24.0750 O.2    91  LEU91      -0.2718
     93  CB        70.1990   32.0150   24.2370 C.3    91  LEU91       0.0284
     94  CG        70.4850   30.5040   24.1140 C.3    91  LEU91       0.0019
     95  CD1       71.7090   30.0860   24.9520 C.3    91  LEU91       0.0001
     96  CD2       69.2690   29.6910   24.4750 C.3    91  LEU91       0.0001
     97  N         70.7310   35.1880   22.2600 N.am   92  GLY92      -0.1942
     98  CA        70.4180   36.6160   22.2050 C.3    92  GLY92       0.2014
     99  C         71.0190   37.4920   23.2910 C.2    92  GLY92       0.2639
    100  O         70.6630   38.6720   23.3790 O.2    92  GLY92      -0.2714
    101  N         71.9600   36.9440   24.1120 N.am   93  THR93      -0.1950
    102  CA        72.5710   37.6810   25.2230 C.3    93  THR93       0.1897
    103  C         73.9520   38.2330   24.8670 C.2    93  THR93       0.2313
    104  O         74.6070   37.7180   23.9650 O.2    93  THR93      -0.2863
    105  CB        72.7040   36.7820   26.4940 C.3    93  THR93       0.1794
    106  OG1       73.7300   35.8000   26.2820 O.3    93  THR93      -0.2208
    107  CG2       71.3910   36.1060   26.9020 C.3    93  THR93       0.0378
    108  N         72.7420   40.3980   32.3080 N.3   119  GLY119     -0.1225
    109  CA        72.1320   39.9300   31.0630 C.3   119  GLY119      0.1811
    110  C         72.3060   38.4660   30.7140 C.2   119  GLY119      0.2280
    111  O         72.0130   38.0700   29.5790 O.2   119  GLY119     -0.2866
    112  N         71.0080   35.8280   32.8320 N.3   121  GLY121     -0.1210
    113  CA        70.0600   35.1300   33.7000 C.3   121  GLY121      0.1956
    114  C         69.5690   33.8000   33.1440 C.2   121  GLY121      0.2611
    115  O         69.2320   32.9000   33.9130 O.2   121  GLY121     -0.2717
    116  N         69.5550   33.6420   31.8020 N.am  122  PHE122     -0.1976
    117  CA        69.1770   32.3630   31.1700 C.3   122  PHE122      0.1639
    118  C         69.9970   31.1830   31.7600 C.2   122  PHE122      0.2290
    119  O         69.4380   30.1210   32.0650 O.2   122  PHE122     -0.2864
    120  CB        69.3940   32.4100   29.6340 C.3   122  PHE122      0.0560
    121  CG        69.3070   31.0350   29.0120 C.ar  122  PHE122     -0.0200
    122  CD1       68.0730   30.4070   28.8410 C.ar  122  PHE122     -0.0042
    123  CD2       70.4630   30.3110   28.7140 C.ar  122  PHE122     -0.0042
    124  CE1       67.9950   29.0970   28.3470 C.ar  122  PHE122     -0.0003
    125  CE2       70.3810   29.0060   28.2100 C.ar  122  PHE122     -0.0003
    126  CZ        69.1470   28.4130   28.0200 C.ar  122  PHE122     -0.0000
    127  N         66.0350   24.4100   24.3480 N.3   134  VAL134     -0.1245
    128  CA        65.3650   25.6630   23.9900 C.3   134  VAL134      0.1561
    129  C         64.7950   25.4850   22.5850 C.2   134  VAL134      0.2260
    130  O         65.5630   25.3030   21.6260 O.2   134  VAL134     -0.2867
    131  CB        66.2870   26.9110   24.1050 C.3   134  VAL134      0.0252
    132  CG1       65.5710   28.1840   23.6330 C.3   134  VAL134      0.0019
    133  CG2       66.8060   27.0850   25.5290 C.3   134  VAL134      0.0019
    134  N         59.3230   31.2740   22.4500 N.3   168  THR168     -0.1218
    135  CA        60.3960   30.4500   23.0090 C.3   168  THR168      0.1862
    136  C         59.8770   29.5040   24.0780 C.2   168  THR168      0.2287
    137  O         59.0750   29.8930   24.9310 O.2   168  THR168     -0.2866
    138  CB        61.5550   31.3530   23.4920 C.3   168  THR168      0.1770
    139  OG1       62.0860   32.0480   22.3710 O.3   168  THR168     -0.2211
    140  CG2       62.6800   30.5870   24.2210 C.3   168  THR168      0.0375
    141  N         61.4360   26.8260   26.9230 N.3   170  VAL170     -0.1245
    142  CA        62.6190   26.3700   27.6840 C.3   170  VAL170      0.1561
    143  C         62.2200   25.1090   28.4590 C.2   170  VAL170      0.2260
    144  O         61.3790   25.1730   29.3630 O.2   170  VAL170     -0.2867
    145  CB        63.2220   27.4630   28.6160 C.3   170  VAL170      0.0252
    146  CG1       64.4470   26.9320   29.3690 C.3   170  VAL170      0.0019
    147  CG2       63.5810   28.7140   27.8280 C.3   170  VAL170      0.0019
@<TRIPOS>BOND
     1    81    82    1
     2    87    86   ar
     3    76    75    2
     4    75    74    1
     5    86    88   ar
     6    86    85    1
     7    82    85    1
     8    82    83    1
     9    64    63    2
    10    68    66    1
    11    66    65    1
    12    74    73    1
    13    74    77    1
    14    73    71   am
    15    83    84    2
    16    63    62    1
    17    63    69   am
    18    71    72    2
    19    71    70    1
    20    77    78    1
    21    65    62    1
    22    65    67    1
    23    70    69    1
    24    62    61    1
    25    39    38    2
    26    78    79    1
    27    38    37    1
    28   130   129    2
    29    40    37    1
    30    40    41    1
    31    79    80    1
    32    37    36    1
    33    98    97    1
    34    98    99    1
    35    97    91   am
    36    42    41    1
    37    42    43    1
    38    44    43    1
    39   139   138    1
    40   134   135    1
    41   129   128    1
    42    89    90    1
    43    34    33    2
    44   135   138    1
    45   135   136    1
    46    90    91    1
    47    90    93    1
    48    91    92    2
    49    99   100    2
    50    99   101   am
    51   138   140    1
    52    56    55    2
    53   132   131    1
    54   104   103    2
    55   128   131    1
    56   128   127    1
    57    33    32    1
    58   136   137    2
    59   131   133    1
    60   101   102    1
    61    94    93    1
    62    94    96    1
    63    94    95    1
    64    35    32    1
    65    32    31    1
    66    55    54    1
    67    59    58   ar
    68   103   102    1
    69   102   105    1
    70    26    25    2
    71    58    60   ar
    72    58    57    1
    73    31    25   am
    74    54    53    1
    75    54    57    1
    76    25    24    1
    77   106   105    1
    78   105   107    1
    79   141   142    1
    80    20    19    2
    81    24    27    1
    82    24    23    1
    83   142   143    1
    84   142   145    1
    85    12    11    2
    86    27    28    1
    87   147   145    1
    88   126   125   ar
    89   126   124   ar
    90    48    47    2
    91   125   123   ar
    92   124   122   ar
    93    19    18    1
    94   143   144    2
    95    18    17    1
    96    18    21    1
    97   145   146    1
    98   123   121   ar
    99    11    17   am
   100    11    10    1
   101   122   121   ar
   102    47    46    1
   103   121   120    1
   104    22    21    1
   105    16    14   am
   106    28    30   ar
   107    28    29   ar
   108    13    10    1
   109    13    14    1
   110   111   110    2
   111   120   117    1
   112    10     9    1
   113    14    15    2
   114    45    46    1
   115    46    49    1
   116   110   109    1
   117   109   108    1
   118    49    51    1
   119    49    50    1
   120   117   118    1
   121   117   116    1
   122     4     3    2
   123     8     6    1
   124   118   119    2
   125   116   114   am
   126     3     2    1
   127    50    52    1
   128     2     5    1
   129     2     1    1
   130   112   113    1
   131     5     6    1
   132     6     7    1
   133   114   113    1
   134   114   115    2
