@<TRIPOS>MOLECULE
tmp/6eloA00.pdb
 143 130 0 0 0
SMALL
GASTEIGER

@<TRIPOS>ATOM
      1  N         64.5280   32.8570   33.9820 N.3    32  LEU32      -0.1245
      2  CA        63.9250   32.3660   32.7410 C.3    32  LEU32       0.1561
      3  C         62.6210   33.0980   32.3730 C.2    32  LEU32       0.2260
      4  O         62.4470   33.4500   31.2120 O.2    32  LEU32      -0.2867
      5  CB        63.7240   30.8270   32.7960 C.3    32  LEU32       0.0270
      6  CG        64.9890   29.9700   32.9260 C.3    32  LEU32       0.0019
      7  CD1       64.6440   28.5300   32.9060 C.3    32  LEU32       0.0001
      8  CD2       65.9930   30.2650   31.8080 C.3    32  LEU32       0.0001
      9  N         63.4410   36.6370   31.0990 N.3    35  ASN35      -0.1225
     10  CA        63.8170   36.5380   29.6730 C.3    35  ASN35       0.1785
     11  C         62.5690   36.4220   28.7850 C.2    35  ASN35       0.2597
     12  O         62.4710   37.1180   27.8010 O.2    35  ASN35      -0.2718
     13  CB        64.7150   35.3040   29.4400 C.3    35  ASN35       0.1169
     14  CG        66.1350   35.4990   29.8960 C.2    35  ASN35       0.2627
     15  OD1       66.5510   36.6050   30.2820 O.2    35  ASN35      -0.2716
     16  ND2       66.9140   34.4280   29.8360 N.am   35  ASN35      -0.0877
     17  N         61.6080   35.5710   29.1640 N.am   36  SER36      -0.1952
     18  CA        60.3460   35.4390   28.4520 C.3    36  SER36       0.1924
     19  C         59.6280   36.7960   28.3590 C.2    36  SER36       0.2314
     20  O         59.2110   37.2000   27.2840 O.2    36  SER36      -0.2863
     21  CB        59.4570   34.4040   29.1310 C.3    36  SER36       0.2116
     22  OG        59.9650   33.0950   28.9480 O.3    36  SER36      -0.2180
     23  N         61.0000   39.8270   28.5440 N.3    38  ASP38      -0.1225
     24  CA        61.7760   40.6900   27.6320 C.3    38  ASP38       0.1805
     25  C         61.5300   40.3820   26.1430 C.2    38  ASP38       0.2597
     26  O         61.3800   41.3250   25.3540 O.2    38  ASP38      -0.2718
     27  CB        63.2750   40.6590   27.9760 C.3    38  ASP38       0.1424
     28  CG        63.6050   41.2090   29.3520 C.2    38  ASP38       0.3668
     29  OD1       62.7250   41.8670   29.9630 O.co2  38  ASP38      -0.2456
     30  OD2       64.7400   41.0310   29.7960 O.co2  38  ASP38      -0.2456
     31  N         61.3970   39.0870   25.7730 N.am   39  ALA39      -0.1979
     32  CA        61.0900   38.6370   24.4000 C.3    39  ALA39       0.1597
     33  C         59.6350   38.9590   23.9930 C.2    39  ALA39       0.2287
     34  O         59.3580   39.1820   22.8220 O.2    39  ALA39      -0.2864
     35  CB        61.3010   37.1300   24.2910 C.3    39  ALA39       0.0319
     36  N         59.5110   42.6380   23.2800 N.3    42  LYS42      -0.1245
     37  CA        60.0960   42.8460   21.9440 C.3    42  LYS42       0.1561
     38  C         59.0890   42.5930   20.8230 C.2    42  LYS42       0.2260
     39  O         58.9680   43.4230   19.9470 O.2    42  LYS42      -0.2867
     40  CB        61.3690   41.9920   21.7500 C.3    42  LYS42       0.0271
     41  CG        62.5830   42.5730   22.4510 C.3    42  LYS42       0.0035
     42  CD        63.8160   41.6720   22.2900 C.3    42  LYS42       0.0206
     43  CE        64.9930   42.1130   23.1470 C.3    42  LYS42       0.1093
     44  NZ        65.7390   40.9580   23.7400 N.3    42  LYS42      -0.1314
     45  N         59.4790   25.8030   30.2320 N.3    75  ILE75      -0.1245
     46  CA        58.9920   27.1930   30.2480 C.3    75  ILE75       0.1561
     47  C         58.7390   27.6050   28.7660 C.2    75  ILE75       0.2260
     48  O         59.6920   27.7280   27.9920 O.2    75  ILE75      -0.2867
     49  CB        59.9630   28.1850   30.9820 C.3    75  ILE75       0.0252
     50  CG1       60.2600   27.7530   32.4150 C.3    75  ILE75       0.0019
     51  CG2       59.4110   29.6250   30.9760 C.3    75  ILE75       0.0019
     52  CD1       61.3530   26.7110   32.6020 C.3    75  ILE75       0.0001
     53  N         57.0960   30.5050   26.0460 N.3    77  ASP77      -0.1239
     54  CA        56.5920   31.8760   25.8200 C.3    77  ASP77       0.1674
     55  C         56.3000   32.1080   24.3410 C.2    77  ASP77       0.2266
     56  O         56.8760   31.4380   23.4970 O.2    77  ASP77      -0.2867
     57  CB        57.5440   32.9570   26.3500 C.3    77  ASP77       0.1410
     58  CG        58.8140   33.1620   25.5470 C.2    77  ASP77       0.3668
     59  OD1       58.7150   33.5560   24.3560 O.co2  77  ASP77      -0.2456
     60  OD2       59.9040   32.9350   26.1020 O.co2  77  ASP77      -0.2456
     61  N         59.2460   37.1210   20.8360 N.3    80  ILE80      -0.1231
     62  CA        59.8650   37.3790   19.5130 C.3    80  ILE80       0.1692
     63  C         60.6630   36.1590   18.9900 C.2    80  ILE80       0.2593
     64  O         60.7880   36.0010   17.7720 O.2    80  ILE80      -0.2718
     65  CB        60.6880   38.7070   19.5360 C.3    80  ILE80       0.0266
     66  CG1       61.0300   39.2210   18.1280 C.3    80  ILE80       0.0019
     67  CG2       61.9470   38.6150   20.4070 C.3    80  ILE80       0.0020
     68  CD1       61.2030   40.6580   18.0730 C.3    80  ILE80       0.0001
     69  N         61.0950   35.2670   19.8920 N.am   81  GLY81      -0.1942
     70  CA        61.8480   34.0750   19.4970 C.3    81  GLY81       0.2014
     71  C         63.2870   34.4290   19.1520 C.2    81  GLY81       0.2638
     72  O         63.7000   35.5930   19.2580 O.2    81  GLY81      -0.2714
     73  N         64.0540   33.4550   18.6950 N.am   82  MET82      -0.1976
     74  CA        65.4620   33.7260   18.3440 C.3    82  MET82       0.1605
     75  C         65.7940   33.1320   16.9770 C.2    82  MET82       0.2287
     76  O         65.2440   32.0820   16.5960 O.2    82  MET82      -0.2864
     77  CB        66.3910   33.0760   19.3980 C.3    82  MET82       0.0413
     78  CG        66.6070   33.9170   20.6230 C.3    82  MET82       0.0598
     79  SD        67.4250   33.0400   21.9610 S.3    82  MET82      -0.1393
     80  CE        66.2440   31.7270   22.2840 C.3    82  MET82       0.0692
     81  N         71.1270   34.0470   16.6880 N.3    86  ASP86      -0.1239
     82  CA        70.8550   34.3950   18.0850 C.3    86  ASP86       0.1674
     83  C         71.1780   33.2200   18.9850 C.2    86  ASP86       0.2266
     84  O         71.8060   33.4250   19.9990 O.2    86  ASP86      -0.2867
     85  CB        69.3980   34.7700   18.3140 C.3    86  ASP86       0.1410
     86  CG        68.9430   36.1450   17.8820 C.2    86  ASP86       0.3668
     87  OD1       69.7640   37.0990   17.9500 O.co2  86  ASP86      -0.2456
     88  OD2       67.7560   36.2790   17.4980 O.co2  86  ASP86      -0.2456
     89  N         72.5570   32.7110   22.9410 N.3    91  LEU91      -0.1231
     90  CA        71.1310   32.8540   23.2390 C.3    91  LEU91       0.1693
     91  C         70.7040   34.3180   23.4190 C.2    91  LEU91       0.2593
     92  O         69.9890   34.6720   24.3790 O.2    91  LEU91      -0.2718
     93  CB        70.7650   31.9600   24.4270 C.3    91  LEU91       0.0284
     94  CG        71.1200   30.4780   24.1260 C.3    91  LEU91       0.0019
     95  CD1       71.8800   29.8600   25.2110 C.3    91  LEU91       0.0001
     96  CD2       69.9480   29.6970   23.6910 C.3    91  LEU91       0.0001
     97  N         71.1350   35.1200   22.4480 N.am   92  GLY92      -0.1942
     98  CA        70.8230   36.5340   22.3080 C.3    92  GLY92       0.2014
     99  C         71.3930   37.4580   23.3610 C.2    92  GLY92       0.2639
    100  O         70.9320   38.5940   23.4930 O.2    92  GLY92      -0.2714
    101  N         72.4450   37.0170   24.0610 N.am   93  THR93      -0.1950
    102  CA        73.0930   37.8010   25.1240 C.3    93  THR93       0.1897
    103  C         74.5050   38.2660   24.7430 C.2    93  THR93       0.2313
    104  O         75.1000   37.7300   23.8200 O.2    93  THR93      -0.2863
    105  CB        73.1370   36.9820   26.4380 C.3    93  THR93       0.1794
    106  OG1       73.9900   35.8490   26.2670 O.3    93  THR93      -0.2208
    107  CG2       71.7620   36.5240   26.9050 C.3    93  THR93       0.0378
    108  N         73.1000   40.3010   32.6760 N.3   119  GLY119     -0.1225
    109  CA        72.4950   39.8690   31.4240 C.3   119  GLY119      0.1811
    110  C         72.8070   38.4450   31.0210 C.2   119  GLY119      0.2280
    111  O         72.8100   38.1310   29.8370 O.2   119  GLY119     -0.2866
    112  N         70.0460   33.3100   31.8540 N.3   122  PHE122     -0.1241
    113  CA        69.7360   32.0030   31.2480 C.3   122  PHE122      0.1605
    114  C         70.5530   30.8780   31.8660 C.2   122  PHE122      0.2264
    115  O         70.0070   29.8000   32.1540 O.2   122  PHE122     -0.2867
    116  CB        69.9640   31.9880   29.7130 C.3   122  PHE122      0.0534
    117  CG        70.0200   30.5810   29.1450 C.ar  122  PHE122     -0.0203
    118  CD1       68.8810   29.7770   29.1080 C.ar  122  PHE122     -0.0042
    119  CD2       71.2290   30.0250   28.7370 C.ar  122  PHE122     -0.0042
    120  CE1       68.9430   28.4650   28.6380 C.ar  122  PHE122     -0.0003
    121  CE2       71.2920   28.7070   28.2880 C.ar  122  PHE122     -0.0003
    122  CZ        70.1490   27.9370   28.2230 C.ar  122  PHE122     -0.0000
    123  N         66.7130   24.2820   24.2180 N.3   134  VAL134     -0.1245
    124  CA        66.0550   25.5310   23.8500 C.3   134  VAL134      0.1561
    125  C         65.4570   25.3640   22.4800 C.2   134  VAL134      0.2260
    126  O         66.2010   25.1780   21.5130 O.2   134  VAL134     -0.2867
    127  CB        66.9750   26.7810   23.9190 C.3   134  VAL134      0.0252
    128  CG1       66.2200   28.0270   23.4630 C.3   134  VAL134      0.0019
    129  CG2       67.5150   26.9760   25.3220 C.3   134  VAL134      0.0019
    130  N         59.8250   30.9040   22.3770 N.3   168  THR168     -0.1218
    131  CA        60.9050   30.1010   22.9460 C.3   168  THR168      0.1862
    132  C         60.3900   29.1400   24.0000 C.2   168  THR168      0.2287
    133  O         59.5220   29.4730   24.8090 O.2   168  THR168     -0.2866
    134  CB        62.0080   31.0320   23.4710 C.3   168  THR168      0.1770
    135  OG1       62.4660   31.8420   22.3900 O.3   168  THR168     -0.2211
    136  CG2       63.1510   30.3010   24.0100 C.3   168  THR168      0.0375
    137  N         61.9570   26.4840   26.8510 N.3   170  VAL170     -0.1245
    138  CA        63.1280   26.0160   27.5730 C.3   170  VAL170      0.1561
    139  C         62.7270   24.7490   28.2950 C.2   170  VAL170      0.2260
    140  O         61.8540   24.7830   29.1510 O.2   170  VAL170     -0.2867
    141  CB        63.7820   27.0600   28.5270 C.3   170  VAL170      0.0252
    142  CG1       65.1690   26.5930   28.9720 C.3   170  VAL170      0.0019
    143  CG2       63.9270   28.4100   27.8420 C.3   170  VAL170      0.0019
@<TRIPOS>BOND
     1    76    75    2
     2    81    82    1
     3    75    74    1
     4    88    86   ar
     5    64    63    2
     6    86    87   ar
     7    86    85    1
     8    68    66    1
     9    82    85    1
    10    82    83    1
    11    66    65    1
    12    74    73    1
    13    74    77    1
    14    73    71   am
    15    83    84    2
    16    63    62    1
    17    63    69   am
    18    71    72    2
    19    71    70    1
    20    77    78    1
    21    70    69    1
    22    62    65    1
    23    62    61    1
    24    65    67    1
    25    39    38    2
    26    78    79    1
    27    38    37    1
    28   126   125    2
    29    40    37    1
    30    40    41    1
    31    37    36    1
    32    79    80    1
    33    42    41    1
    34    42    43    1
    35    98    97    1
    36    98    99    1
    37   130   131    1
    38   135   134    1
    39    97    91   am
    40   125   124    1
    41    34    33    2
    42    89    90    1
    43   131   134    1
    44   131   132    1
    45    43    44    1
    46    90    91    1
    47    90    93    1
    48    99   100    2
    49    99   101   am
    50    91    92    2
    51   128   127    1
    52   134   136    1
    53    56    55    2
    54    96    94    1
    55   104   103    2
    56   124   127    1
    57   124   123    1
    58   127   129    1
    59    33    32    1
    60   132   133    2
    61   101   102    1
    62    94    93    1
    63    94    95    1
    64    35    32    1
    65    55    54    1
    66    59    58   ar
    67    32    31    1
    68   103   102    1
    69   102   105    1
    70    26    25    2
    71    58    60   ar
    72    58    57    1
    73    31    25   am
    74    54    53    1
    75    54    57    1
    76    25    24    1
    77   106   105    1
    78   105   107    1
    79   137   138    1
    80    20    19    2
    81   138   139    1
    82   138   141    1
    83    24    27    1
    84    24    23    1
    85    12    11    2
    86   143   141    1
    87    27    28    1
    88    48    47    2
    89   122   121   ar
    90   122   120   ar
    91   121   119   ar
    92   139   140    2
    93    19    18    1
    94    18    21    1
    95    18    17    1
    96   141   142    1
    97   120   118   ar
    98   119   117   ar
    99    47    46    1
   100    11    17   am
   101    11    10    1
   102    22    21    1
   103   118   117   ar
   104   117   116    1
   105    28    30   ar
   106    28    29   ar
   107    13    10    1
   108    13    14    1
   109    10     9    1
   110   116   113    1
   111    16    14   am
   112   111   110    2
   113    14    15    2
   114    45    46    1
   115    46    49    1
   116    51    49    1
   117    49    50    1
   118   110   109    1
   119     4     3    2
   120   113   112    1
   121   113   114    1
   122   109   108    1
   123     8     6    1
   124   114   115    2
   125     3     2    1
   126    50    52    1
   127     2     5    1
   128     2     1    1
   129     5     6    1
   130     7     6    1
