@<TRIPOS>MOLECULE
tmp/6elpA00.pdb
 177 166 0 0 0
SMALL
GASTEIGER

@<TRIPOS>ATOM
      1  N         16.8490   26.6360   23.6490 N.3     6  PHE6       -0.1241
      2  CA        16.5230   27.9060   24.2610 C.3     6  PHE6        0.1605
      3  C         17.8400   28.6810   24.3070 C.2     6  PHE6        0.2264
      4  O         18.9120   28.0740   24.4170 O.2     6  PHE6       -0.2867
      5  CB        16.0490   27.6950   25.7210 C.3     6  PHE6        0.0534
      6  CG        14.5860   27.3340   25.8670 C.ar    6  PHE6       -0.0203
      7  CD1       13.5880   28.2600   25.5570 C.ar    6  PHE6       -0.0042
      8  CD2       14.2070   26.1090   26.4020 C.ar    6  PHE6       -0.0042
      9  CE1       12.2350   27.9440   25.7320 C.ar    6  PHE6       -0.0003
     10  CE2       12.8510   25.7860   26.5660 C.ar    6  PHE6       -0.0003
     11  CZ        11.8740   26.7060   26.2340 C.ar    6  PHE6       -0.0000
     12  N         -0.7200   33.9880   33.1480 N.3    32  LEU32      -0.1245
     13  CA        -1.2910   33.4490   31.9130 C.3    32  LEU32       0.1561
     14  C         -2.5580   34.1970   31.5150 C.2    32  LEU32       0.2260
     15  O         -2.7600   34.4410   30.3220 O.2    32  LEU32      -0.2867
     16  CB        -1.5360   31.9400   32.0110 C.3    32  LEU32       0.0270
     17  CG        -0.2530   31.1090   32.2820 C.3    32  LEU32       0.0019
     18  CD1       -0.5980   29.6820   32.5150 C.3    32  LEU32       0.0001
     19  CD2        0.7990   31.2730   31.1390 C.3    32  LEU32       0.0001
     20  N         -1.5710   37.4770   30.0660 N.3    35  ASN35      -0.1225
     21  CA        -1.1330   37.3090   28.6730 C.3    35  ASN35       0.1785
     22  C         -2.3210   37.2130   27.7230 C.2    35  ASN35       0.2597
     23  O         -2.3360   37.8770   26.6960 O.2    35  ASN35      -0.2718
     24  CB        -0.2200   36.0890   28.5050 C.3    35  ASN35       0.1169
     25  CG         1.1990   36.2860   29.0200 C.2    35  ASN35       0.2627
     26  OD1        1.5990   37.3720   29.4620 O.2    35  ASN35      -0.2716
     27  ND2        2.0100   35.2450   28.9350 N.am   35  ASN35      -0.0877
     28  N         -3.3250   36.4140   28.0910 N.am   36  SER36      -0.1952
     29  CA        -4.5520   36.2340   27.3060 C.3    36  SER36       0.1924
     30  C         -5.2780   37.5790   27.1290 C.2    36  SER36       0.2314
     31  O         -5.6640   37.9150   26.0090 O.2    36  SER36      -0.2863
     32  CB        -5.4580   35.2270   28.0100 C.3    36  SER36       0.2116
     33  OG        -4.9100   33.9260   27.8500 O.3    36  SER36      -0.2180
     34  N         -3.9690   40.5800   27.2460 N.3    38  ASP38      -0.1225
     35  CA        -3.1590   41.4000   26.3380 C.3    38  ASP38       0.1805
     36  C         -3.3760   41.0170   24.8680 C.2    38  ASP38       0.2597
     37  O         -3.5190   41.9040   24.0190 O.2    38  ASP38      -0.2718
     38  CB        -1.6690   41.3270   26.6990 C.3    38  ASP38       0.1424
     39  CG        -1.2730   41.9620   28.0230 C.2    38  ASP38       0.3668
     40  OD1       -2.1130   42.6910   28.6240 O.co2  38  ASP38      -0.2456
     41  OD2       -0.1380   41.7500   28.4490 O.co2  38  ASP38      -0.2456
     42  N         -3.4360   39.7100   24.5720 N.am   39  ALA39      -0.1979
     43  CA        -3.6600   39.2160   23.2030 C.3    39  ALA39       0.1597
     44  C         -5.0650   39.5380   22.7040 C.2    39  ALA39       0.2287
     45  O         -5.2470   39.8250   21.5140 O.2    39  ALA39      -0.2864
     46  CB        -3.3930   37.7310   23.1290 C.3    39  ALA39       0.0319
     47  N         -5.1660   43.1640   21.7810 N.3    42  LYS42      -0.1245
     48  CA        -4.4940   43.3570   20.4950 C.3    42  LYS42       0.1561
     49  C         -5.4160   43.0930   19.2950 C.2    42  LYS42       0.2260
     50  O         -5.4540   43.8950   18.3640 O.2    42  LYS42      -0.2867
     51  CB        -3.1910   42.5310   20.4230 C.3    42  LYS42       0.0271
     52  CG        -2.3070   42.9740   19.2610 C.3    42  LYS42       0.0035
     53  CD        -0.9250   42.3570   19.2410 C.3    42  LYS42       0.0206
     54  CE        -0.1340   42.9820   18.1180 C.3    42  LYS42       0.1093
     55  NZ         1.2040   42.3640   17.9670 N.3    42  LYS42      -0.1314
     56  N         -7.6810   31.3280   25.0570 N.3    77  ASP77      -0.1239
     57  CA        -8.1160   32.6740   24.7410 C.3    77  ASP77       0.1674
     58  C         -8.3820   32.7640   23.2580 C.2    77  ASP77       0.2266
     59  O         -7.8390   31.9700   22.4800 O.2    77  ASP77      -0.2867
     60  CB        -7.1230   33.7540   25.2340 C.3    77  ASP77       0.1410
     61  CG        -5.7990   33.8280   24.4840 C.2    77  ASP77       0.3668
     62  OD1       -5.8180   34.1400   23.2700 O.co2  77  ASP77      -0.2456
     63  OD2       -4.7370   33.5760   25.1160 O.co2  77  ASP77      -0.2456
     64  N         -5.2420   37.5080   19.5520 N.3    80  ILE80      -0.1231
     65  CA        -4.6500   37.6470   18.2060 C.3    80  ILE80       0.1692
     66  C         -3.8540   36.3970   17.7540 C.2    80  ILE80       0.2593
     67  O         -3.7300   36.1730   16.5570 O.2    80  ILE80      -0.2718
     68  CB        -3.8220   38.9560   18.1070 C.3    80  ILE80       0.0266
     69  CG1       -3.5560   39.3510   16.6120 C.3    80  ILE80       0.0019
     70  CG2       -2.5370   38.9000   18.9580 C.3    80  ILE80       0.0020
     71  CD1       -3.2100   40.8230   16.3650 C.3    80  ILE80       0.0001
     72  N         -3.3560   35.6030   18.7050 N.am   81  GLY81      -0.1942
     73  CA        -2.5870   34.4110   18.3700 C.3    81  GLY81       0.2014
     74  C         -1.1670   34.7480   17.9580 C.2    81  GLY81       0.2638
     75  O         -0.7880   35.9210   17.8960 O.2    81  GLY81      -0.2714
     76  N         -0.3500   33.7070   17.7590 N.am   82  MET82      -0.1976
     77  CA         1.0620   33.8470   17.4120 C.3    82  MET82       0.1605
     78  C          1.3970   33.1250   16.1280 C.2    82  MET82       0.2287
     79  O          0.8620   32.0480   15.8660 O.2    82  MET82      -0.2864
     80  CB         1.9550   33.3180   18.5430 C.3    82  MET82       0.0413
     81  CG         1.9720   34.2110   19.7580 C.3    82  MET82       0.0598
     82  SD         2.7860   33.4140   21.1550 S.3    82  MET82      -0.1393
     83  CE         1.4890   32.2260   21.6580 C.3    82  MET82       0.0692
     84  N          6.8900   34.2140   15.6920 N.3    86  ASP86      -0.1225
     85  CA         6.7300   34.5830   17.1100 C.3    86  ASP86       0.1805
     86  C          7.2970   33.4730   18.0070 C.2    86  ASP86       0.2597
     87  O          8.1220   33.7270   18.9020 O.2    86  ASP86      -0.2718
     88  CB         5.2410   34.7860   17.4460 C.3    86  ASP86       0.1424
     89  CG         4.6930   36.1490   17.0790 C.2    86  ASP86       0.3668
     90  OD1        5.4580   37.1270   17.1420 O.co2  86  ASP86      -0.2456
     91  OD2        3.4950   36.2340   16.7330 O.co2  86  ASP86      -0.2456
     92  N          6.8440   32.2280   17.7560 N.am   87  LEU87      -0.1979
     93  CA         7.2380   31.0510   18.5280 C.3    87  LEU87       0.1596
     94  C          8.7260   30.7550   18.4940 C.2    87  LEU87       0.2287
     95  O          9.2870   30.3780   19.5160 O.2    87  LEU87      -0.2864
     96  CB         6.4360   29.8130   18.0710 C.3    87  LEU87       0.0297
     97  CG         4.9150   29.8630   18.2670 C.3    87  LEU87       0.0022
     98  CD1        4.2750   28.5720   17.7850 C.3    87  LEU87       0.0001
     99  CD2        4.5340   30.1030   19.7570 C.3    87  LEU87       0.0001
    100  N          9.3950   35.6870   20.5290 N.3    91  LEU91      -0.1245
    101  CA         9.2840   35.4440   21.9850 C.3    91  LEU91       0.1561
    102  C         10.6730   35.4600   22.6620 C.2    91  LEU91       0.2260
    103  O         10.8460   36.1010   23.7020 O.2    91  LEU91      -0.2867
    104  CB         8.5800   34.0990   22.2740 C.3    91  LEU91       0.0270
    105  CG         7.0620   34.0350   22.0180 C.3    91  LEU91       0.0019
    106  CD1        6.5660   32.6130   22.1680 C.3    91  LEU91       0.0001
    107  CD2        6.2930   34.9640   22.9520 C.3    91  LEU91       0.0001
    108  N         12.3820   39.0980   22.7790 N.3    94  ILE94      -0.1245
    109  CA        11.7980   39.9090   23.8570 C.3    94  ILE94       0.1561
    110  C         12.2090   39.3650   25.2440 C.2    94  ILE94       0.2260
    111  O         12.6080   40.1480   26.1150 O.2    94  ILE94      -0.2867
    112  CB        10.2480   40.0770   23.6870 C.3    94  ILE94       0.0252
    113  CG1        9.8870   40.6590   22.2930 C.3    94  ILE94       0.0019
    114  CG2        9.6620   40.9670   24.7890 C.3    94  ILE94       0.0019
    115  CD1        8.5170   40.1950   21.7250 C.3    94  ILE94       0.0001
    116  N          7.9020   41.1250   31.5320 N.3   119  GLY119     -0.1225
    117  CA         7.3720   40.5470   30.2980 C.3   119  GLY119      0.1811
    118  C          7.6840   39.0820   30.0540 C.2   119  GLY119      0.2280
    119  O          7.5640   38.6110   28.9240 O.2   119  GLY119     -0.2866
    120  N          4.9460   34.2310   31.3410 N.3   122  PHE122     -0.1227
    121  CA         4.6210   32.8900   30.8440 C.3   122  PHE122      0.1736
    122  C          5.4420   31.7940   31.5680 C.2   122  PHE122      0.2595
    123  O          4.8920   30.7450   31.8990 O.2   122  PHE122     -0.2718
    124  CB         4.9020   32.7660   29.3140 C.3   122  PHE122      0.0547
    125  CG         4.8680   31.3210   28.8550 C.ar  122  PHE122     -0.0202
    126  CD1        3.6530   30.6820   28.5990 C.ar  122  PHE122     -0.0042
    127  CD2        6.0460   30.5830   28.7310 C.ar  122  PHE122     -0.0042
    128  CE1        3.6180   29.3370   28.2140 C.ar  122  PHE122     -0.0003
    129  CE2        6.0130   29.2420   28.3310 C.ar  122  PHE122     -0.0003
    130  CZ         4.8040   28.6310   28.0630 C.ar  122  PHE122     -0.0000
    131  N          6.7530   32.0230   31.7640 N.am  123  TYR123     -0.1976
    132  CA         7.6410   31.0000   32.3390 C.3   123  TYR123      0.1639
    133  C          7.2920   30.6250   33.7830 C.2   123  TYR123      0.2290
    134  O          7.7050   29.5510   34.2250 O.2   123  TYR123     -0.2864
    135  CB         9.1260   31.3820   32.1710 C.3   123  TYR123      0.0560
    136  CG         9.4910   31.5820   30.7130 C.ar  123  TYR123     -0.0198
    137  CD1        9.7700   30.4910   29.8840 C.ar  123  TYR123     -0.0009
    138  CD2        9.4760   32.8500   30.1390 C.ar  123  TYR123     -0.0009
    139  CE1       10.0760   30.6710   28.5310 C.ar  123  TYR123      0.0417
    140  CE2        9.7620   33.0390   28.7840 C.ar  123  TYR123      0.0417
    141  CZ        10.0620   31.9480   27.9870 C.ar  123  TYR123      0.1957
    142  OH        10.3240   32.1490   26.6520 O.3   123  TYR123     -0.2866
    143  N          1.7060   24.8080   23.9740 N.3   134  VAL134     -0.1245
    144  CA         1.0480   26.0510   23.5800 C.3   134  VAL134      0.1561
    145  C          0.5690   25.8830   22.1440 C.2   134  VAL134      0.2260
    146  O          1.4010   25.7830   21.2250 O.2   134  VAL134     -0.2867
    147  CB         1.9730   27.2950   23.7510 C.3   134  VAL134      0.0252
    148  CG1        1.2920   28.5730   23.2620 C.3   134  VAL134      0.0019
    149  CG2        2.4550   27.4530   25.1940 C.3   134  VAL134      0.0019
    150  N          3.7170   24.6160   20.1510 N.3   146  TRP146     -0.1241
    151  CA         5.0180   24.8460   20.7790 C.3   146  TRP146      0.1605
    152  C          4.9710   23.9450   22.0070 C.2   146  TRP146      0.2264
    153  O          3.9040   23.8200   22.6210 O.2   146  TRP146     -0.2867
    154  CB         5.1290   26.3300   21.2170 C.3   146  TRP146      0.0550
    155  CG         6.3660   26.7550   21.9820 C.ar  146  TRP146      0.0003
    156  CD1        7.4080   27.4880   21.4890 C.ar  146  TRP146      0.0946
    157  CD2        6.5930   26.6480   23.4080 C.ar  146  TRP146      0.0152
    158  NE1        8.2870   27.8150   22.5060 N.ar  146  TRP146     -0.2442
    159  CE2        7.8130   27.3080   23.6910 C.ar  146  TRP146      0.0810
    160  CE3        5.9030   26.0210   24.4690 C.ar  146  TRP146      0.0012
    161  CZ2        8.3870   27.3140   24.9770 C.ar  146  TRP146      0.0191
    162  CZ3        6.4670   26.0340   25.7420 C.ar  146  TRP146      0.0001
    163  CH2        7.6740   26.7080   25.9930 C.ar  146  TRP146      0.0015
    164  N         -4.9140   31.3950   21.3700 N.3   168  THR168     -0.1218
    165  CA        -3.8550   30.6380   22.0120 C.3   168  THR168      0.1862
    166  C         -4.4460   29.7740   23.1170 C.2   168  THR168      0.2287
    167  O         -5.2890   30.2380   23.8920 O.2   168  THR168     -0.2866
    168  CB        -2.7790   31.6090   22.5740 C.3   168  THR168      0.1770
    169  OG1       -2.2910   32.4450   21.5240 O.3   168  THR168     -0.2211
    170  CG2       -1.5950   30.8710   23.2560 C.3   168  THR168      0.0375
    171  N         -2.9870   27.3610   26.2300 N.3   170  VAL170     -0.1245
    172  CA        -1.8380   26.9420   27.0320 C.3   170  VAL170      0.1561
    173  C         -2.2610   25.7210   27.8390 C.2   170  VAL170      0.2260
    174  O         -3.1450   25.8260   28.6910 O.2   170  VAL170     -0.2867
    175  CB        -1.2750   28.0770   27.9190 C.3   170  VAL170      0.0252
    176  CG1       -0.1100   27.5780   28.7920 C.3   170  VAL170      0.0019
    177  CG2       -0.8450   29.2780   27.0730 C.3   170  VAL170      0.0019
@<TRIPOS>BOND
     1    84    85    1
     2    79    78    2
     3    78    77    1
     4    71    69    1
     5    67    66    2
     6    69    68    1
     7    91    89   ar
     8    89    90   ar
     9    89    88    1
    10    85    88    1
    11    85    86    1
    12    77    76    1
    13    77    80    1
    14    66    65    1
    15    66    72   am
    16    92    86   am
    17    92    93    1
    18    76    74   am
    19    98    97    1
    20    75    74    2
    21    74    73    1
    22    55    54    1
    23    86    87    2
    24    96    97    1
    25    96    93    1
    26    68    65    1
    27    68    70    1
    28    54    53    1
    29    65    64    1
    30    97    99    1
    31    50    49    2
    32    73    72    1
    33    94    93    1
    34    94    95    2
    35    80    81    1
    36    53    52    1
    37    52    51    1
    38    49    48    1
    39    81    82    1
    40   150   151    1
    41    51    48    1
    42    48    47    1
    43   100   101    1
    44   151   154    1
    45   151   152    1
    46    82    83    1
    47   154   155    1
    48   146   145    2
    49   164   165    1
    50   156   155   ar
    51   156   158   ar
    52    45    44    2
    53   169   168    1
    54   115   113    1
    55   155   157   ar
    56   101   104    1
    57   101   102    1
    58   152   153    2
    59   165   168    1
    60   165   166    1
    61   105   106    1
    62   105   104    1
    63   105   107    1
    64   145   144    1
    65   113   112    1
    66    59    58    2
    67   158   159   ar
    68   168   170    1
    69   102   103    2
    70    44    43    1
    71   108   109    1
    72   166   167    2
    73    46    43    1
    74    43    42    1
    75    58    57    1
    76   148   147    1
    77    62    61   ar
    78   157   159   ar
    79   157   160   ar
    80   144   147    1
    81   144   143    1
    82     1     2    1
    83   112   109    1
    84   112   114    1
    85   159   161   ar
    86   147   149    1
    87   109   110    1
    88    37    36    2
    89     2     3    1
    90     2     5    1
    91     3     4    2
    92   160   162   ar
    93    61    63   ar
    94    61    60    1
    95    42    36   am
    96    57    56    1
    97    57    60    1
    98    36    35    1
    99   161   163   ar
   100   110   111    2
   101     7     9   ar
   102     7     6   ar
   103     5     6    1
   104     9    11   ar
   105   162   163   ar
   106     6     8   ar
   107    31    30    2
   108   171   172    1
   109    11    10   ar
   110    35    38    1
   111    35    34    1
   112     8    10   ar
   113   142   141    1
   114    23    22    2
   115    38    39    1
   116   172   173    1
   117   172   175    1
   118   177   175    1
   119    30    29    1
   120    29    32    1
   121    29    28    1
   122    22    28   am
   123    22    21    1
   124   173   174    2
   125    33    32    1
   126   175   176    1
   127   141   139   ar
   128   141   140   ar
   129    39    41   ar
   130    39    40   ar
   131   130   128   ar
   132   130   129   ar
   133   128   126   ar
   134   129   127   ar
   135    24    21    1
   136    24    25    1
   137   139   137   ar
   138   126   125   ar
   139    21    20    1
   140   127   125   ar
   141   140   138   ar
   142   125   124    1
   143   119   118    2
   144    27    25   am
   145    25    26    2
   146   124   121    1
   147   137   136   ar
   148   118   117    1
   149   138   136   ar
   150   117   116    1
   151    15    14    2
   152   136   135    1
   153   121   120    1
   154   121   122    1
   155    19    17    1
   156    14    13    1
   157   122   131   am
   158   122   123    2
   159   131   132    1
   160    13    16    1
   161    13    12    1
   162    16    17    1
   163   135   132    1
   164    17    18    1
   165   132   133    1
   166   133   134    2
