@<TRIPOS>MOLECULE
tmp/6elrB00.pdb
 167 159 0 0 0
SMALL
GASTEIGER

@<TRIPOS>ATOM
      1  N         15.8660  -27.3920  -11.7790 N.3    15  ARG15      -0.1245
      2  CA        14.9640  -26.2570  -11.5430 C.3    15  ARG15       0.1563
      3  C         15.2280  -25.6060  -10.1900 C.2    15  ARG15       0.2260
      4  O         15.8600  -26.2090   -9.3210 O.2    15  ARG15      -0.2867
      5  CB        13.4790  -26.7070  -11.6370 C.3    15  ARG15       0.0307
      6  CG        13.0510  -27.7700  -10.5950 C.3    15  ARG15       0.0489
      7  CD        11.6400  -28.2740  -10.8270 C.3    15  ARG15       0.2205
      8  NE        11.3320  -29.4340   -9.9740 N.pl3  15  ARG15      -0.0865
      9  CZ        10.7980  -29.3610   -8.7550 C.cat  15  ARG15       0.5346
     10  NH1       10.4880  -28.1830   -8.2260 N.pl3  15  ARG15       0.1354
     11  NH2       10.5610  -30.4650   -8.0630 N.pl3  15  ARG15       0.1354
     12  N         14.2860  -24.3330   -6.4670 N.3    17  LEU17      -0.1231
     13  CA        13.3840  -24.7750   -5.4070 C.3    17  LEU17       0.1693
     14  C         12.9030  -23.5750   -4.6240 C.2    17  LEU17       0.2593
     15  O         11.7370  -23.5080   -4.2850 O.2    17  LEU17      -0.2718
     16  CB        14.0440  -25.8040   -4.4830 C.3    17  LEU17       0.0284
     17  CG        14.4100  -27.1530   -5.1380 C.3    17  LEU17       0.0019
     18  CD1       15.0700  -28.0530   -4.1400 C.3    17  LEU17       0.0001
     19  CD2       13.1640  -27.8570   -5.7890 C.3    17  LEU17       0.0001
     20  N         13.8130  -22.6450   -4.3440 N.am   18  GLY18      -0.1942
     21  CA        13.5060  -21.4240   -3.6130 C.3    18  GLY18       0.2014
     22  C         14.7150  -20.5240   -3.5100 C.2    18  GLY18       0.2641
     23  O         15.8220  -20.9030   -3.9120 O.2    18  GLY18      -0.2714
     24  N         14.5150  -19.3350   -2.9420 N.am   19  GLU19      -0.1931
     25  CA        15.5850  -18.3690   -2.7150 C.3    19  GLU19       0.1818
     26  C         15.3220  -17.5050   -1.4760 C.2    19  GLU19       0.2332
     27  O         14.1660  -17.1730   -1.1820 O.2    19  GLU19      -0.2860
     28  CB        15.9060  -17.5230   -3.9670 C.2    19  GLU19       0.0097
     29  CG        14.7420  -16.7720   -4.5990 C.2    19  GLU19       0.0837
     30  CD        15.0630  -16.0740   -5.9090 C.2    19  GLU19       0.3877
     31  OE1       16.1320  -15.4270   -6.0030 O.co2  19  GLU19      -0.2406
     32  OE2       14.2180  -16.1390   -6.8320 O.co2  19  GLU19      -0.2406
     33  N         18.3250  -22.1530   -3.7230 N.3    25  VAL25      -0.1245
     34  CA        18.4220  -23.6060   -3.6140 C.3    25  VAL25       0.1561
     35  C         17.8260  -24.1560   -4.8870 C.2    25  VAL25       0.2260
     36  O         16.7370  -23.7340   -5.3030 O.2    25  VAL25      -0.2867
     37  CB        17.7700  -24.2120   -2.3490 C.3    25  VAL25       0.0252
     38  CG1       18.0360  -25.7240   -2.2650 C.3    25  VAL25       0.0019
     39  CG2       18.2800  -23.5170   -1.0860 C.3    25  VAL25       0.0019
     40  N         19.8770  -31.3780   -3.6120 N.3    42  ALA42      -0.1245
     41  CA        19.5050  -29.9660   -3.4520 C.3    42  ALA42       0.1562
     42  C         20.8370  -29.2290   -3.3400 C.2    42  ALA42       0.2260
     43  O         21.7300  -29.6410   -2.5960 O.2    42  ALA42      -0.2867
     44  CB        18.6870  -29.7640   -2.1830 C.3    42  ALA42       0.0290
     45  N         18.3020  -32.1770    7.8800 N.3    69  VAL69      -0.1245
     46  CA        18.5740  -32.5170    6.4660 C.3    69  VAL69       0.1561
     47  C         20.0510  -32.9560    6.2820 C.2    69  VAL69       0.2260
     48  O         20.9670  -32.4060    6.9110 O.2    69  VAL69      -0.2867
     49  CB        18.1310  -31.4180    5.4770 C.3    69  VAL69       0.0252
     50  CG1       19.0420  -30.1750    5.5580 C.3    69  VAL69       0.0019
     51  CG2       18.0560  -31.9680    4.0390 C.3    69  VAL69       0.0019
     52  N         23.1700  -31.0800   -0.6850 N.3    84  MET84      -0.1230
     53  CA        22.3770  -31.7610    0.3310 C.3    84  MET84       0.1702
     54  C         21.4670  -32.7960   -0.2710 C.2    84  MET84       0.2592
     55  O         21.1990  -32.7630   -1.4740 O.2    84  MET84      -0.2718
     56  CB        21.5330  -30.7340    1.1220 C.3    84  MET84       0.0401
     57  CG        22.3760  -29.6700    1.8810 C.3    84  MET84       0.0596
     58  SD        21.3370  -28.2760    2.3940 S.3    84  MET84      -0.1393
     59  CE        21.2620  -27.3330    0.8180 C.3    84  MET84       0.0692
     60  N         20.9280  -33.7050    0.5620 N.am   85  GLU85      -0.1966
     61  CA        19.9270  -34.6380    0.0320 C.3    85  GLU85       0.1733
     62  C         18.6970  -33.8170   -0.4520 C.2    85  GLU85       0.2616
     63  O         18.4480  -32.6920    0.0460 O.2    85  GLU85      -0.2715
     64  CB        19.5030  -35.6690    1.0780 C.3    85  GLU85       0.0429
     65  CG        18.8470  -35.0740    2.3050 C.3    85  GLU85       0.1163
     66  CD        18.3040  -36.0600    3.3210 C.2    85  GLU85       0.3649
     67  OE1       18.1380  -37.2530    2.9810 O.co2  85  GLU85      -0.2457
     68  OE2       18.0620  -35.6350    4.4740 O.co2  85  GLU85      -0.2457
     69  N         17.9780  -34.3600   -1.4360 N.am   86  PHE86      -0.1960
     70  CA        16.7550  -33.7290   -1.9350 C.3    86  PHE86       0.1771
     71  C         15.4930  -34.3750   -1.3670 C.2    86  PHE86       0.2619
     72  O         15.3400  -35.6030   -1.4480 O.2    86  PHE86      -0.2715
     73  CB        16.7040  -33.7820   -3.4520 C.3    86  PHE86       0.0574
     74  CG        15.4020  -33.2870   -4.0470 C.ar   86  PHE86      -0.0200
     75  CD1       14.9910  -31.9710   -3.8650 C.ar   86  PHE86      -0.0042
     76  CD2       14.6340  -34.1130   -4.8580 C.ar   86  PHE86      -0.0042
     77  CE1       13.8090  -31.5010   -4.4520 C.ar   86  PHE86      -0.0003
     78  CE2       13.4560  -33.6410   -5.4590 C.ar   86  PHE86      -0.0003
     79  CZ        13.0630  -32.3350   -5.2660 C.ar   86  PHE86      -0.0000
     80  N         14.5630  -33.5610   -0.8340 N.am   87  LEU87      -0.1964
     81  CA        13.2980  -34.1030   -0.2860 C.3    87  LEU87       0.1713
     82  C         12.1660  -33.6410   -1.2140 C.2    87  LEU87       0.2458
     83  O         11.7970  -32.4620   -1.1920 O.2    87  LEU87      -0.2730
     84  CB        13.0630  -33.6390    1.1780 C.3    87  LEU87       0.0310
     85  CG        13.6880  -34.4910    2.2800 C.3    87  LEU87       0.0022
     86  CD1       15.2080  -34.6110    2.1280 C.3    87  LEU87       0.0001
     87  CD2       13.4190  -33.8690    3.6720 C.3    87  LEU87       0.0001
     88  N         11.6800  -34.5610   -2.0980 N.am   88  PRO88      -0.2716
     89  CA        10.6700  -34.1730   -3.1080 C.3    88  PRO88       0.1536
     90  C          9.3390  -33.6080   -2.5940 C.2    88  PRO88       0.2599
     91  O          8.6710  -32.9380   -3.3610 O.2    88  PRO88      -0.2715
     92  CB        10.4290  -35.4610   -3.9180 C.3    88  PRO88       0.0310
     93  CG        11.5050  -36.4040   -3.5510 C.3    88  PRO88       0.0237
     94  CD        12.0940  -35.9820   -2.2380 C.3    88  PRO88       0.0939
     95  N          8.9330  -33.8840   -1.3320 N.am   89  SER89      -0.1936
     96  CA         7.6710  -33.3450   -0.7810 C.3    89  SER89       0.2055
     97  C          7.7200  -31.8590   -0.4320 C.2    89  SER89       0.2644
     98  O          6.6770  -31.2650   -0.1790 O.2    89  SER89      -0.2714
     99  CB         7.2190  -34.1530    0.4380 C.3    89  SER89       0.2130
    100  OG         6.9000  -35.4780    0.0650 O.3    89  SER89      -0.2179
    101  N          8.9150  -31.2540   -0.4470 N.am   90  GLY90      -0.1939
    102  CA         9.0670  -29.8420   -0.1420 C.3    90  GLY90       0.2014
    103  C          8.9700  -29.5660    1.3450 C.2    90  GLY90       0.2639
    104  O          9.2370  -30.4430    2.1630 O.2    90  GLY90      -0.2714
    105  N          8.5420  -28.3490    1.6880 N.am   91  SER91      -0.1949
    106  CA         8.3850  -27.9650    3.0840 C.3    91  SER91       0.1924
    107  C          6.9370  -28.1470    3.5520 C.2    91  SER91       0.2314
    108  O          6.0520  -28.4330    2.7320 O.2    91  SER91      -0.2863
    109  CB         8.8530  -26.5280    3.2970 C.3    91  SER91       0.2116
    110  OG         7.8920  -25.5710    2.8900 O.3    91  SER91      -0.2180
    111  N          5.0330  -25.8400    4.2460 N.3    93  LYS93      -0.1231
    112  CA         4.2990  -24.7970    3.5180 C.3    93  LYS93       0.1693
    113  C          3.5960  -25.3370    2.2620 C.2    93  LYS93       0.2591
    114  O          2.4730  -24.9090    1.9590 O.2    93  LYS93      -0.2718
    115  CB         5.2430  -23.6200    3.1620 C.3    93  LYS93       0.0285
    116  CG         4.4870  -22.3980    2.6910 C.3    93  LYS93       0.0035
    117  CD         3.5390  -21.9550    3.8000 C.3    93  LYS93       0.0206
    118  CE         2.5540  -20.8880    3.3430 C.3    93  LYS93       0.1093
    119  NZ         1.6560  -20.5040    4.4780 N.3    93  LYS93      -0.1314
    120  N          4.2410  -26.2590    1.5280 N.am   94  GLU94      -0.1979
    121  CA         3.6410  -26.8220    0.3010 C.3    94  GLU94       0.1602
    122  C          2.8700  -28.1080    0.6060 C.2    94  GLU94       0.2287
    123  O          1.8280  -28.3630    0.0100 O.2    94  GLU94      -0.2864
    124  CB         4.7370  -27.1600   -0.7560 C.3    94  GLU94       0.0415
    125  CG         5.5330  -25.9650   -1.2840 C.3    94  GLU94       0.1163
    126  CD         6.5940  -25.4400   -0.3350 C.2    94  GLU94       0.3649
    127  OE1        7.2530  -26.2610    0.3370 O.co2  94  GLU94      -0.2457
    128  OE2        6.7530  -24.2060   -0.2410 O.co2  94  GLU94      -0.2457
    129  N          8.2770  -23.0140    6.5120 N.3   135  ARG135     -0.1231
    130  CA         8.9380  -23.0100    5.2030 C.3   135  ARG135      0.1694
    131  C         10.3240  -23.6790    5.2730 C.2   135  ARG135      0.2592
    132  O         10.8360  -24.0880    4.2320 O.2   135  ARG135     -0.2718
    133  CB         9.0650  -21.5590    4.6520 C.3   135  ARG135      0.0321
    134  CG         9.9790  -20.6650    5.4970 C.3   135  ARG135      0.0489
    135  CD        10.0990  -19.2190    5.0040 C.3   135  ARG135      0.2205
    136  NE        10.0330  -18.3250    6.1580 N.pl3 135  ARG135     -0.0865
    137  CZ        11.0730  -17.9180    6.8710 C.cat 135  ARG135      0.5346
    138  NH1       12.3120  -18.2240    6.4860 N.pl3 135  ARG135      0.1354
    139  NH2       10.8950  -17.1830    7.9560 N.pl3 135  ARG135      0.1354
    140  N         10.9350  -23.7730    6.4920 N.am  136  ASN136     -0.1974
    141  CA        12.2560  -24.3880    6.6820 C.3   136  ASN136      0.1688
    142  C         12.2040  -25.8020    7.2130 C.2   136  ASN136      0.2292
    143  O         13.2650  -26.3980    7.4290 O.2   136  ASN136     -0.2864
    144  CB        13.1690  -23.5030    7.5380 C.3   136  ASN136      0.1181
    145  CG        13.6360  -22.2720    6.7680 C.2   136  ASN136      0.2629
    146  OD1       13.8420  -22.3090    5.5470 O.2   136  ASN136     -0.2716
    147  ND2       13.8350  -21.1530    7.4420 N.am  136  ASN136     -0.0877
    148  N         11.2540  -29.4470    6.2340 N.3   138  LEU138     -0.1245
    149  CA        11.0890  -30.2900    5.0680 C.3   138  LEU138      0.1561
    150  C         10.4200  -31.6000    5.4190 C.2   138  LEU138      0.2260
    151  O         10.6120  -32.1180    6.5120 O.2   138  LEU138     -0.2867
    152  CB        12.4400  -30.5340    4.3690 C.3   138  LEU138      0.0270
    153  CG        13.2180  -29.2890    3.9120 C.3   138  LEU138      0.0019
    154  CD1       14.5940  -29.7060    3.3730 C.3   138  LEU138      0.0001
    155  CD2       12.4570  -28.4910    2.8370 C.3   138  LEU138      0.0001
    156  N         15.4480  -28.1410    7.4160 N.3   148  GLY148     -0.1210
    157  CA        16.0880  -28.1510    6.1060 C.3   148  GLY148      0.1956
    158  C         16.9240  -27.0100    5.6070 C.2   148  GLY148      0.2611
    159  O         17.3520  -27.0560    4.4560 O.2   148  GLY148     -0.2717
    160  N         17.1850  -25.9950    6.4520 N.am  149  ASP149     -0.1973
    161  CA        18.0030  -24.8450    6.0370 C.3   149  ASP149      0.1709
    162  C         18.6380  -24.2480    7.2630 C.2   149  ASP149      0.2293
    163  O         18.0120  -24.2500    8.3470 O.2   149  ASP149     -0.2864
    164  CB        17.1570  -23.8020    5.2920 C.3   149  ASP149      0.1436
    165  CG        18.0000  -22.7410    4.6220 C.2   149  ASP149      0.3671
    166  OD1       18.4320  -22.9680    3.4490 O.co2 149  ASP149     -0.2456
    167  OD2       18.3050  -21.7270    5.2880 O.co2 149  ASP149     -0.2456
@<TRIPOS>BOND
     1     1     2    1
     2     5     2    1
     3     5     6    1
     4     2     3    1
     5     7     6    1
     6     7     8    1
     7     3     4    2
     8     8     9    2
     9     9    10    1
    10     9    11    1
    11    32    30   ar
    12    12    13    1
    13    31    30   ar
    14    30    29    1
    15    19    17    1
    16    78    79   ar
    17    78    76   ar
    18    13    14    1
    19    13    16    1
    20    36    35    2
    21    79    77   ar
    22    17    16    1
    23    17    18    1
    24    35    34    1
    25    76    74   ar
    26    14    20   am
    27    14    15    2
    28    29    28    2
    29    77    75   ar
    30    20    21    1
    31    74    75   ar
    32    74    73    1
    33    28    25    1
    34    92    93    1
    35    92    89    1
    36    23    22    2
    37    33    34    1
    38    34    37    1
    39    21    22    1
    40    40    41    1
    41    93    94    1
    42    22    24   am
    43    73    70    1
    44    41    42    1
    45    41    44    1
    46    91    90    2
    47    42    43    2
    48    89    90    1
    49    89    88    1
    50    24    25    1
    51    25    26    1
    52    90    95   am
    53    37    38    1
    54    37    39    1
    55    94    88    1
    56    88    82   am
    57    70    69    1
    58    70    71    1
    59    26    27    2
    60    55    54    2
    61    72    71    2
    62    69    62   am
    63    71    80   am
    64    95    96    1
    65   125   124    1
    66   125   126    1
    67    82    83    2
    68    82    81    1
    69    80    81    1
    70    96    97    1
    71    96    99    1
    72   124   121    1
    73    52    53    1
    74    62    61    1
    75    62    63    2
    76   101    97   am
    77   101   102    1
    78    97    98    2
    79   126   128   ar
    80   126   127   ar
    81    81    84    1
    82    54    53    1
    83    54    60   am
    84   102   103    1
    85   123   122    2
    86    61    60    1
    87    61    64    1
    88   100    99    1
    89   121   122    1
    90   121   120    1
    91    53    56    1
    92    59    58    1
    93    64    65    1
    94    56    57    1
    95    84    85    1
    96   103   105   am
    97   103   104    2
    98   120   113   am
    99   105   106    1
   100    57    58    1
   101   114   113    2
   102    86    85    1
   103   113   112    1
   104    85    87    1
   105    65    66    1
   106   116   115    1
   107   116   117    1
   108   108   107    2
   109   155   153    1
   110   110   109    1
   111    67    66   ar
   112   106   109    1
   113   106   107    1
   114   115   112    1
   115    66    68   ar
   116   118   117    1
   117   118   119    1
   118   154   153    1
   119   166   165   ar
   120   112   111    1
   121   153   152    1
   122    51    49    1
   123   132   131    2
   124   152   149    1
   125   159   158    2
   126   165   167   ar
   127   165   164    1
   128   133   130    1
   129   133   134    1
   130   135   134    1
   131   135   136    1
   132   149   150    1
   133   149   148    1
   134   130   131    1
   135   130   129    1
   136   131   140   am
   137   164   161    1
   138   150   151    2
   139    49    50    1
   140    49    46    1
   141   146   145    2
   142   158   157    1
   143   158   160   am
   144   161   160    1
   145   161   162    1
   146   157   156    1
   147   136   137    2
   148    47    46    1
   149    47    48    2
   150    46    45    1
   151   138   137    1
   152   140   141    1
   153   141   142    1
   154   141   144    1
   155   145   147   am
   156   145   144    1
   157   137   139    1
   158   142   143    2
   159   162   163    2
