@<TRIPOS>MOLECULE
tmp/6em7A02.pdb
 168 160 0 0 0
SMALL
GASTEIGER

@<TRIPOS>ATOM
      1  N        -17.3090  -31.6310   25.4620 N.3    40  LEU40      -0.1231
      2  CA       -16.5490  -31.8700   24.2320 C.3    40  LEU40       0.1693
      3  C        -15.0610  -31.6050   24.3650 C.2    40  LEU40       0.2593
      4  O        -14.2700  -32.2590   23.6790 O.2    40  LEU40      -0.2718
      5  CB       -17.0940  -30.9970   23.0960 C.3    40  LEU40       0.0284
      6  CG       -18.5030  -31.3740   22.6400 C.3    40  LEU40       0.0019
      7  CD1      -19.1240  -30.2180   21.8350 C.3    40  LEU40       0.0001
      8  CD2      -18.5270  -32.6780   21.8410 C.3    40  LEU40       0.0001
      9  N        -14.6570  -30.6450   25.1890 N.am   41  GLY41      -0.1942
     10  CA       -13.2440  -30.3300   25.3320 C.3    41  GLY41       0.2014
     11  C        -13.0730  -29.2270   26.3440 C.2    41  GLY41       0.2640
     12  O        -14.0370  -28.5810   26.7630 O.2    41  GLY41      -0.2714
     13  N        -11.8140  -28.9980   26.7010 N.am   42  THR42      -0.1936
     14  CA       -11.4420  -28.0600   27.7440 C.3    42  THR42       0.2028
     15  C        -10.3210  -27.1550   27.2500 C.2    42  THR42       0.2643
     16  O         -9.5520  -27.4880   26.3410 O.2    42  THR42      -0.2714
     17  CB       -10.9950  -28.8030   29.0190 C.3    42  THR42       0.1808
     18  OG1       -9.9030  -29.6830   28.7070 O.3    42  THR42      -0.2208
     19  CG2      -12.1420  -29.6110   29.6220 C.3    42  THR42       0.0379
     20  N        -10.2190  -26.0070   27.8930 N.am   43  GLY43      -0.1939
     21  CA        -9.0670  -25.1470   27.7400 C.3    43  GLY43       0.2014
     22  C         -8.6800  -24.5840   29.0910 C.2    43  GLY43       0.2640
     23  O         -9.2680  -24.9480   30.1120 O.2    43  GLY43      -0.2714
     24  N         -7.7070  -23.6710   29.0950 N.am   44  SER44      -0.1935
     25  CA        -7.1810  -23.1280   30.3410 C.3    44  SER44       0.2055
     26  C         -8.2160  -22.3300   31.1180 C.2    44  SER44       0.2643
     27  O         -8.0330  -22.1120   32.3200 O.2    44  SER44      -0.2714
     28  CB        -5.9750  -22.2350   30.0460 C.3    44  SER44       0.2130
     29  OG        -6.3070  -21.1810   29.1490 O.3    44  SER44      -0.2179
     30  N         -9.2940  -21.8880   30.4670 N.am   45  PHE45      -0.1959
     31  CA       -10.2430  -20.9720   31.0820 C.3    45  PHE45       0.1771
     32  C        -11.6300  -21.5530   31.2990 C.2    45  PHE45       0.2620
     33  O        -12.4070  -20.9700   32.0580 O.2    45  PHE45      -0.2715
     34  CB       -10.3770  -19.6980   30.2310 C.3    45  PHE45       0.0574
     35  CG        -9.0400  -19.0910   29.8680 C.ar   45  PHE45      -0.0200
     36  CD1       -8.1580  -18.6650   30.8800 C.ar   45  PHE45      -0.0042
     37  CD2       -8.6520  -18.9640   28.5430 C.ar   45  PHE45      -0.0042
     38  CE1       -6.8900  -18.1150   30.5540 C.ar   45  PHE45      -0.0003
     39  CE2       -7.3900  -18.4190   28.2040 C.ar   45  PHE45      -0.0003
     40  CZ        -6.5130  -17.9960   29.2260 C.ar   45  PHE45      -0.0000
     41  N        -11.9710  -22.6530   30.6530 N.am   46  GLY46      -0.1954
     42  CA       -13.3240  -23.1560   30.7540 C.3    46  GLY46       0.1869
     43  C        -13.4930  -24.4570   30.0100 C.2    46  GLY46       0.2309
     44  O        -12.5200  -25.1450   29.6830 O.2    46  GLY46      -0.2863
     45  N        -16.2300  -26.5880   27.0070 N.3    48  VAL48      -0.1245
     46  CA       -17.1830  -26.5090   25.9150 C.3    48  VAL48       0.1561
     47  C        -18.0330  -27.7720   25.9610 C.2    48  VAL48       0.2260
     48  O        -17.4970  -28.8910   25.9660 O.2    48  VAL48      -0.2867
     49  CB       -16.4640  -26.3660   24.5720 C.3    48  VAL48       0.0252
     50  CG1      -17.4690  -26.3700   23.4390 C.3    48  VAL48       0.0019
     51  CG2      -15.6310  -25.0890   24.5460 C.3    48  VAL48       0.0019
     52  N        -22.4580  -26.2890   20.3530 N.3    61  ALA61      -0.1245
     53  CA       -21.3340  -26.3890   21.2860 C.3    61  ALA61       0.1562
     54  C        -21.2780  -25.1160   22.1290 C.2    61  ALA61       0.2260
     55  O        -21.0820  -24.0190   21.5940 O.2    61  ALA61      -0.2867
     56  CB       -20.0140  -26.6050   20.5500 C.3    61  ALA61       0.0290
     57  N        -19.6040  -22.8950   25.0140 N.3    63  LYS63      -0.1245
     58  CA       -18.4880  -22.5340   25.8740 C.3    63  LYS63       0.1561
     59  C        -19.0140  -21.8300   27.1190 C.2    63  LYS63       0.2260
     60  O        -19.8100  -20.8850   27.0300 O.2    63  LYS63      -0.2867
     61  CB       -17.5160  -21.6470   25.1110 C.3    63  LYS63       0.0271
     62  CG       -16.2710  -21.2450   25.8850 C.3    63  LYS63       0.0035
     63  CD       -15.2210  -20.6590   24.9580 C.3    63  LYS63       0.0206
     64  CE       -14.0080  -20.1910   25.7110 C.3    63  LYS63       0.1093
     65  NZ       -12.8690  -19.9480   24.7550 N.3    63  LYS63      -0.1314
     66  N        -15.5350  -20.7240   13.1120 N.3    95  VAL95      -0.1245
     67  CA       -16.7670  -21.2400   13.7020 C.3    95  VAL95       0.1561
     68  C        -17.7790  -20.1250   13.9000 C.2    95  VAL95       0.2260
     69  O        -17.4280  -19.0030   14.2590 O.2    95  VAL95      -0.2867
     70  CB       -16.4800  -21.9860   15.0130 C.3    95  VAL95       0.0252
     71  CG1      -16.1150  -21.0270   16.1290 C.3    95  VAL95       0.0019
     72  CG2      -17.6690  -22.8700   15.3990 C.3    95  VAL95       0.0019
     73  N        -21.9460  -21.9180   20.0000 N.3   111  MET111     -0.1230
     74  CA       -21.4250  -22.0330   18.6460 C.3   111  MET111      0.1702
     75  C        -22.1190  -23.1670   17.8900 C.2   111  MET111      0.2592
     76  O        -22.6650  -24.1030   18.4890 O.2   111  MET111     -0.2718
     77  CB       -19.9420  -22.4010   18.7200 C.3   111  MET111      0.0401
     78  CG       -19.0230  -21.3290   19.2980 C.3   111  MET111      0.0596
     79  SD       -17.3800  -21.9790   19.6940 S.3   111  MET111     -0.1393
     80  CE       -17.7090  -22.7910   21.2580 C.3   111  MET111      0.0692
     81  N        -22.0110  -23.1320   16.5540 N.am  112  GLU112     -0.1966
     82  CA       -22.3040  -24.3270   15.7570 C.3   112  GLU112      0.1733
     83  C        -21.4460  -25.4890   16.2560 C.2   112  GLU112      0.2616
     84  O        -20.2580  -25.3240   16.5430 O.2   112  GLU112     -0.2715
     85  CB       -22.0170  -24.0380   14.2770 C.3   112  GLU112      0.0429
     86  CG       -22.1970  -25.2290   13.3340 C.3   112  GLU112      0.1163
     87  CD       -21.9300  -24.9100   11.8450 C.2   112  GLU112      0.3649
     88  OE1      -22.0460  -23.7420   11.4180 O.co2 112  GLU112     -0.2457
     89  OE2      -21.6060  -25.8540   11.0830 O.co2 112  GLU112     -0.2457
     90  N        -22.0480  -26.6670   16.3890 N.am  113  TYR113     -0.1960
     91  CA       -21.3110  -27.8620   16.7990 C.3   113  TYR113      0.1771
     92  C        -20.5660  -28.4210   15.5890 C.2   113  TYR113      0.2619
     93  O        -21.1810  -28.7050   14.5490 O.2   113  TYR113     -0.2715
     94  CB       -22.2890  -28.8920   17.3800 C.3   113  TYR113      0.0574
     95  CG       -21.6910  -30.2690   17.6250 C.ar  113  TYR113     -0.0198
     96  CD1      -20.4440  -30.4190   18.2530 C.ar  113  TYR113     -0.0009
     97  CD2      -22.3600  -31.4190   17.2290 C.ar  113  TYR113     -0.0009
     98  CE1      -19.9020  -31.6560   18.4690 C.ar  113  TYR113      0.0417
     99  CE2      -21.8130  -32.6670   17.4470 C.ar  113  TYR113      0.0417
    100  CZ       -20.5850  -32.7760   18.0730 C.ar  113  TYR113      0.1957
    101  OH       -19.9860  -33.9900   18.3150 O.3   113  TYR113     -0.2866
    102  N        -19.2460  -28.5420   15.7000 N.am  114  VAL114     -0.1977
    103  CA       -18.4220  -29.0490   14.6050 C.3   114  VAL114      0.1596
    104  C        -18.0970  -30.5050   14.9300 C.2   114  VAL114      0.2287
    105  O        -17.3170  -30.7610   15.8660 O.2   114  VAL114     -0.2864
    106  CB       -17.1530  -28.2080   14.3890 C.3   114  VAL114      0.0276
    107  CG1      -16.4180  -28.6710   13.1080 C.3   114  VAL114      0.0022
    108  CG2      -17.4940  -26.7360   14.2760 C.3   114  VAL114      0.0022
    109  N        -11.2160  -32.5060   16.7940 N.3   118  GLU118     -0.1245
    110  CA       -10.0360  -31.6590   16.6200 C.3   118  GLU118      0.1567
    111  C         -9.1160  -32.2550   15.5630 C.2   118  GLU118      0.2260
    112  O         -8.8880  -33.4650   15.5330 O.2   118  GLU118     -0.2867
    113  CB        -9.2370  -31.6050   17.9220 C.3   118  GLU118      0.0388
    114  CG        -9.9880  -31.0460   19.1210 C.3   118  GLU118      0.1160
    115  CD        -9.2650  -31.2850   20.4430 C.2   118  GLU118      0.3649
    116  OE1       -8.1230  -31.7890   20.4440 O.co2 118  GLU118     -0.2457
    117  OE2       -9.8550  -30.9760   21.4970 O.co2 118  GLU118     -0.2457
    118  N         -5.3360  -28.3490   18.2080 N.3   160  GLU160     -0.1231
    119  CA        -6.4180  -28.4950   19.1830 C.3   160  GLU160      0.1699
    120  C         -7.5670  -27.5220   18.9320 C.2   160  GLU160      0.2592
    121  O         -8.6940  -27.7790   19.3720 O.2   160  GLU160     -0.2718
    122  CB        -5.8850  -28.2680   20.6040 C.3   160  GLU160      0.0402
    123  CG        -4.8420  -29.2890   21.1110 C.3   160  GLU160      0.1161
    124  CD        -3.3730  -29.0040   20.7830 C.2   160  GLU160      0.3649
    125  OE1       -3.0550  -28.5330   19.6610 O.co2 160  GLU160     -0.2457
    126  OE2       -2.5260  -29.3340   21.6540 O.co2 160  GLU160     -0.2457
    127  N         -7.2970  -26.4130   18.2510 N.am  161  ASN161     -0.1974
    128  CA        -8.2670  -25.3600   17.9730 C.3   161  ASN161      0.1688
    129  C         -8.8000  -25.4110   16.5490 C.2   161  ASN161      0.2292
    130  O         -9.5680  -24.5150   16.1540 O.2   161  ASN161     -0.2864
    131  CB        -7.6930  -23.9600   18.2900 C.3   161  ASN161      0.1181
    132  CG        -7.5620  -23.6940   19.7720 C.2   161  ASN161      0.2629
    133  OD1       -8.1270  -24.4120   20.5880 O.2   161  ASN161     -0.2716
    134  ND2       -6.8430  -22.6540   20.1230 N.am  161  ASN161     -0.0877
    135  N        -11.0790  -27.4710   14.1810 N.3   163  LEU163     -0.1245
    136  CA       -12.0690  -28.5390   14.1510 C.3   163  LEU163      0.1561
    137  C        -12.3620  -28.9310   12.7130 C.2   163  LEU163      0.2260
    138  O        -12.3170  -28.0900   11.8210 O.2   163  LEU163     -0.2867
    139  CB       -13.3370  -28.0490   14.8420 C.3   163  LEU163      0.0270
    140  CG       -13.0270  -27.4300   16.2110 C.3   163  LEU163      0.0019
    141  CD1      -14.3010  -26.9480   16.8720 C.3   163  LEU163      0.0001
    142  CD2      -12.1520  -28.3030   17.1300 C.3   163  LEU163      0.0001
    143  N        -11.7410  -22.4890   16.1640 N.3   173  THR173     -0.1203
    144  CA       -12.4440  -22.1540   17.3970 C.3   173  THR173      0.1994
    145  C        -11.4810  -21.4940   18.3900 C.2   173  THR173      0.2617
    146  O        -10.2680  -21.4820   18.2040 O.2   173  THR173     -0.2717
    147  CB       -13.1150  -23.4040   17.9860 C.3   173  THR173      0.1784
    148  OG1      -14.0380  -22.9740   18.9890 O.3   173  THR173     -0.2211
    149  CG2      -12.0870  -24.3820   18.5340 C.3   173  THR173      0.0376
    150  N        -12.0190  -21.0100   19.4990 N.am  174  ASP174     -0.1973
    151  CA       -11.2710  -20.4360   20.6310 C.3   174  ASP174      0.1709
    152  C        -10.6060  -19.1160   20.2830 C.2   174  ASP174      0.2293
    153  O         -9.4220  -19.0500   19.9330 O.2   174  ASP174     -0.2864
    154  CB       -10.2590  -21.3980   21.2780 C.3   174  ASP174      0.1436
    155  CG        -9.7690  -20.8890   22.6410 C.2   174  ASP174      0.3671
    156  OD1      -10.0620  -19.7270   23.0060 O.co2 174  ASP174     -0.2456
    157  OD2       -9.1170  -21.6740   23.3600 O.co2 174  ASP174     -0.2456
    158  N        -14.5020  -37.1510   19.5850 N.3   316  PHE316     -0.1241
    159  CA       -13.9310  -36.4040   20.6940 C.3   316  PHE316      0.1605
    160  C        -13.6470  -37.3550   21.8520 C.2   316  PHE316      0.2264
    161  O        -14.3950  -38.3240   22.0790 O.2   316  PHE316     -0.2867
    162  CB       -14.9260  -35.3480   21.1920 C.3   316  PHE316      0.0534
    163  CG       -15.1660  -34.2180   20.2270 C.ar  316  PHE316     -0.0203
    164  CD1      -14.4410  -33.0420   20.3240 C.ar  316  PHE316     -0.0042
    165  CD2      -16.1510  -34.3140   19.2530 C.ar  316  PHE316     -0.0042
    166  CE1      -14.6470  -31.9920   19.4410 C.ar  316  PHE316     -0.0003
    167  CE2      -16.3860  -33.2620   18.3640 C.ar  316  PHE316     -0.0003
    168  CZ       -15.6500  -32.0880   18.4720 C.ar  316  PHE316     -0.0000
@<TRIPOS>BOND
     1    89    87   ar
     2    88    87   ar
     3   138   137    2
     4    87    86    1
     5   137   136    1
     6   107   106    1
     7    66    67    1
     8    86    85    1
     9    67    68    1
    10    67    70    1
    11    68    69    2
    12   136   135    1
    13   136   139    1
    14   108   106    1
    15    85    82    1
    16   106   103    1
    17    93    92    2
    18   103   104    1
    19   103   102    1
    20   139   140    1
    21   104   105    2
    22    70    72    1
    23    70    71    1
    24   112   111    2
    25   111   110    1
    26    92   102   am
    27    92    91    1
    28    82    83    1
    29    82    81    1
    30   130   129    2
    31   143   144    1
    32   140   141    1
    33   140   142    1
    34    83    90   am
    35    83    84    2
    36    90    91    1
    37   129   128    1
    38    81    75   am
    39   110   109    1
    40   110   113    1
    41    91    94    1
    42    97    99   ar
    43    97    95   ar
    44    94    95    1
    45   144   147    1
    46   144   145    1
    47    99   100   ar
    48    95    96   ar
    49    75    76    2
    50    75    74    1
    51   113   114    1
    52   128   127    1
    53   128   131    1
    54   147   149    1
    55   147   148    1
    56   100   101    1
    57   100    98   ar
    58   146   145    2
    59   118   119    1
    60   127   120   am
    61    96    98   ar
    62   131   132    1
    63   167   168   ar
    64   167   165   ar
    65   145   150   am
    66   168   166   ar
    67    74    77    1
    68    74    73    1
    69    77    78    1
    70   120   119    1
    71   120   121    2
    72   114   115    1
    73   119   122    1
    74   165   163   ar
    75    78    79    1
    76   166   164   ar
    77   150   151    1
    78   158   159    1
    79   125   124   ar
    80    79    80    1
    81   132   134   am
    82   132   133    2
    83   153   152    2
    84   163   164   ar
    85   163   162    1
    86   152   151    1
    87    52    53    1
    88   115   116   ar
    89   115   117   ar
    90    56    53    1
    91   122   123    1
    92   151   154    1
    93   159   162    1
    94   159   160    1
    95   124   123    1
    96   124   126   ar
    97   154   155    1
    98    53    54    1
    99    55    54    2
   100     7     6    1
   101     8     6    1
   102   160   161    2
   103     6     5    1
   104   155   156   ar
   105   155   157   ar
   106     5     2    1
   107    50    49    1
   108     4     3    2
   109     2     3    1
   110     2     1    1
   111     3     9   am
   112    51    49    1
   113    49    46    1
   114    65    64    1
   115    63    64    1
   116    63    62    1
   117    57    58    1
   118    61    58    1
   119    61    62    1
   120     9    10    1
   121    10    11    1
   122    58    59    1
   123    46    47    1
   124    46    45    1
   125    47    48    2
   126    16    15    2
   127    11    13   am
   128    11    12    2
   129    13    14    1
   130    60    59    2
   131    15    14    1
   132    15    20   am
   133    21    20    1
   134    21    22    1
   135    14    17    1
   136    39    37   ar
   137    39    40   ar
   138    37    35   ar
   139    18    17    1
   140    17    19    1
   141    22    24   am
   142    22    23    2
   143    24    25    1
   144    29    28    1
   145    40    38   ar
   146    44    43    2
   147    35    34    1
   148    35    36   ar
   149    43    42    1
   150    28    25    1
   151    34    31    1
   152    25    26    1
   153    30    31    1
   154    30    26   am
   155    38    36   ar
   156    41    42    1
   157    41    32   am
   158    31    32    1
   159    26    27    2
   160    32    33    2
