@<TRIPOS>MOLECULE
tmp/6emcA01.pdb
 121 117 0 0 0
SMALL
GASTEIGER

@<TRIPOS>ATOM
      1  N         12.9120  -48.1830   -9.8280 N.3     7  GLU7       -0.1245
      2  CA        13.3380  -46.9690   -9.1490 C.3     7  GLU7        0.1567
      3  C         12.1250  -46.0750   -8.9050 C.2     7  GLU7        0.2260
      4  O         11.8990  -45.6030   -7.7940 O.2     7  GLU7       -0.2867
      5  CB        14.3990  -46.2420   -9.9890 C.3     7  GLU7        0.0388
      6  CG        15.0290  -45.0210   -9.3340 C.3     7  GLU7        0.1160
      7  CD        15.8390  -44.1930  -10.3220 C.2     7  GLU7        0.3649
      8  OE1       16.0200  -42.9790  -10.0850 O.co2   7  GLU7       -0.2457
      9  OE2       16.2820  -44.7570  -11.3450 O.co2   7  GLU7       -0.2457
     10  N          9.8560  -47.4480   -6.3230 N.3    10  SER10      -0.1202
     11  CA        10.4720  -47.2240   -5.0200 C.3    10  SER10       0.2020
     12  C         10.2080  -45.8080   -4.5280 C.2    10  SER10       0.2618
     13  O         10.0360  -45.5720   -3.3200 O.2    10  SER10      -0.2717
     14  CB        11.9790  -47.4700   -5.1030 C.3    10  SER10       0.2103
     15  OG        12.2580  -48.8510   -5.2140 O.3    10  SER10      -0.2182
     16  N         10.1800  -44.8530   -5.4540 N.am   11  VAL11      -0.1979
     17  CA         9.9840  -43.4560   -5.0920 C.3    11  VAL11       0.1595
     18  C          8.5500  -43.2290   -4.6390 C.2    11  VAL11       0.2287
     19  O          8.3010  -42.6230   -3.5900 O.2    11  VAL11      -0.2864
     20  CB        10.3620  -42.5490   -6.2780 C.3    11  VAL11       0.0276
     21  CG1       10.1630  -41.0730   -5.9490 C.3    11  VAL11       0.0022
     22  CG2       11.8390  -42.7710   -6.6110 C.3    11  VAL11       0.0022
     23  N          8.2320  -44.7120   -1.2580 N.3    14  PHE14      -0.1227
     24  CA         8.8910  -43.8640   -0.2690 C.3    14  PHE14       0.1736
     25  C          8.0370  -42.6500    0.0860 C.2    14  PHE14       0.2595
     26  O          7.9110  -42.2960    1.2630 O.2    14  PHE14      -0.2718
     27  CB        10.2510  -43.4090   -0.7890 C.3    14  PHE14       0.0547
     28  CG        10.9010  -42.3540    0.0700 C.ar   14  PHE14      -0.0202
     29  CD1       11.7210  -42.7150    1.1320 C.ar   14  PHE14      -0.0042
     30  CD2       10.6850  -41.0010   -0.1790 C.ar   14  PHE14      -0.0042
     31  CE1       12.3200  -41.7490    1.9260 C.ar   14  PHE14      -0.0003
     32  CE2       11.2820  -40.0290    0.6190 C.ar   14  PHE14      -0.0003
     33  CZ        12.0990  -40.4070    1.6720 C.ar   14  PHE14      -0.0000
     34  N          7.4460  -41.9960   -0.9200 N.am   15  LEU15      -0.1980
     35  CA         6.7130  -40.7560   -0.6790 C.3    15  LEU15       0.1596
     36  C          5.4410  -41.0110    0.1140 C.2    15  LEU15       0.2287
     37  O          5.0810  -40.2160    0.9910 O.2    15  LEU15      -0.2864
     38  CB         6.3760  -40.0710   -2.0060 C.3    15  LEU15       0.0297
     39  CG         7.5600  -39.5570   -2.8360 C.3    15  LEU15       0.0022
     40  CD1        7.0670  -38.9290   -4.1380 C.3    15  LEU15       0.0001
     41  CD2        8.4000  -38.5720   -2.0480 C.3    15  LEU15       0.0001
     42  N         14.0840  -35.1000    5.4580 N.3    96  PHE96      -0.1241
     43  CA        14.6710  -35.3380    4.1470 C.3    96  PHE96       0.1605
     44  C         16.1490  -34.9750    4.1880 C.2    96  PHE96       0.2264
     45  O         16.5250  -34.0170    4.8690 O.2    96  PHE96      -0.2867
     46  CB        13.9500  -34.5210    3.0650 C.3    96  PHE96       0.0534
     47  CG        14.0710  -35.1010    1.6760 C.ar   96  PHE96      -0.0203
     48  CD1       13.5440  -36.3570    1.3830 C.ar   96  PHE96      -0.0042
     49  CD2       14.6940  -34.3960    0.6690 C.ar   96  PHE96      -0.0042
     50  CE1       13.6470  -36.8900    0.1060 C.ar   96  PHE96      -0.0003
     51  CE2       14.8020  -34.9270   -0.6080 C.ar   96  PHE96      -0.0003
     52  CZ        14.2770  -36.1740   -0.8890 C.ar   96  PHE96      -0.0000
     53  N         15.0660  -33.3850   -6.0080 N.3   147  LEU147     -0.1245
     54  CA        14.5310  -34.3800   -5.0850 C.3   147  LEU147      0.1561
     55  C         13.8200  -33.7210   -3.9130 C.2   147  LEU147      0.2260
     56  O         12.7870  -34.2140   -3.4430 O.2   147  LEU147     -0.2867
     57  CB        15.6630  -35.2790   -4.5860 C.3   147  LEU147      0.0270
     58  CG        16.3560  -36.1050   -5.6750 C.3   147  LEU147      0.0019
     59  CD1       17.5400  -36.8440   -5.1090 C.3   147  LEU147      0.0001
     60  CD2       15.3790  -37.0960   -6.3110 C.3   147  LEU147      0.0001
     61  N         10.4510  -32.5970   -5.1740 N.3   150  GLU150     -0.1245
     62  CA         9.5800  -33.7610   -5.2990 C.3   150  GLU150      0.1567
     63  C          9.0340  -34.1740   -3.9400 C.2   150  GLU150      0.2260
     64  O          7.8430  -34.4820   -3.8060 O.2   150  GLU150     -0.2867
     65  CB        10.3320  -34.9120   -5.9520 C.3   150  GLU150      0.0388
     66  CG         9.5160  -36.1800   -6.0440 C.3   150  GLU150      0.1160
     67  CD        10.2240  -37.2670   -6.8220 C.2   150  GLU150      0.3649
     68  OE1       11.4740  -37.3150   -6.7750 O.co2 150  GLU150     -0.2457
     69  OE2        9.5270  -38.0690   -7.4820 O.co2 150  GLU150     -0.2457
     70  N         13.7970  -35.0120  -14.3560 N.3   286  LYS286     -0.1245
     71  CA        14.7450  -36.0620  -13.9970 C.3   286  LYS286      0.1561
     72  C         15.2630  -36.8010  -15.2210 C.2   286  LYS286      0.2260
     73  O         16.3790  -37.3360  -15.1950 O.2   286  LYS286     -0.2867
     74  CB        14.0990  -37.0610  -13.0440 C.3   286  LYS286      0.0271
     75  CG        13.9840  -36.6110  -11.6040 C.3   286  LYS286      0.0035
     76  CD        13.6430  -37.8290  -10.7390 C.3   286  LYS286      0.0206
     77  CE        13.1360  -37.4410   -9.3780 C.3   286  LYS286      0.1093
     78  NZ        12.6110  -38.6370   -8.6620 N.3   286  LYS286     -0.1314
     79  N         20.2430  -40.5570   -9.4440 N.3   296  TRP296     -0.1227
     80  CA        19.3140  -39.9760   -8.4750 C.3   296  TRP296      0.1737
     81  C         19.3180  -40.7580   -7.1670 C.2   296  TRP296      0.2595
     82  O         19.1950  -40.1740   -6.0800 O.2   296  TRP296     -0.2718
     83  CB        17.9030  -39.9230   -9.0740 C.3   296  TRP296      0.0564
     84  CG        17.8230  -39.0060  -10.2470 C.ar  296  TRP296      0.0003
     85  CD1       17.8450  -39.3520  -11.5680 C.ar  296  TRP296      0.0946
     86  CD2       17.7400  -37.5760  -10.2060 C.ar  296  TRP296      0.0152
     87  NE1       17.7760  -38.2190  -12.3530 N.ar  296  TRP296     -0.2442
     88  CE2       17.7090  -37.1190  -11.5380 C.ar  296  TRP296      0.0810
     89  CE3       17.6910  -36.6390   -9.1680 C.ar  296  TRP296      0.0012
     90  CZ2       17.6290  -35.7660  -11.8610 C.ar  296  TRP296      0.0191
     91  CZ3       17.6090  -35.2830   -9.4930 C.ar  296  TRP296      0.0001
     92  CH2       17.5790  -34.8660  -10.8270 C.ar  296  TRP296      0.0015
     93  N         19.4290  -42.0840   -7.2560 N.am  297  ILE297     -0.1980
     94  CA        19.4970  -42.9210   -6.0600 C.3   297  ILE297      0.1595
     95  C         20.7450  -42.5840   -5.2530 C.2   297  ILE297      0.2287
     96  O         20.6940  -42.4060   -4.0310 O.2   297  ILE297     -0.2864
     97  CB        19.4680  -44.4120   -6.4470 C.3   297  ILE297      0.0276
     98  CG1       18.1620  -44.7600   -7.1920 C.3   297  ILE297      0.0022
     99  CG2       19.6970  -45.3210   -5.2530 C.3   297  ILE297      0.0022
    100  CD1       16.9430  -44.7490   -6.2830 C.3   297  ILE297      0.0001
    101  N         20.3440  -39.1720   -3.5470 N.3   300  TYR300     -0.1227
    102  CA        19.5040  -39.2550   -2.3530 C.3   300  TYR300      0.1736
    103  C         20.2630  -39.8630   -1.1810 C.2   300  TYR300      0.2595
    104  O         20.2030  -39.3540   -0.0570 O.2   300  TYR300     -0.2718
    105  CB        18.2410  -40.0720   -2.6350 C.3   300  TYR300      0.0548
    106  CG        17.4790  -40.3930   -1.3660 C.ar  300  TYR300     -0.0200
    107  CD1       16.6700  -39.4390   -0.7620 C.ar  300  TYR300     -0.0009
    108  CD2       17.5950  -41.6500   -0.7570 C.ar  300  TYR300     -0.0009
    109  CE1       15.9830  -39.7200    0.4080 C.ar  300  TYR300      0.0417
    110  CE2       16.9130  -41.9450    0.4130 C.ar  300  TYR300      0.0417
    111  CZ        16.1080  -40.9780    0.9950 C.ar  300  TYR300      0.1957
    112  OH        15.4260  -41.2730    2.1630 O.3   300  TYR300     -0.2866
    113  N         20.9710  -40.9640   -1.4220 N.am  301  GLN301     -0.1979
    114  CA        21.7190  -41.6500   -0.3750 C.3   301  GLN301      0.1601
    115  C         23.0480  -40.9780   -0.0530 C.2   301  GLN301      0.2287
    116  O         23.8100  -41.5070    0.7640 O.2   301  GLN301     -0.2864
    117  CB        21.9680  -43.1110   -0.7780 C.3   301  GLN301      0.0394
    118  CG        20.7000  -43.8830   -1.1380 C.3   301  GLN301      0.0908
    119  CD        20.9660  -45.3440   -1.4870 C.2   301  GLN301      0.2608
    120  OE1       22.1130  -45.7740   -1.5720 O.2   301  GLN301     -0.2717
    121  NE2       19.8960  -46.1110   -1.6860 N.am  301  GLN301     -0.0878
@<TRIPOS>BOND
     1    72    73    2
     2    72    71    1
     3    70    71    1
     4    71    74    1
     5    74    75    1
     6    87    85   ar
     7    87    88   ar
     8    90    88   ar
     9    90    92   ar
    10    75    76    1
    11    85    84   ar
    12    88    86   ar
    13     9     7   ar
    14    92    91   ar
    15    76    77    1
    16     7     8   ar
    17     7     6    1
    18    84    86   ar
    19    84    83    1
    20    86    89   ar
    21     5     6    1
    22     5     2    1
    23     1     2    1
    24    91    89   ar
    25    79    80    1
    26    77    78    1
    27     2     3    1
    28    83    80    1
    29     3     4    2
    30    80    81    1
    31    69    67   ar
    32    93    81   am
    33    93    94    1
    34    98    97    1
    35    98   100    1
    36    81    82    2
    37    67    68   ar
    38    67    66    1
    39    22    20    1
    40    97    94    1
    41    97    99    1
    42    10    11    1
    43    60    58    1
    44    20    21    1
    45    20    17    1
    46    94    95    1
    47    66    65    1
    48    53    54    1
    49    65    62    1
    50    58    59    1
    51    58    57    1
    52    16    17    1
    53    16    12   am
    54    62    61    1
    55    62    63    1
    56    95    96    2
    57    15    14    1
    58    14    11    1
    59    17    18    1
    60    54    57    1
    61    54    55    1
    62    11    12    1
    63    18    19    2
    64    12    13    2
    65    40    39    1
    66    63    64    2
    67    55    56    2
    68   101   102    1
    69    39    41    1
    70    39    38    1
    71   105   102    1
    72   105   106    1
    73   102   103    1
    74    38    35    1
    75   121   119   am
    76   120   119    2
    77   119   118    1
    78   113   103   am
    79   113   114    1
    80   106   107   ar
    81   106   108   ar
    82    23    24    1
    83   103   104    2
    84   118   117    1
    85    34    35    1
    86    34    25   am
    87    52    51   ar
    88    52    50   ar
    89    27    24    1
    90    27    28    1
    91   117   114    1
    92   107   109   ar
    93   108   110   ar
    94    35    36    1
    95    51    49   ar
    96   114   115    1
    97    24    25    1
    98    30    28   ar
    99    30    32   ar
   100   115   116    2
   101    28    29   ar
   102    25    26    2
   103    50    48   ar
   104    36    37    2
   105   109   111   ar
   106   110   111   ar
   107    32    33   ar
   108    49    47   ar
   109   111   112    1
   110    29    31   ar
   111    48    47   ar
   112    33    31   ar
   113    47    46    1
   114    46    43    1
   115    43    44    1
   116    43    42    1
   117    44    45    2
