@<TRIPOS>MOLECULE
tmp/6emdA00.pdb
 187 179 0 0 0
SMALL
GASTEIGER

@<TRIPOS>ATOM
      1  N        -14.7510   25.6030  -13.2250 N.3    41  LEU41      -0.1231
      2  CA       -15.1150   25.9100  -11.8390 C.3    41  LEU41       0.1693
      3  C        -14.3710   25.0890  -10.8020 C.2    41  LEU41       0.2593
      4  O        -14.4570   25.3920   -9.6050 O.2    41  LEU41      -0.2718
      5  CB       -16.6170   25.6920  -11.6200 C.3    41  LEU41       0.0284
      6  CG       -17.5700   26.5290  -12.5010 C.3    41  LEU41       0.0019
      7  CD1      -19.0010   26.2630  -12.1110 C.3    41  LEU41       0.0001
      8  CD2      -17.2660   28.0350  -12.4020 C.3    41  LEU41       0.0001
      9  N        -13.7110   24.0250  -11.2060 N.am   42  GLY42      -0.1942
     10  CA       -12.9400   23.2490  -10.2790 C.3    42  GLY42       0.2014
     11  C        -12.1870   22.1600  -10.9980 C.2    42  GLY42       0.2640
     12  O        -12.5230   21.7760  -12.1250 O.2    42  GLY42      -0.2714
     13  N        -11.1550   21.6670  -10.3210 N.am   43  THR43      -0.1936
     14  CA       -10.2910   20.6310  -10.8760 C.3    43  THR43       0.2028
     15  C        -10.1010   19.5360   -9.8510 C.2    43  THR43       0.2643
     16  O        -10.1570   19.7790   -8.6460 O.2    43  THR43      -0.2714
     17  CB        -8.9180   21.1800  -11.2960 C.3    43  THR43       0.1808
     18  OG1       -8.2690   21.7290  -10.1490 O.3    43  THR43      -0.2208
     19  CG2       -9.0780   22.2780  -12.3470 C.3    43  THR43       0.0379
     20  N         -9.8200   18.3320  -10.3480 N.am   44  GLY44      -0.1939
     21  CA        -9.7000   17.1770   -9.4850 C.3    44  GLY44       0.2014
     22  C         -8.6970   16.2320  -10.0900 C.2    44  GLY44       0.2640
     23  O         -8.2740   16.3940  -11.2360 O.2    44  GLY44      -0.2714
     24  N         -8.3060   15.2440   -9.3020 N.am   45  SER45      -0.1935
     25  CA        -7.2670   14.3320   -9.7730 C.3    45  SER45       0.2055
     26  C         -7.6800   13.6080  -11.0470 C.2    45  SER45       0.2643
     27  O         -6.8200   13.2300  -11.8470 O.2    45  SER45      -0.2714
     28  CB        -6.9220   13.3140   -8.6780 C.3    45  SER45       0.2130
     29  OG        -8.0440   12.4630   -8.4490 O.3    45  SER45      -0.2179
     30  N         -8.9730   13.4030  -11.2720 N.am   46  PHE46      -0.1959
     31  CA        -9.3650   12.6810  -12.4770 C.3    46  PHE46       0.1771
     32  C        -10.4170   13.4100  -13.2990 C.2    46  PHE46       0.2620
     33  O        -11.0230   12.7930  -14.1850 O.2    46  PHE46      -0.2715
     34  CB        -9.8330   11.2550  -12.1590 C.3    46  PHE46       0.0574
     35  CG       -10.8550   11.1440  -11.0580 C.ar   46  PHE46      -0.0200
     36  CD1      -10.4600   10.8120   -9.7860 C.ar   46  PHE46      -0.0042
     37  CD2      -12.1960   11.3160  -11.3040 C.ar   46  PHE46      -0.0042
     38  CE1      -11.3920   10.6570   -8.7500 C.ar   46  PHE46      -0.0003
     39  CE2      -13.1640   11.1590  -10.2670 C.ar   46  PHE46      -0.0003
     40  CZ       -12.7450   10.8280   -9.0020 C.ar   46  PHE46      -0.0000
     41  N        -10.5870   14.7110  -13.1010 N.am   47  GLY47      -0.1940
     42  CA       -11.5140   15.4340  -13.9630 C.3    47  GLY47       0.2014
     43  C        -11.5880   16.9020  -13.6090 C.2    47  GLY47       0.2639
     44  O        -10.7670   17.4240  -12.8590 O.2    47  GLY47      -0.2714
     45  N        -12.6120   17.5570  -14.1600 N.am   48  ARG48      -0.1963
     46  CA       -12.8650   18.9720  -13.9250 C.3    48  ARG48       0.1729
     47  C        -14.3620   19.2160  -13.9170 C.2    48  ARG48       0.2616
     48  O        -15.1460   18.4130  -14.4320 O.2    48  ARG48      -0.2715
     49  CB       -12.2490   19.8580  -15.0120 C.3    48  ARG48       0.0348
     50  CG       -10.7670   19.7910  -15.2080 C.3    48  ARG48       0.0492
     51  CD       -10.3850   20.4590  -16.5800 C.3    48  ARG48       0.2205
     52  NE       -10.3290   19.4730  -17.6500 N.pl3  48  ARG48      -0.0865
     53  CZ       -10.2440   19.7560  -18.9510 C.cat  48  ARG48       0.5346
     54  NH1      -10.2270   21.0140  -19.3820 N.pl3  48  ARG48       0.1354
     55  NH2      -10.1780   18.7640  -19.8280 N.pl3  48  ARG48       0.1354
     56  N        -14.7540   20.3550  -13.3630 N.am   49  VAL49      -0.1977
     57  CA       -16.1360   20.8050  -13.4300 C.3    49  VAL49       0.1596
     58  C        -16.1200   22.0980  -14.2000 C.2    49  VAL49       0.2287
     59  O        -15.2710   22.9560  -13.9420 O.2    49  VAL49      -0.2864
     60  CB       -16.7800   21.0030  -12.0470 C.3    49  VAL49       0.0276
     61  CG1      -18.2730   21.4310  -12.2070 C.3    49  VAL49       0.0022
     62  CG2      -16.7130   19.7630  -11.2450 C.3    49  VAL49       0.0022
     63  N        -23.6680   22.8880  -14.3250 N.3    62  ALA62      -0.1245
     64  CA       -22.3380   22.4350  -13.9410 C.3    62  ALA62       0.1562
     65  C        -22.1260   21.0740  -14.5750 C.2    62  ALA62       0.2260
     66  O        -22.8590   20.1180  -14.2710 O.2    62  ALA62      -0.2867
     67  CB       -22.1650   22.3410  -12.4200 C.3    62  ALA62       0.0290
     68  N        -19.6760   17.9760  -14.9060 N.3    64  LYS64      -0.1245
     69  CA       -18.5460   17.2780  -14.3130 C.3    64  LYS64       0.1561
     70  C        -17.9950   16.3510  -15.3910 C.2    64  LYS64       0.2260
     71  O        -18.7330   15.5280  -15.9450 O.2    64  LYS64      -0.2867
     72  CB       -18.9750   16.5320  -13.0380 C.3    64  LYS64       0.0271
     73  CG       -17.7960   15.9950  -12.1680 C.3    64  LYS64       0.0035
     74  CD       -18.3320   15.2900  -10.9090 C.3    64  LYS64       0.0206
     75  CE       -17.3490   15.2010   -9.7160 C.3    64  LYS64       0.1093
     76  NZ       -18.0850   14.5170   -8.6150 N.3    64  LYS64      -0.1314
     77  N        -15.0760   13.6100  -16.3580 N.3    66  LEU66      -0.1245
     78  CA       -14.1010   12.7130  -15.7530 C.3    66  LEU66       0.1561
     79  C        -13.3180   12.0120  -16.8470 C.2    66  LEU66       0.2260
     80  O        -13.9160   11.4470  -17.7560 O.2    66  LEU66      -0.2867
     81  CB       -14.7940   11.6860  -14.8650 C.3    66  LEU66       0.0270
     82  CG       -15.7410   12.3140  -13.8500 C.3    66  LEU66       0.0019
     83  CD1      -16.3530   11.2110  -13.0590 C.3    66  LEU66       0.0001
     84  CD2      -15.0190   13.2800  -12.9760 C.3    66  LEU66       0.0001
     85  N        -28.4120   17.6390   -5.5090 N.3    96  VAL96      -0.1245
     86  CA       -28.1740   18.2410   -6.8150 C.3    96  VAL96       0.1561
     87  C        -28.9630   17.4480   -7.8510 C.2    96  VAL96       0.2260
     88  O        -29.2850   16.2700   -7.6660 O.2    96  VAL96      -0.2867
     89  CB       -26.6940   18.3330   -7.2250 C.3    96  VAL96       0.0252
     90  CG1      -25.9880   19.3350   -6.3820 C.3    96  VAL96       0.0019
     91  CG2      -25.9810   16.9700   -7.1540 C.3    96  VAL96       0.0019
     92  N        -25.4220   18.9170  -14.3780 N.3   112  MET112     -0.1230
     93  CA       -26.3090   19.2080  -13.2660 C.3   112  MET112      0.1702
     94  C        -26.6770   20.6770  -13.3170 C.2   112  MET112      0.2592
     95  O        -25.8890   21.5170  -13.7730 O.2   112  MET112     -0.2718
     96  CB       -25.6280   18.8520  -11.9080 C.3   112  MET112      0.0401
     97  CG       -25.3060   17.3550  -11.8440 C.3   112  MET112      0.0596
     98  SD       -23.8470   16.9980  -10.9220 S.3   112  MET112     -0.1393
     99  CE       -22.6410   17.5550  -12.1150 C.3   112  MET112      0.0692
    100  N        -27.8810   20.9790  -12.8360 N.am  113  GLU113     -0.1966
    101  CA       -28.3310   22.3570  -12.7630 C.3   113  GLU113      0.1733
    102  C        -27.3040   23.1990  -12.0200 C.2   113  GLU113      0.2616
    103  O        -26.8230   22.8230  -10.9400 O.2   113  GLU113     -0.2715
    104  CB       -29.6900   22.4250  -12.0670 C.3   113  GLU113      0.0429
    105  CG       -30.1950   23.8290  -11.8500 C.3   113  GLU113      0.1163
    106  CD       -31.6290   23.8510  -11.3840 C.2   113  GLU113      0.3649
    107  OE1      -32.2800   22.7790  -11.4110 O.co2 113  GLU113     -0.2457
    108  OE2      -32.0990   24.9400  -10.9960 O.co2 113  GLU113     -0.2457
    109  N        -26.9850   24.3550  -12.5960 N.am  114  TYR114     -0.1960
    110  CA       -25.9730   25.2240  -12.0130 C.3   114  TYR114      0.1771
    111  C        -26.5370   25.9930  -10.8190 C.2   114  TYR114      0.2619
    112  O        -27.5930   26.6250  -10.9020 O.2   114  TYR114     -0.2715
    113  CB       -25.4290   26.1780  -13.0680 C.3   114  TYR114      0.0574
    114  CG       -24.3220   27.0750  -12.5590 C.ar  114  TYR114     -0.0198
    115  CD1      -23.1830   26.5400  -11.9960 C.ar  114  TYR114     -0.0009
    116  CD2      -24.4030   28.4620  -12.6920 C.ar  114  TYR114     -0.0009
    117  CE1      -22.1740   27.3480  -11.5430 C.ar  114  TYR114      0.0417
    118  CE2      -23.3840   29.2730  -12.2560 C.ar  114  TYR114      0.0417
    119  CZ       -22.2720   28.7130  -11.6770 C.ar  114  TYR114      0.1957
    120  OH       -21.2380   29.5140  -11.2230 O.3   114  TYR114     -0.2866
    121  N        -25.8290   25.9090   -9.7010 N.am  115  VAL115     -0.1977
    122  CA       -26.1400   26.6210   -8.4650 C.3   115  VAL115      0.1596
    123  C        -25.0670   27.6910   -8.2800 C.2   115  VAL115      0.2287
    124  O        -23.9720   27.3710   -7.8030 O.2   115  VAL115     -0.2864
    125  CB       -26.1610   25.6570   -7.2590 C.3   115  VAL115      0.0276
    126  CG1      -26.4210   26.4190   -5.9540 C.3   115  VAL115      0.0022
    127  CG2      -27.1960   24.5520   -7.4300 C.3   115  VAL115      0.0022
    128  N        -20.3220   26.5800   -2.8820 N.3   119  GLU119     -0.1245
    129  CA       -20.1700   25.6470   -1.7780 C.3   119  GLU119      0.1567
    130  C        -20.3360   26.3280   -0.4190 C.2   119  GLU119      0.2260
    131  O        -19.8670   27.4570   -0.2070 O.2   119  GLU119     -0.2867
    132  CB       -18.7780   25.0060   -1.8470 C.3   119  GLU119      0.0388
    133  CG       -18.4150   24.3630   -3.1770 C.3   119  GLU119      0.1160
    134  CD       -16.9160   24.2090   -3.3730 C.2   119  GLU119      0.3649
    135  OE1      -16.3270   23.2110   -2.8570 O.co2 119  GLU119     -0.2457
    136  OE2      -16.3310   25.1110   -4.0230 O.co2 119  GLU119     -0.2457
    137  N        -17.6260   21.1170    2.0060 N.3   161  GLU161     -0.1231
    138  CA       -17.1400   21.1160    0.6280 C.3   161  GLU161      0.1699
    139  C        -18.1510   20.5290   -0.3540 C.2   161  GLU161      0.2592
    140  O        -18.0920   20.8390   -1.5440 O.2   161  GLU161     -0.2718
    141  CB       -15.8200   20.3270    0.5470 C.3   161  GLU161      0.0402
    142  CG       -14.6500   21.0230    1.2620 C.3   161  GLU161      0.1161
    143  CD       -14.4930   20.6960    2.7570 C.2   161  GLU161      0.3649
    144  OE1      -15.4720   20.4970    3.4980 O.co2 161  GLU161     -0.2457
    145  OE2      -13.3360   20.6410    3.1800 O.co2 161  GLU161     -0.2457
    146  N        -19.0600   19.6710    0.1100 N.am  162  ASN162     -0.1974
    147  CA       -19.9300   18.8890   -0.7550 C.3   162  ASN162      0.1688
    148  C        -21.3800   19.3100   -0.6210 C.2   162  ASN162      0.2292
    149  O        -22.2980   18.5150   -0.8580 O.2   162  ASN162     -0.2864
    150  CB       -19.7990   17.4060   -0.4530 C.3   162  ASN162      0.1181
    151  CG       -18.5060   16.8410   -0.9930 C.2   162  ASN162      0.2629
    152  OD1      -17.8800   17.4430   -1.8780 O.2   162  ASN162     -0.2716
    153  ND2      -18.0990   15.6940   -0.4720 N.am  162  ASN162     -0.0877
    154  N        -23.9270   22.6690   -1.5730 N.3   164  LEU164     -0.1245
    155  CA       -24.1690   23.9560   -2.2120 C.3   164  LEU164      0.1561
    156  C        -25.2530   24.7290   -1.4850 C.2   164  LEU164      0.2260
    157  O        -26.1560   24.1410   -0.8870 O.2   164  LEU164     -0.2867
    158  CB       -24.6000   23.7620   -3.6790 C.3   164  LEU164      0.0270
    159  CG       -23.5770   22.9460   -4.4730 C.3   164  LEU164      0.0019
    160  CD1      -24.1710   22.5780   -5.8070 C.3   164  LEU164      0.0001
    161  CD2      -22.2590   23.7100   -4.6420 C.3   164  LEU164      0.0001
    162  N        -23.9070   17.3590   -3.0850 N.3   174  THR174     -0.1203
    163  CA       -23.3200   17.2370   -4.4170 C.3   174  THR174      0.1994
    164  C        -22.7810   15.8580   -4.7570 C.2   174  THR174      0.2617
    165  O        -23.0120   15.3750   -5.8710 O.2   174  THR174     -0.2717
    166  CB       -22.1940   18.2400   -4.5960 C.3   174  THR174      0.1784
    167  OG1      -21.1570   17.9340   -3.6600 O.3   174  THR174     -0.2211
    168  CG2      -22.7290   19.6390   -4.3950 C.3   174  THR174      0.0376
    169  N        -22.0420   15.2210   -3.8630 N.am  175  ASP175     -0.1973
    170  CA       -21.1780   14.1190   -4.2750 C.3   175  ASP175      0.1709
    171  C        -21.7810   12.7980   -3.8380 C.2   175  ASP175      0.2293
    172  O        -22.2960   12.6820   -2.7190 O.2   175  ASP175     -0.2864
    173  CB       -19.7840   14.2720   -3.6800 C.3   175  ASP175      0.1436
    174  CG       -18.8710   15.1300   -4.5610 C.2   175  ASP175      0.3671
    175  OD1      -19.3120   16.2470   -4.9320 O.co2 175  ASP175     -0.2456
    176  OD2      -17.7560   14.6560   -4.9200 O.co2 175  ASP175     -0.2456
    177  N        -16.7020   30.7990   -7.2300 N.3   317  PHE317     -0.1241
    178  CA       -15.7610   29.7530   -7.5580 C.3   317  PHE317      0.1605
    179  C        -14.4250   30.3910   -7.8830 C.2   317  PHE317      0.2264
    180  O        -14.3590   31.5780   -8.1610 O.2   317  PHE317     -0.2867
    181  CB       -16.2630   28.9260   -8.7150 C.3   317  PHE317      0.0534
    182  CG       -17.5470   28.2310   -8.4220 C.ar  317  PHE317     -0.0203
    183  CD1      -17.5480   26.9520   -7.9060 C.ar  317  PHE317     -0.0042
    184  CD2      -18.7430   28.8690   -8.6220 C.ar  317  PHE317     -0.0042
    185  CE1      -18.7280   26.2930   -7.6360 C.ar  317  PHE317     -0.0003
    186  CE2      -19.9370   28.2150   -8.3510 C.ar  317  PHE317     -0.0003
    187  CZ       -19.9260   26.9390   -7.8560 C.ar  317  PHE317     -0.0000
@<TRIPOS>BOND
     1    55    53    1
     2    54    53    1
     3    53    52    2
     4    80    79    2
     5    52    51    1
     6    79    78    1
     7    51    50    1
     8    77    78    1
     9    71    70    2
    10    78    81    1
    11    70    69    1
    12    50    49    1
    13    49    46    1
    14    68    69    1
    15    81    82    1
    16    65    66    2
    17    65    64    1
    18    48    47    2
    19    92    93    1
    20    63    64    1
    21    69    72    1
    22    58    59    2
    23    58    57    1
    24    33    32    2
    25    45    46    1
    26    45    43   am
    27    42    43    1
    28    42    41    1
    29    64    67    1
    30    46    47    1
    31    47    56   am
    32    82    83    1
    33    82    84    1
    34    95    94    2
    35    43    44    2
    36    57    56    1
    37    57    60    1
    38    94    93    1
    39    94   100   am
    40    32    41   am
    41    32    31    1
    42    93    96    1
    43     1     2    1
    44   113   114    1
    45   113   110    1
    46    72    73    1
    47   100   101    1
    48   101   104    1
    49   101   102    1
    50   116   114   ar
    51   116   118   ar
    52   109   102   am
    53   109   110    1
    54   114   115   ar
    55     6     8    1
    56     6     7    1
    57     6     5    1
    58    31    34    1
    59    31    30    1
    60    19    17    1
    61   118   119   ar
    62    61    60    1
    63    73    74    1
    64    34    35    1
    65    12    11    2
    66    99    98    1
    67   104   105    1
    68    60    62    1
    69   102   103    2
    70   110   111    1
    71   115   117   ar
    72    96    97    1
    73   105   106    1
    74    27    26    2
    75    97    98    1
    76     2     5    1
    77     2     3    1
    78   119   117   ar
    79   119   120    1
    80   107   106   ar
    81   106   108   ar
    82    37    35   ar
    83    37    39   ar
    84    17    14    1
    85    17    18    1
    86    30    26   am
    87    23    22    2
    88     9     3   am
    89     9    10    1
    90    35    36   ar
    91    26    25    1
    92    11    13   am
    93    11    10    1
    94    74    75    1
    95   112   111    2
    96    14    13    1
    97    14    15    1
    98   111   121   am
    99     3     4    2
   100    20    15   am
   101    20    21    1
   102    39    40   ar
   103    22    21    1
   104    22    24   am
   105    15    16    2
   106    36    38   ar
   107    25    24    1
   108    25    28    1
   109    75    76    1
   110   121   122    1
   111    40    38   ar
   112   181   182    1
   113   181   178    1
   114    28    29    1
   115   184   182   ar
   116   184   186   ar
   117   122   123    1
   118   122   125    1
   119   182   183   ar
   120   186   187   ar
   121   123   124    2
   122   180   179    2
   123   183   185   ar
   124   179   178    1
   125   187   185   ar
   126    87    88    2
   127    87    86    1
   128   178   177    1
   129   127   125    1
   130   125   126    1
   131    89    91    1
   132    89    86    1
   133    89    90    1
   134    86    85    1
   135   165   164    2
   136   160   159    1
   137   175   174   ar
   138   176   174   ar
   139   164   163    1
   140   164   169   am
   141   161   159    1
   142   166   163    1
   143   166   168    1
   144   166   167    1
   145   174   173    1
   146   159   158    1
   147   163   162    1
   148   170   169    1
   149   170   171    1
   150   170   173    1
   151   136   134   ar
   152   171   172    2
   153   158   155    1
   154   134   133    1
   155   134   135   ar
   156   133   132    1
   157   128   129    1
   158   155   154    1
   159   155   156    1
   160   152   151    2
   161   132   129    1
   162   129   130    1
   163   140   139    2
   164   156   157    2
   165   151   153   am
   166   151   150    1
   167   149   148    2
   168   147   148    1
   169   147   150    1
   170   147   146    1
   171   130   131    2
   172   139   146   am
   173   139   138    1
   174   141   138    1
   175   141   142    1
   176   138   137    1
   177   142   143    1
   178   143   145   ar
   179   143   144   ar
