@<TRIPOS>MOLECULE
tmp/6emhB01.pdb
 123 121 0 0 0
SMALL
GASTEIGER

@<TRIPOS>ATOM
      1  N        -11.9260   43.9060   33.5300 N.3   164  GLY164     -0.1210
      2  CA       -12.8600   44.9450   33.9920 C.3   164  GLY164      0.1956
      3  C        -12.2140   46.3010   33.8550 C.2   164  GLY164      0.2613
      4  O        -11.7800   46.6630   32.7900 O.2   164  GLY164     -0.2717
      5  N        -12.0920   47.0190   34.9530 N.am  165  THR165     -0.1938
      6  CA       -11.4530   48.3380   34.9590 C.3   165  THR165      0.2028
      7  C        -10.0840   48.3450   35.6980 C.2   165  THR165      0.2642
      8  O         -9.5480   49.4200   36.0020 O.2   165  THR165     -0.2714
      9  CB       -12.3870   49.3660   35.6470 C.3   165  THR165      0.1808
     10  OG1      -12.5780   49.0140   37.0280 O.3   165  THR165     -0.2208
     11  CG2      -13.7460   49.4510   34.9250 C.3   165  THR165      0.0379
     12  N         -9.5430   47.1640   36.0180 N.am  166  SER166     -0.1949
     13  CA        -8.2410   47.0740   36.6920 C.3   166  SER166      0.1924
     14  C         -7.1110   46.7560   35.7040 C.2   166  SER166      0.2314
     15  O         -7.3260   46.0680   34.7120 O.2   166  SER166     -0.2863
     16  CB        -8.2980   46.0390   37.8330 C.3   166  SER166      0.2116
     17  OG        -9.3790   45.1480   37.6450 O.3   166  SER166     -0.2180
     18  N        -11.6330   54.6320   36.6330 N.3   179  ILE179     -0.1231
     19  CA       -10.8880   55.0940   37.8160 C.3   179  ILE179      0.1692
     20  C        -11.6280   54.7100   39.0900 C.2   179  ILE179      0.2592
     21  O        -11.0250   54.2050   40.0540 O.2   179  ILE179     -0.2718
     22  CB       -10.7040   56.6310   37.7800 C.3   179  ILE179      0.0266
     23  CG1       -9.7770   57.0320   36.6160 C.3   179  ILE179      0.0019
     24  CG2      -10.1360   57.1390   39.1080 C.3   179  ILE179      0.0020
     25  CD1       -9.8320   58.5070   36.2840 C.3   179  ILE179      0.0001
     26  N        -12.9370   54.9660   39.0890 N.am  180  LEU180     -0.1966
     27  CA       -13.7720   54.7790   40.2780 C.3   180  LEU180      0.1728
     28  C        -14.4060   53.4120   40.3870 C.2   180  LEU180      0.2617
     29  O        -15.0920   53.1600   41.3440 O.2   180  LEU180     -0.2715
     30  CB       -14.8490   55.8530   40.3160 C.3   180  LEU180      0.0311
     31  CG       -14.2980   57.2770   40.3560 C.3   180  LEU180      0.0022
     32  CD1      -15.4410   58.2660   40.2150 C.3   180  LEU180      0.0001
     33  CD2      -13.5170   57.5380   41.6330 C.3   180  LEU180      0.0001
     34  N        -14.1500   52.5230   39.4290 N.am  181  GLY181     -0.1940
     35  CA       -14.5770   51.1300   39.5220 C.3   181  GLY181      0.2014
     36  C        -16.0820   50.9620   39.4290 C.2   181  GLY181      0.2639
     37  O        -16.6750   50.2090   40.1840 O.2   181  GLY181     -0.2714
     38  N        -16.6940   51.6230   38.4550 N.am  182  MET182     -0.1963
     39  CA       -18.1480   51.6260   38.2970 C.3   182  MET182      0.1736
     40  C        -18.6470   50.6290   37.2730 C.2   182  MET182      0.2617
     41  O        -19.8380   50.3820   37.2000 O.2   182  MET182     -0.2715
     42  CB       -18.6050   53.0250   37.8660 C.3   182  MET182      0.0427
     43  CG       -18.3070   54.0570   38.9190 C.3   182  MET182      0.0599
     44  SD       -18.7510   55.6920   38.3660 S.3   182  MET182     -0.1393
     45  CE       -20.4670   55.6950   38.8910 C.3   182  MET182      0.0692
     46  N        -17.7550   50.1030   36.4460 N.am  183  GLY183     -0.1940
     47  CA       -18.1590   49.3460   35.2590 C.3   183  GLY183      0.2014
     48  C        -18.1870   50.2970   34.0870 C.2   183  GLY183      0.2638
     49  O        -17.9020   51.4800   34.2340 O.2   183  GLY183     -0.2714
     50  N        -18.5730   49.7950   32.9270 N.am  184  TYR184     -0.1973
     51  CA       -18.3720   50.5240   31.6930 C.3   184  TYR184      0.1639
     52  C        -19.2210   49.9600   30.5710 C.2   184  TYR184      0.2290
     53  O        -19.6180   48.7850   30.5900 O.2   184  TYR184     -0.2864
     54  CB       -16.8940   50.4640   31.2710 C.3   184  TYR184      0.0560
     55  CG       -16.4090   49.0680   30.9390 C.ar  184  TYR184     -0.0198
     56  CD1      -16.5120   48.5690   29.6490 C.ar  184  TYR184     -0.0009
     57  CD2      -15.8530   48.2280   31.9280 C.ar  184  TYR184     -0.0009
     58  CE1      -16.1060   47.2800   29.3420 C.ar  184  TYR184      0.0417
     59  CE2      -15.4330   46.9420   31.6180 C.ar  184  TYR184      0.0417
     60  CZ       -15.5380   46.4830   30.3120 C.ar  184  TYR184      0.1957
     61  OH       -15.1250   45.2200   29.9960 O.3   184  TYR184     -0.2866
     62  N         -4.3780   58.0370   40.9860 N.3   212  TYR212     -0.1227
     63  CA        -5.8150   58.2380   40.7560 C.3   212  TYR212      0.1736
     64  C         -6.4400   59.3250   41.6160 C.2   212  TYR212      0.2595
     65  O         -7.3860   59.9790   41.1880 O.2   212  TYR212     -0.2718
     66  CB        -6.5990   56.9300   40.9840 C.3   212  TYR212      0.0548
     67  CG        -6.6310   55.9440   39.8090 C.ar  212  TYR212     -0.0200
     68  CD1       -6.4080   56.3550   38.4780 C.ar  212  TYR212     -0.0009
     69  CD2       -6.9370   54.5930   40.0300 C.ar  212  TYR212     -0.0009
     70  CE1       -6.4630   55.4540   37.4350 C.ar  212  TYR212      0.0417
     71  CE2       -7.0070   53.6920   38.9700 C.ar  212  TYR212      0.0417
     72  CZ        -6.7790   54.1380   37.6850 C.ar  212  TYR212      0.1957
     73  OH        -6.8260   53.2680   36.6340 O.3   212  TYR212     -0.2866
     74  N         -5.9030   59.5210   42.8200 N.am  213  ILE213     -0.1980
     75  CA        -6.4470   60.5080   43.7270 C.3   213  ILE213      0.1595
     76  C         -6.2040   61.9090   43.1680 C.2   213  ILE213      0.2287
     77  O         -7.1280   62.7370   43.0720 O.2   213  ILE213     -0.2864
     78  CB        -5.7900   60.4140   45.1130 C.3   213  ILE213      0.0276
     79  CG1       -5.9330   58.9970   45.6870 C.3   213  ILE213      0.0022
     80  CG2       -6.3520   61.4720   46.0460 C.3   213  ILE213      0.0022
     81  CD1       -7.3470   58.5390   45.9490 C.3   213  ILE213      0.0001
     82  N         -8.2670   62.3950   39.9220 N.3   216  TRP216     -0.1241
     83  CA        -9.6750   62.7020   40.1710 C.3   216  TRP216      0.1605
     84  C         -9.8330   64.1870   40.5020 C.2   216  TRP216      0.2264
     85  O        -10.7850   64.8090   40.0640 O.2   216  TRP216     -0.2867
     86  CB       -10.2790   61.8090   41.2550 C.3   216  TRP216      0.0550
     87  CG       -11.7020   62.1490   41.5180 C.ar  216  TRP216      0.0003
     88  CD1      -12.2100   62.7290   42.6390 C.ar  216  TRP216      0.0946
     89  CD2      -12.7890   62.0290   40.6030 C.ar  216  TRP216      0.0152
     90  NE1      -13.5700   62.9320   42.5050 N.ar  216  TRP216     -0.2442
     91  CE2      -13.9480   62.5220   41.2580 C.ar  216  TRP216      0.0810
     92  CE3      -12.9140   61.5290   39.3150 C.ar  216  TRP216      0.0012
     93  CZ2      -15.1990   62.5280   40.6570 C.ar  216  TRP216      0.0191
     94  CZ3      -14.1740   61.5370   38.7240 C.ar  216  TRP216      0.0001
     95  CH2      -15.2890   62.0190   39.4010 C.ar  216  TRP216      0.0015
     96  N        -20.9840   52.7680   44.3360 N.3   235  GLN235     -0.1245
     97  CA       -21.2040   52.0320   45.5640 C.3   235  GLN235      0.1566
     98  C        -20.8950   52.9370   46.7590 C.2   235  GLN235      0.2260
     99  O        -20.1460   53.9250   46.5960 O.2   235  GLN235     -0.2867
    100  CB       -20.3960   50.7380   45.6040 C.3   235  GLN235      0.0367
    101  CG       -18.9010   50.8660   45.3810 C.3   235  GLN235      0.0905
    102  CD       -18.2390   49.5420   45.6300 C.2   235  GLN235      0.2608
    103  OE1      -18.1440   49.0790   46.7760 O.2   235  GLN235     -0.2717
    104  NE2      -17.8530   48.8850   44.5610 N.am  235  GLN235     -0.0878
    105  N        -17.0470   54.2560   47.9990 N.3   238  VAL238     -0.1245
    106  CA       -16.3050   55.1690   47.1130 C.3   238  VAL238      0.1561
    107  C        -16.9750   56.5460   47.0730 C.2   238  VAL238      0.2260
    108  O        -16.2820   57.5840   47.0860 O.2   238  VAL238     -0.2867
    109  CB       -16.1140   54.5820   45.6940 C.3   238  VAL238      0.0252
    110  CG1      -15.5620   55.6310   44.7130 C.3   238  VAL238      0.0019
    111  CG2      -15.1860   53.3810   45.7460 C.3   238  VAL238      0.0019
    112  N        -15.7430   59.0670   49.8840 N.3   241  TYR241     -0.1241
    113  CA       -14.5810   59.8800   49.4630 C.3   241  TYR241      0.1605
    114  C        -14.9090   60.9560   48.3630 C.2   241  TYR241      0.2264
    115  O        -14.5030   62.1170   48.4870 O.2   241  TYR241     -0.2867
    116  CB       -13.4200   59.0080   48.9930 C.3   241  TYR241      0.0534
    117  CG       -12.2830   59.8480   48.5020 C.ar  241  TYR241     -0.0201
    118  CD1      -11.4860   60.5520   49.4020 C.ar  241  TYR241     -0.0009
    119  CD2      -12.0750   60.0350   47.1310 C.ar  241  TYR241     -0.0009
    120  CE1      -10.4660   61.3700   48.9460 C.ar  241  TYR241      0.0417
    121  CE2      -11.0720   60.8590   46.6670 C.ar  241  TYR241      0.0417
    122  CZ       -10.2570   61.5060   47.5730 C.ar  241  TYR241      0.1957
    123  OH        -9.2570   62.3300   47.1070 O.3   241  TYR241     -0.2866
@<TRIPOS>BOND
     1    58    56   ar
     2    58    60   ar
     3    56    55   ar
     4    61    60    1
     5    60    59   ar
     6    52    53    2
     7    52    51    1
     8    55    54    1
     9    55    57   ar
    10    54    51    1
    11    59    57   ar
    12    51    50    1
    13     4     3    2
    14    50    48   am
    15     1     2    1
    16     3     2    1
    17     3     5   am
    18    48    49    2
    19    48    47    1
    20    15    14    2
    21    11     9    1
    22     5     6    1
    23     6     9    1
    24     6     7    1
    25    47    46    1
    26     9    10    1
    27     7     8    2
    28     7    12   am
    29    14    13    1
    30    12    13    1
    31    25    23    1
    32    46    40   am
    33    23    22    1
    34    18    19    1
    35    73    72    1
    36    13    16    1
    37    41    40    2
    38    40    39    1
    39    70    72   ar
    40    70    68   ar
    41    17    16    1
    42    72    71   ar
    43    22    19    1
    44    22    24    1
    45    19    20    1
    46    42    39    1
    47    42    43    1
    48    39    38    1
    49    44    45    1
    50    44    43    1
    51    38    36   am
    52    68    67   ar
    53    94    92   ar
    54    94    95   ar
    55    71    69   ar
    56    26    20   am
    57    26    27    1
    58    20    21    2
    59    92    89   ar
    60    95    93   ar
    61    34    35    1
    62    34    28   am
    63    36    35    1
    64    36    37    2
    65    67    69   ar
    66    67    66    1
    67    82    83    1
    68    85    84    2
    69    83    84    1
    70    83    86    1
    71    32    31    1
    72    27    30    1
    73    27    28    1
    74    30    31    1
    75    31    33    1
    76    28    29    2
    77    89    91   ar
    78    89    87   ar
    79    93    91   ar
    80    63    66    1
    81    63    62    1
    82    63    64    1
    83    65    64    2
    84    86    87    1
    85    91    90   ar
    86    87    88   ar
    87    64    74   am
    88    90    88   ar
    89    74    75    1
    90    77    76    2
    91    76    75    1
    92    75    78    1
    93    96    97    1
    94   104   102   am
    95   110   109    1
    96    78    79    1
    97    78    80    1
    98   101   100    1
    99   101   102    1
   100    97   100    1
   101    97    98    1
   102   102   103    2
   103    79    81    1
   104   109   111    1
   105   109   106    1
   106    99    98    2
   107   121   119   ar
   108   121   122   ar
   109   107   108    2
   110   107   106    1
   111   123   122    1
   112   106   105    1
   113   119   117   ar
   114   122   120   ar
   115   114   115    2
   116   114   113    1
   117   117   116    1
   118   117   118   ar
   119   120   118   ar
   120   116   113    1
   121   113   112    1
