@<TRIPOS>MOLECULE
tmp/6emhD01.pdb
 125 114 0 0 0
SMALL
GASTEIGER

@<TRIPOS>ATOM
      1  N         -3.9820   60.7100  -96.8560 N.3    25  ILE25      -0.1245
      2  CA        -4.5560   59.6220  -97.6210 C.3    25  ILE25       0.1561
      3  C         -5.4950   58.8550  -96.7000 C.2    25  ILE25       0.2260
      4  O         -6.6960   59.0930  -96.7030 O.2    25  ILE25      -0.2867
      5  CB        -3.4460   58.6890  -98.1480 C.3    25  ILE25       0.0252
      6  CG1       -2.5530   59.4300  -99.1520 C.3    25  ILE25       0.0019
      7  CG2       -4.0450   57.4390  -98.7850 C.3    25  ILE25       0.0019
      8  CD1       -1.1750   58.8170  -99.3040 C.3    25  ILE25       0.0001
      9  N         -3.3050   55.0950  -91.5550 N.3    26  GLY26      -0.1225
     10  CA        -2.1360   55.4130  -90.7320 C.3    26  GLY26       0.1811
     11  C         -1.4610   56.7180  -91.1060 C.2    26  GLY26       0.2280
     12  O         -1.9940   57.4940  -91.9130 O.2    26  GLY26      -0.2866
     13  N          0.3830   58.3830  -93.1680 N.3    28  VAL28      -0.1245
     14  CA         0.8690   58.3900  -94.5460 C.3    28  VAL28       0.1561
     15  C          0.1830   59.4950  -95.3540 C.2    28  VAL28       0.2260
     16  O         -1.0430   59.6780  -95.2660 O.2    28  VAL28      -0.2867
     17  CB         0.6620   57.0220  -95.2450 C.3    28  VAL28       0.0252
     18  CG1       -0.8040   56.5970  -95.2280 C.3    28  VAL28       0.0019
     19  CG2        1.1930   57.0680  -96.6730 C.3    28  VAL28       0.0019
     20  N          4.1030   58.8850 -102.0130 N.3    41  ALA41      -0.1245
     21  CA         3.5190   58.6970 -100.7060 C.3    41  ALA41       0.1562
     22  C          4.6560   58.7000  -99.7050 C.2    41  ALA41       0.2260
     23  O          5.7470   58.1910  -99.9830 O.2    41  ALA41      -0.2867
     24  CB         2.7530   57.3900 -100.6600 C.3    41  ALA41       0.0290
     25  N          5.6470   57.8730  -95.7230 N.3    43  LYS43      -0.1245
     26  CA         5.2880   57.1760  -94.4750 C.3    43  LYS43       0.1561
     27  C          6.2760   57.6300  -93.4160 C.2    43  LYS43       0.2260
     28  O          7.4960   57.5230  -93.5980 O.2    43  LYS43      -0.2867
     29  CB         5.3240   55.6520  -94.6680 C.3    43  LYS43       0.0271
     30  CG         4.9130   54.8540  -93.4310 C.3    43  LYS43       0.0035
     31  CD         4.6750   53.3900  -93.7620 C.3    43  LYS43       0.0206
     32  CE         4.0800   52.6640  -92.5860 C.3    43  LYS43       0.1093
     33  NZ         4.0930   51.2130  -92.8680 N.3    43  LYS43      -0.1314
     34  N          5.7880   46.8850 -103.6960 N.3    74  ILE74      -0.1245
     35  CA         6.0730   48.3010 -103.6130 C.3    74  ILE74       0.1561
     36  C          7.5690   48.5160 -103.3470 C.2    74  ILE74       0.2260
     37  O          8.2040   47.7540 -102.6200 O.2    74  ILE74      -0.2867
     38  CB         5.1960   49.0160 -102.5450 C.3    74  ILE74       0.0252
     39  CG1        5.2170   50.5360 -102.7590 C.3    74  ILE74       0.0019
     40  CG2        5.6090   48.6280 -101.1250 C.3    74  ILE74       0.0019
     41  CD1        3.8990   51.1250 -103.2100 C.3    74  ILE74       0.0001
     42  N          7.6490   56.4500 -101.2830 N.3    96  MET96      -0.1230
     43  CA         7.2720   55.4680 -102.3170 C.3    96  MET96       0.1702
     44  C          6.4770   56.0690 -103.4870 C.2    96  MET96       0.2592
     45  O          5.9850   57.1830 -103.4030 O.2    96  MET96      -0.2718
     46  CB         6.4260   54.3870 -101.6980 C.3    96  MET96       0.0401
     47  CG         7.1160   53.6360 -100.5860 C.3    96  MET96       0.0596
     48  SD         6.0340   53.3850  -99.1560 S.3    96  MET96      -0.1393
     49  CE         4.7830   52.3530  -99.8690 C.3    96  MET96       0.0692
     50  N          6.3300   55.2900 -104.5620 N.am   97  GLU97      -0.1966
     51  CA         5.4710   55.6870 -105.6840 C.3    97  GLU97       0.1733
     52  C          4.0380   55.8100 -105.1720 C.2    97  GLU97       0.2616
     53  O          3.5780   54.9430 -104.4280 O.2    97  GLU97      -0.2715
     54  CB         5.5630   54.6770 -106.8450 C.3    97  GLU97       0.0429
     55  CG         5.0470   53.2730 -106.5530 C.3    97  GLU97       0.1163
     56  CD         5.8130   52.1760 -107.2940 C.2    97  GLU97       0.3649
     57  OE1        5.9890   52.3080 -108.5440 O.co2  97  GLU97      -0.2457
     58  OE2        6.2220   51.1710 -106.6230 O.co2  97  GLU97      -0.2457
     59  N          3.3700   56.9190 -105.4980 N.am   98  LEU98      -0.1963
     60  CA         1.9630   57.0910 -105.1240 C.3    98  LEU98       0.1728
     61  C          1.0890   56.2830 -106.0690 C.2    98  LEU98       0.2616
     62  O          1.1020   56.5160 -107.2720 O.2    98  LEU98      -0.2715
     63  CB         1.5370   58.5550 -105.1830 C.3    98  LEU98       0.0311
     64  CG         0.1380   58.8470 -104.6160 C.3    98  LEU98       0.0022
     65  CD1        0.0680   58.5620 -103.1070 C.3    98  LEU98       0.0001
     66  CD2       -0.2600   60.2820 -104.9170 C.3    98  LEU98       0.0001
     67  N          0.3420   55.3370 -105.5270 N.am   99  MET99      -0.1963
     68  CA        -0.6760   54.6020 -106.2740 C.3    99  MET99       0.1736
     69  C         -2.0180   55.3080 -106.0770 C.2    99  MET99       0.2616
     70  O         -2.1200   56.3000 -105.3200 O.2    99  MET99      -0.2715
     71  CB        -0.7350   53.1590 -105.7850 C.3    99  MET99       0.0427
     72  CG         0.6060   52.4410 -105.8480 C.3    99  MET99       0.0599
     73  SD         1.1250   52.1110 -107.5320 S.3    99  MET99      -0.1393
     74  CE         0.2860   50.5280 -107.7700 C.3    99  MET99       0.0692
     75  N         -3.0380   54.8330 -106.7940 N.am  100  ASP100     -0.1957
     76  CA        -4.2840   55.6030 -106.9490 C.3   100  ASP100      0.1840
     77  C         -5.3270   55.1810 -105.9400 C.2   100  ASP100      0.2622
     78  O         -6.1950   55.9830 -105.5740 O.2   100  ASP100     -0.2715
     79  CB        -4.8580   55.4730 -108.3790 C.3   100  ASP100      0.1450
     80  CG        -3.9590   56.0680 -109.4370 C.2   100  ASP100      0.3671
     81  OD1       -3.2480   57.0750 -109.1580 O.co2 100  ASP100     -0.2456
     82  OD2       -4.0030   55.5570 -110.5920 O.co2 100  ASP100     -0.2456
     83  N         -5.2330   53.9330 -105.4850 N.am  101  ALA101     -0.1963
     84  CA        -6.2240   53.3320 -104.6110 C.3   101  ALA101      0.1728
     85  C         -5.6590   52.0680 -103.9600 C.2   101  ALA101      0.2616
     86  O         -4.5790   51.5900 -104.3400 O.2   101  ALA101     -0.2715
     87  CB        -7.4800   53.0090 -105.4090 C.3   101  ALA101      0.0334
     88  N         -6.3650   51.5570 -102.9490 N.am  102  ASN102     -0.1972
     89  CA        -6.1230   50.2040 -102.5010 C.3   102  ASN102      0.1688
     90  C         -7.2680   49.2940 -102.9410 C.2   102  ASN102      0.2292
     91  O         -8.2810   49.7410 -103.4430 O.2   102  ASN102     -0.2864
     92  CB        -5.8010   50.1120 -100.9740 C.3   102  ASN102      0.1181
     93  CG        -6.9500   50.5270 -100.0760 C.2   102  ASN102      0.2629
     94  OD1       -8.1190   50.1860 -100.3020 O.2   102  ASN102     -0.2716
     95  ND2       -6.6180   51.2810  -99.0390 N.am  102  ASN102     -0.0877
     96  N        -11.1890   49.7160 -102.3270 N.3   105  GLN105     -0.1245
     97  CA       -11.9100   50.4840 -103.3190 C.3   105  GLN105      0.1566
     98  C        -12.3090   49.6180 -104.5320 C.2   105  GLN105      0.2260
     99  O        -13.4340   49.7020 -105.0260 O.2   105  GLN105     -0.2867
    100  CB       -11.0580   51.6800 -103.7890 C.3   105  GLN105      0.0367
    101  CG       -11.0240   52.8740 -102.8380 C.3   105  GLN105      0.0905
    102  CD        -9.8350   52.8360 -101.8800 C.2   105  GLN105      0.2608
    103  OE1       -8.6940   53.1280 -102.2760 O.2   105  GLN105     -0.2717
    104  NE2      -10.1020   52.4990 -100.5980 N.am  105  GLN105     -0.0878
    105  N         -6.3460   46.2220  -97.8060 N.3   143  SER143     -0.1217
    106  CA        -5.8260   47.5480  -97.4690 C.3   143  SER143      0.1889
    107  C         -4.3160   47.6740  -97.7110 C.2   143  SER143      0.2288
    108  O         -3.8320   48.8140  -97.8800 O.2   143  SER143     -0.2866
    109  CB        -6.1960   47.9560  -96.0230 C.3   143  SER143      0.2089
    110  OG        -5.5800   47.0980  -95.0990 O.3   143  SER143     -0.2183
    111  N         -2.2030   47.7280 -103.3430 N.3   146  VAL146     -0.1245
    112  CA        -2.4970   49.0220 -103.9360 C.3   146  VAL146      0.1561
    113  C         -2.4900   48.8700 -105.4600 C.2   146  VAL146      0.2260
    114  O         -1.8490   47.9670 -105.9870 O.2   146  VAL146     -0.2867
    115  CB        -1.5180   50.1470 -103.4830 C.3   146  VAL146      0.0252
    116  CG1       -1.8840   50.6520 -102.1010 C.3   146  VAL146      0.0019
    117  CG2       -0.0660   49.7180 -103.5110 C.3   146  VAL146      0.0019
    118  N          2.0720   46.0710 -100.3910 N.3   156  LEU156     -0.1245
    119  CA         2.7120   47.1560  -99.5990 C.3   156  LEU156      0.1561
    120  C          3.6670   46.7150  -98.5070 C.2   156  LEU156      0.2260
    121  O          4.4470   47.5370  -97.9650 O.2   156  LEU156     -0.2867
    122  CB         1.6470   47.9830  -98.9070 C.3   156  LEU156      0.0270
    123  CG         0.7730   48.9310  -99.6920 C.3   156  LEU156      0.0019
    124  CD1       -0.0210   49.7430  -98.6620 C.3   156  LEU156      0.0001
    125  CD2        1.6190   49.8540 -100.5680 C.3   156  LEU156      0.0001
@<TRIPOS>BOND
     1    82    80   ar
     2    80    81   ar
     3    80    79    1
     4    57    56   ar
     5    79    76    1
     6    74    73    1
     7    73    72    1
     8    56    58   ar
     9    56    55    1
    10    62    61    2
    11    76    75    1
    12    76    77    1
    13    54    55    1
    14    54    51    1
    15    75    69   am
    16    68    69    1
    17    68    71    1
    18    68    67    1
    19    69    70    2
    20    61    67   am
    21    61    60    1
    22   114   113    2
    23    77    78    2
    24    77    83   am
    25    72    71    1
    26    51    52    1
    27    51    50    1
    28    59    52   am
    29    59    60    1
    30    83    84    1
    31   113   112    1
    32    87    84    1
    33    63    60    1
    34    63    64    1
    35    52    53    2
    36    99    98    2
    37    66    64    1
    38    64    65    1
    39    84    85    1
    40    50    44   am
    41    98    97    1
    42    86    85    2
    43    85    88   am
    44   112   115    1
    45   112   111    1
    46   100    97    1
    47   100   101    1
    48    34    35    1
    49    35    36    1
    50    35    38    1
    51   117   115    1
    52    44    45    2
    53    44    43    1
    54   115   116    1
    55    91    90    2
    56    36    37    2
    57    97    96    1
    58    41    39    1
    59    88    89    1
    60    90    89    1
    61   101   102    1
    62    39    38    1
    63    38    40    1
    64    89    92    1
    65    43    46    1
    66    43    42    1
    67   103   102    2
    68    20    21    1
    69   102   104   am
    70    46    47    1
    71    92    93    1
    72    21    24    1
    73    21    22    1
    74    47    48    1
    75   125   123    1
    76   118   119    1
    77    94    93    2
    78    93    95   am
    79    23    22    2
    80    49    48    1
    81   123   122    1
    82   123   124    1
    83   119   122    1
    84   119   120    1
    85     8     6    1
    86     6     5    1
    87     7     5    1
    88   120   121    2
    89     5     2    1
    90   108   107    2
    91   105   106    1
    92   107   106    1
    93     2     1    1
    94     2     3    1
    95   106   109    1
    96     4     3    2
    97    19    17    1
    98   109   110    1
    99    25    26    1
   100    15    16    2
   101    15    14    1
   102    17    18    1
   103    17    14    1
   104    29    26    1
   105    29    30    1
   106    14    13    1
   107    26    27    1
   108    31    30    1
   109    31    32    1
   110    28    27    2
   111    33    32    1
   112    12    11    2
   113     9    10    1
   114    11    10    1
