@<TRIPOS>MOLECULE
tmp/6emiA02.pdb
 109 107 0 0 0
SMALL
GASTEIGER

@<TRIPOS>ATOM
      1  N         28.3260    6.1840   16.8690 N.3   114  GLY114     -0.1210
      2  CA        28.0370    7.0770   17.9740 C.3   114  GLY114      0.1956
      3  C         27.4210    8.3900   17.5330 C.2   114  GLY114      0.2612
      4  O         27.5400    9.4060   18.2260 O.2   114  GLY114     -0.2717
      5  N         26.7590    8.3790   16.3760 N.am  115  GLY115     -0.1956
      6  CA        26.1280    9.5760   15.8540 C.3   115  GLY115      0.1869
      7  C         27.0770   10.7140   15.5670 C.2   115  GLY115      0.2309
      8  O         26.6510   11.8720   15.5420 O.2   115  GLY115     -0.2863
      9  N         29.0170   12.0050   17.4810 N.3   117  GLN117     -0.1231
     10  CA        29.2150   12.7720   18.7040 C.3   117  GLN117      0.1698
     11  C         29.8790   11.9810   19.8190 C.2   117  GLN117      0.2592
     12  O         30.3800   12.5910   20.7690 O.2   117  GLN117     -0.2718
     13  CB        27.8760   13.3100   19.2310 C.3   117  GLN117      0.0381
     14  CG        26.8870   13.7030   18.1550 C.3   117  GLN117      0.0905
     15  CD        27.3700   14.8700   17.3240 C.2   117  GLN117      0.2608
     16  OE1       27.4150   14.7920   16.0980 O.2   117  GLN117     -0.2717
     17  NE2       27.7320   15.9640   17.9870 N.am  117  GLN117     -0.0878
     18  N         29.8860   10.6500   19.7380 N.am  118  THR118     -0.1953
     19  CA        30.4150    9.7970   20.7920 C.3   118  THR118      0.1897
     20  C         31.1390    8.6180   20.1560 C.2   118  THR118      0.2313
     21  O         31.1910    8.4780   18.9300 O.2   118  THR118     -0.2863
     22  CB        29.3010    9.2950   21.7210 C.3   118  THR118      0.1794
     23  OG1       28.2550    8.7040   20.9380 O.3   118  THR118     -0.2208
     24  CG2       28.7250   10.4340   22.5510 C.3   118  THR118      0.0378
     25  N         26.5940    2.0390   12.3260 N.3   196  SER196     -0.1202
     26  CA        25.9000    3.3070   12.5850 C.3   196  SER196      0.2020
     27  C         26.7030    4.4360   11.9490 C.2   196  SER196      0.2618
     28  O         26.9040    4.4040   10.7220 O.2   196  SER196     -0.2717
     29  CB        25.6520    3.4320   14.0890 C.3   196  SER196      0.2103
     30  OG        24.5280    4.2550   14.3520 O.3   196  SER196     -0.2182
     31  N         27.1640    5.4350   12.7080 N.am  197  ALA197     -0.1979
     32  CA        27.9880    6.4940   12.1340 C.3   197  ALA197      0.1597
     33  C         29.2970    5.9570   11.5760 C.2   197  ALA197      0.2287
     34  O         29.8820    6.5820   10.6860 O.2   197  ALA197     -0.2864
     35  CB        28.2670    7.5740   13.1790 C.3   197  ALA197      0.0319
     36  N         20.5920   11.3500    8.1100 N.3   229  TRP229     -0.1241
     37  CA        21.3410   11.9370    9.2110 C.3   229  TRP229      0.1605
     38  C         22.8390   12.0180    8.9470 C.2   229  TRP229      0.2264
     39  O         23.5580   12.6220    9.7500 O.2   229  TRP229     -0.2867
     40  CB        21.0980   11.1340   10.4950 C.3   229  TRP229      0.0550
     41  CG        21.2100    9.6450   10.3060 C.ar  229  TRP229      0.0003
     42  CD1       20.1850    8.7630   10.1160 C.ar  229  TRP229      0.0946
     43  CD2       22.4160    8.8670   10.2860 C.ar  229  TRP229      0.0152
     44  NE1       20.6770    7.4870    9.9800 N.ar  229  TRP229     -0.2442
     45  CE2       22.0430    7.5240   10.0820 C.ar  229  TRP229      0.0810
     46  CE3       23.7730    9.1760   10.4220 C.ar  229  TRP229      0.0012
     47  CZ2       22.9770    6.4920   10.0100 C.ar  229  TRP229      0.0191
     48  CZ3       24.6990    8.1490   10.3500 C.ar  229  TRP229      0.0001
     49  CH2       24.2960    6.8240   10.1450 C.ar  229  TRP229      0.0015
     50  N         15.9090   13.2800   18.1920 N.3   283  PRO283     -0.2102
     51  CA        16.8220   12.2980   18.8030 C.3   283  PRO283      0.1504
     52  C         17.8440   11.7200   17.8330 C.2   283  PRO283      0.2576
     53  O         18.8080   11.0900   18.2870 O.2   283  PRO283     -0.2718
     54  CB        15.8770   11.2070   19.3310 C.3   283  PRO283      0.0282
     55  CG        14.5440   11.4890   18.7090 C.3   283  PRO283      0.0208
     56  CD        14.4990   12.9560   18.4580 C.3   283  PRO283      0.0893
     57  N         17.6680   11.9100   16.5240 N.am  284  LEU284     -0.1966
     58  CA        18.6560   11.5090   15.5310 C.3   284  LEU284      0.1728
     59  C         19.3710   12.7050   14.9150 C.2   284  LEU284      0.2617
     60  O         19.8970   12.6020   13.8010 O.2   284  LEU284     -0.2715
     61  CB        18.0060   10.6670   14.4340 C.3   284  LEU284      0.0311
     62  CG        17.6550    9.2260   14.7950 C.3   284  LEU284      0.0022
     63  CD1       16.1920    9.1170   15.1530 C.3   284  LEU284      0.0001
     64  CD2       17.9960    8.3000   13.6470 C.3   284  LEU284      0.0001
     65  N         19.3950   13.8390   15.6110 N.am  285  SER285     -0.1936
     66  CA        20.0610   15.0270   15.0980 C.3   285  SER285      0.2055
     67  C         21.5580   14.9410   15.3630 C.2   285  SER285      0.2642
     68  O         21.9870   14.6280   16.4780 O.2   285  SER285     -0.2714
     69  CB        19.4820   16.2890   15.7370 C.3   285  SER285      0.2130
     70  OG        18.3530   16.7540   15.0180 O.3   285  SER285     -0.2179
     71  N         22.3480   15.2130   14.3330 N.am  286  VAL286     -0.1977
     72  CA        23.8000   15.2310   14.4330 C.3   286  VAL286      0.1596
     73  C         24.2170   16.6780   14.6570 C.2   286  VAL286      0.2287
     74  O         24.1470   17.5020   13.7380 O.2   286  VAL286     -0.2864
     75  CB        24.4570   14.6360   13.1800 C.3   286  VAL286      0.0276
     76  CG1       25.9660   14.7920   13.2420 C.3   286  VAL286      0.0022
     77  CG2       24.0740   13.1710   13.0340 C.3   286  VAL286      0.0022
     78  N         15.7770    4.8880   19.4600 N.3   327  PHE327     -0.1241
     79  CA        15.6400    6.3380   19.4360 C.3   327  PHE327      0.1605
     80  C         14.2700    6.8120   19.9020 C.2   327  PHE327      0.2264
     81  O         14.1170    7.9950   20.2260 O.2   327  PHE327     -0.2867
     82  CB        15.9320    6.8610   18.0280 C.3   327  PHE327      0.0534
     83  CG        17.2920    6.4790   17.5150 C.ar  327  PHE327     -0.0203
     84  CD1       17.4750    5.3070   16.7980 C.ar  327  PHE327     -0.0042
     85  CD2       18.3920    7.2840   17.7630 C.ar  327  PHE327     -0.0042
     86  CE1       18.7270    4.9480   16.3330 C.ar  327  PHE327     -0.0003
     87  CE2       19.6480    6.9310   17.3000 C.ar  327  PHE327     -0.0003
     88  CZ        19.8150    5.7620   16.5840 C.ar  327  PHE327     -0.0000
     89  N         17.3890    4.4490    8.2960 N.3   396  PHE396     -0.1241
     90  CA        18.4060    3.4040    8.2370 C.3   396  PHE396      0.1605
     91  C         18.1640    2.3870    7.1270 C.2   396  PHE396      0.2264
     92  O         19.0030    2.2300    6.2340 O.2   396  PHE396     -0.2867
     93  CB        18.4910    2.6830    9.5830 C.3   396  PHE396      0.0534
     94  CG        18.8900    3.5740   10.7220 C.ar  396  PHE396     -0.0203
     95  CD1       20.2210    3.8880   10.9380 C.ar  396  PHE396     -0.0042
     96  CD2       17.9330    4.1060   11.5700 C.ar  396  PHE396     -0.0042
     97  CE1       20.5920    4.7140   11.9820 C.ar  396  PHE396     -0.0003
     98  CE2       18.2980    4.9330   12.6150 C.ar  396  PHE396     -0.0003
     99  CZ        19.6290    5.2360   12.8220 C.ar  396  PHE396     -0.0000
    100  N         19.1850   -1.2920   17.3910 N.3   436  HIS436     -0.1241
    101  CA        20.3300   -0.6660   16.7470 C.3   436  HIS436      0.1621
    102  C         21.5950   -0.9180   17.5570 C.2   436  HIS436      0.2264
    103  O         21.6730   -0.5480   18.7320 O.2   436  HIS436     -0.2867
    104  CB        20.0640    0.8340   16.6120 C.3   436  HIS436      0.0745
    105  CG        21.0100    1.5480   15.6990 C.ar  436  HIS436      0.0817
    106  ND1       21.0250    1.3490   14.3350 N.ar  436  HIS436     -0.2268
    107  CD2       21.9560    2.4830   15.9530 C.ar  436  HIS436      0.1154
    108  CE1       21.9500    2.1190   13.7900 C.ar  436  HIS436      0.1986
    109  NE2       22.5280    2.8180   14.7500 N.ar  436  HIS436     -0.2212
@<TRIPOS>BOND
     1    92    91    2
     2    91    90    1
     3    36    37    1
     4    90    89    1
     5    90    93    1
     6    38    37    1
     7    38    39    2
     8    37    40    1
     9    93    94    1
    10    44    45   ar
    11    44    42   ar
    12    47    45   ar
    13    47    49   ar
    14    45    43   ar
    15    42    41   ar
    16    49    48   ar
    17    43    41   ar
    18    43    46   ar
    19    41    40    1
    20    48    46   ar
    21    34    33    2
    22    94    95   ar
    23    94    96   ar
    24    28    27    2
    25    95    97   ar
    26    96    98   ar
    27    33    32    1
    28    27    26    1
    29    27    31   am
    30    97    99   ar
    31    32    31    1
    32    32    35    1
    33    25    26    1
    34    26    29    1
    35    98    99   ar
    36    77    75    1
    37    75    76    1
    38    75    72    1
    39    64    62    1
    40    74    73    2
    41   108   106   ar
    42   108   109   ar
    43    60    59    2
    44    29    30    1
    45    71    72    1
    46    71    67   am
    47   106   105   ar
    48    72    73    1
    49    61    62    1
    50    61    58    1
    51   109   107   ar
    52    62    63    1
    53    59    58    1
    54    59    65   am
    55    70    69    1
    56    66    67    1
    57    66    65    1
    58    66    69    1
    59    67    68    2
    60    58    57    1
    61     8     7    2
    62     7     6    1
    63   105   107   ar
    64   105   104    1
    65     6     5    1
    66    16    15    2
    67    86    88   ar
    68    86    84   ar
    69     5     3   am
    70    57    52   am
    71    88    87   ar
    72   104   101    1
    73   101   100    1
    74   101   102    1
    75    84    83   ar
    76     1     2    1
    77    87    85   ar
    78    15    17   am
    79    15    14    1
    80     9    10    1
    81    83    85   ar
    82    83    82    1
    83     3     2    1
    84     3     4    2
    85   102   103    2
    86    52    53    2
    87    52    51    1
    88    82    79    1
    89    14    13    1
    90    50    56    1
    91    50    51    1
    92    56    55    1
    93    10    13    1
    94    10    11    1
    95    55    54    1
    96    51    54    1
    97    21    20    2
    98    79    78    1
    99    79    80    1
   100    18    11   am
   101    18    19    1
   102    11    12    2
   103    80    81    2
   104    20    19    1
   105    19    22    1
   106    23    22    1
   107    22    24    1
