@<TRIPOS>MOLECULE
tmp/6emiB01.pdb
 87 85 0 0 0
SMALL
GASTEIGER

@<TRIPOS>ATOM
      1  N         37.1930  -21.5310   52.6750 N.3   167  PHE167     -0.1241
      2  CA        35.7870  -21.4980   53.0480 C.3   167  PHE167      0.1605
      3  C         34.9060  -22.2110   52.0330 C.2   167  PHE167      0.2264
      4  O         33.8070  -22.6520   52.3890 O.2   167  PHE167     -0.2867
      5  CB        35.3230  -20.0500   53.2220 C.3   167  PHE167      0.0534
      6  CG        35.6370  -19.4720   54.5720 C.ar  167  PHE167     -0.0203
      7  CD1       35.0810  -20.0160   55.7190 C.ar  167  PHE167     -0.0042
      8  CD2       36.4890  -18.3870   54.6960 C.ar  167  PHE167     -0.0042
      9  CE1       35.3690  -19.4880   56.9640 C.ar  167  PHE167     -0.0003
     10  CE2       36.7780  -17.8520   55.9390 C.ar  167  PHE167     -0.0003
     11  CZ        36.2180  -18.4050   57.0740 C.ar  167  PHE167     -0.0000
     12  N         35.1340  -25.7380   53.0910 N.3   170  GLN170     -0.1245
     13  CA        34.3410  -25.8590   54.3100 C.3   170  GLN170      0.1566
     14  C         32.8510  -25.9540   53.9980 C.2   170  GLN170      0.2260
     15  O         32.1320  -26.7450   54.6190 O.2   170  GLN170     -0.2867
     16  CB        34.6230  -24.6750   55.2330 C.3   170  GLN170      0.0367
     17  CG        34.3110  -24.9340   56.6940 C.3   170  GLN170      0.0905
     18  CD        34.3390  -23.6650   57.5190 C.2   170  GLN170      0.2608
     19  OE1       33.6310  -22.7030   57.2220 O.2   170  GLN170     -0.2717
     20  NE2       35.1630  -23.6530   58.5600 N.am  170  GLN170     -0.0878
     21  N         43.1930  -27.1630   62.1130 N.3   207  LEU207     -0.1231
     22  CA        43.5090  -25.9800   62.9020 C.3   207  LEU207      0.1693
     23  C         42.3890  -24.9500   62.8910 C.2   207  LEU207      0.2593
     24  O         42.5710  -23.8500   63.4220 O.2   207  LEU207     -0.2718
     25  CB        44.8020  -25.3330   62.3960 C.3   207  LEU207      0.0284
     26  CG        46.0420  -26.2190   62.2590 C.3   207  LEU207      0.0019
     27  CD1       47.2170  -25.4130   61.7370 C.3   207  LEU207      0.0001
     28  CD2       46.3920  -26.8610   63.5840 C.3   207  LEU207      0.0001
     29  N         41.2450  -25.2760   62.2970 N.am  208  SER208     -0.1939
     30  CA        40.1070  -24.3600   62.2130 C.3   208  SER208      0.2040
     31  C         38.9230  -24.9480   62.9650 C.2   208  SER208      0.2485
     32  O         38.2440  -25.8510   62.4450 O.2   208  SER208     -0.2729
     33  CB        39.7350  -24.0890   60.7570 C.3   208  SER208      0.2129
     34  OG        38.7790  -23.0510   60.6660 O.3   208  SER208     -0.2179
     35  N         38.6410  -24.4800   64.1860 N.am  209  PRO209     -0.2715
     36  CA        37.4790  -24.9950   64.9320 C.3   209  PRO209      0.1536
     37  C         36.1750  -24.9660   64.1550 C.2   209  PRO209      0.2599
     38  O         35.2790  -25.7720   64.4360 O.2   209  PRO209     -0.2715
     39  CB        37.4200  -24.0700   66.1530 C.3   209  PRO209      0.0310
     40  CG        38.8300  -23.6460   66.3660 C.3   209  PRO209      0.0237
     41  CD        39.4980  -23.6180   65.0170 C.3   209  PRO209      0.0939
     42  N         36.0370  -24.0610   63.1840 N.am  210  GLY210     -0.1955
     43  CA        34.8490  -24.0420   62.3520 C.3   210  GLY210      0.1869
     44  C         34.6690  -25.2880   61.5100 C.2   210  GLY210      0.2309
     45  O         33.5640  -25.5400   61.0190 O.2   210  GLY210     -0.2863
     46  N         39.4160  -15.4270   60.8390 N.3   295  ASP295     -0.1225
     47  CA        38.1710  -16.1860   60.7750 C.3   295  ASP295      0.1805
     48  C         38.4640  -17.6710   60.5850 C.2   295  ASP295      0.2598
     49  O         38.2500  -18.4620   61.5050 O.2   295  ASP295     -0.2718
     50  CB        37.2740  -15.6490   59.6580 C.3   295  ASP295      0.1424
     51  CG        35.8240  -16.0580   59.8270 C.2   295  ASP295      0.3668
     52  OD1       35.5170  -16.7810   60.7990 O.co2 295  ASP295     -0.2456
     53  OD2       34.9910  -15.6570   58.9860 O.co2 295  ASP295     -0.2456
     54  N         38.9470  -18.0750   59.4090 N.am  296  PHE296     -0.1962
     55  CA        39.3290  -19.4670   59.2060 C.3   296  PHE296      0.1771
     56  C         40.6180  -19.8200   59.9360 C.2   296  PHE296      0.2619
     57  O         40.8340  -20.9950   60.2510 O.2   296  PHE296     -0.2715
     58  CB        39.4800  -19.7590   57.7100 C.3   296  PHE296      0.0574
     59  CG        39.7160  -21.2110   57.3950 C.ar  296  PHE296     -0.0200
     60  CD1       41.0050  -21.7150   57.2990 C.ar  296  PHE296     -0.0042
     61  CD2       38.6490  -22.0710   57.1920 C.ar  296  PHE296     -0.0042
     62  CE1       41.2240  -23.0480   57.0140 C.ar  296  PHE296     -0.0003
     63  CE2       38.8620  -23.4070   56.9030 C.ar  296  PHE296     -0.0003
     64  CZ        40.1520  -23.8950   56.8130 C.ar  296  PHE296     -0.0000
     65  N         41.4690  -18.8380   60.2150 N.am  297  LEU297     -0.1963
     66  CA        42.7520  -19.0830   60.8660 C.3   297  LEU297      0.1728
     67  C         43.0580  -17.9060   61.7790 C.2   297  LEU297      0.2616
     68  O         43.2300  -16.7820   61.2980 O.2   297  LEU297     -0.2715
     69  CB        43.8600  -19.2720   59.8280 C.3   297  LEU297      0.0311
     70  CG        45.1950  -19.8500   60.2960 C.3   297  LEU297      0.0022
     71  CD1       45.0020  -21.2260   60.9130 C.3   297  LEU297      0.0001
     72  CD2       46.1750  -19.9110   59.1350 C.3   297  LEU297      0.0001
     73  N         43.1230  -18.1600   63.0860 N.am  298  THR298     -0.1951
     74  CA        43.3160  -17.0880   64.0560 C.3   298  THR298      0.1897
     75  C         44.7830  -16.7900   64.3370 C.2   298  THR298      0.2313
     76  O         45.1150  -15.6550   64.6990 O.2   298  THR298     -0.2863
     77  CB        42.6140  -17.4290   65.3760 C.3   298  THR298      0.1794
     78  OG1       43.1100  -18.6750   65.8780 O.3   298  THR298     -0.2208
     79  CG2       41.1100  -17.5290   65.1720 C.3   298  THR298      0.0378
     80  N         49.6630  -22.3840   66.7250 N.3   304  LEU304     -0.1245
     81  CA        48.5310  -23.2360   67.0780 C.3   304  LEU304      0.1561
     82  C         48.9920  -24.6350   67.4720 C.2   304  LEU304      0.2260
     83  O         48.4870  -25.2090   68.4440 O.2   304  LEU304     -0.2867
     84  CB        47.5420  -23.3030   65.9160 C.3   304  LEU304      0.0270
     85  CG        46.7720  -22.0190   65.5960 C.3   304  LEU304      0.0019
     86  CD1       45.8400  -22.2310   64.4150 C.3   304  LEU304      0.0001
     87  CD2       45.9960  -21.5390   66.8130 C.3   304  LEU304      0.0001
@<TRIPOS>BOND
     1     3     4    2
     2     3     2    1
     3     1     2    1
     4     2     5    1
     5    12    13    1
     6     5     6    1
     7    14    13    1
     8    14    15    2
     9    13    16    1
    10     6     8   ar
    11     6     7   ar
    12     8    10   ar
    13    16    17    1
    14     7     9   ar
    15    10    11   ar
    16    17    18    1
    17    64    63   ar
    18    64    62   ar
    19    63    61   ar
    20     9    11   ar
    21    62    60   ar
    22    61    59   ar
    23    19    18    2
    24    60    59   ar
    25    59    58    1
    26    18    20   am
    27    58    55    1
    28    53    51   ar
    29    72    70    1
    30    55    54    1
    31    55    56    1
    32    54    48   am
    33    50    51    1
    34    50    47    1
    35    51    52   ar
    36    69    70    1
    37    69    66    1
    38    56    65   am
    39    56    57    2
    40    65    66    1
    41    70    71    1
    42    48    47    1
    43    48    49    2
    44    34    33    1
    45    33    30    1
    46    47    46    1
    47    66    67    1
    48    45    44    2
    49    68    67    2
    50    44    43    1
    51    27    26    1
    52    67    73   am
    53    21    22    1
    54    30    29    1
    55    30    31    1
    56    26    25    1
    57    26    28    1
    58    29    23   am
    59    43    42    1
    60    25    22    1
    61    32    31    2
    62    23    22    1
    63    23    24    2
    64    31    35   am
    65    73    74    1
    66    42    37   am
    67    74    75    1
    68    74    77    1
    69    37    38    2
    70    37    36    1
    71    35    36    1
    72    35    41    1
    73    75    76    2
    74    86    85    1
    75    36    39    1
    76    41    40    1
    77    79    77    1
    78    77    78    1
    79    85    84    1
    80    85    87    1
    81    84    81    1
    82    39    40    1
    83    80    81    1
    84    81    82    1
    85    82    83    2
