@<TRIPOS>MOLECULE
tmp/6emiA03.pdb
 136 136 0 0 0
SMALL
GASTEIGER

@<TRIPOS>ATOM
      1  N         27.9370    1.7920   25.9990 N.3    80  TRP80      -0.1241
      2  CA        28.4130    2.6140   24.8970 C.3    80  TRP80       0.1605
      3  C         29.1990    3.8300   25.3650 C.2    80  TRP80       0.2264
      4  O         29.6090    4.6450   24.5330 O.2    80  TRP80      -0.2867
      5  CB        27.2300    3.0560   24.0290 C.3    80  TRP80       0.0550
      6  CG        26.3330    1.9170   23.6610 C.ar   80  TRP80       0.0003
      7  CD1       25.1030    1.6390   24.1820 C.ar   80  TRP80       0.0946
      8  CD2       26.6040    0.8890   22.7000 C.ar   80  TRP80       0.0152
      9  NE1       24.5890    0.5040   23.6020 N.ar   80  TRP80      -0.2442
     10  CE2       25.4910    0.0250   22.6880 C.ar   80  TRP80       0.0810
     11  CE3       27.6770    0.6180   21.8470 C.ar   80  TRP80       0.0012
     12  CZ2       25.4210   -1.0910   21.8580 C.ar   80  TRP80       0.0191
     13  CZ3       27.6060   -0.4910   21.0230 C.ar   80  TRP80       0.0001
     14  CH2       26.4860   -1.3310   21.0350 C.ar   80  TRP80       0.0015
     15  N         30.7040    3.6860   15.6960 N.3   113  GLY113     -0.1210
     16  CA        29.6420    4.6560   15.5580 C.3   113  GLY113      0.1956
     17  C         29.4680    5.5020   16.8080 C.2   113  GLY113      0.2612
     18  O         30.3210    5.5480   17.6970 O.2   113  GLY113     -0.2717
     19  N         28.3260    6.1840   16.8690 N.am  114  GLY114     -0.1942
     20  CA        28.0370    7.0770   17.9740 C.3   114  GLY114      0.2014
     21  C         27.4210    8.3900   17.5330 C.2   114  GLY114      0.2639
     22  O         27.5400    9.4060   18.2260 O.2   114  GLY114     -0.2714
     23  N         26.7590    8.3790   16.3760 N.am  115  GLY115     -0.1954
     24  CA        26.1280    9.5760   15.8540 C.3   115  GLY115      0.1869
     25  C         27.0770   10.7140   15.5670 C.2   115  GLY115      0.2309
     26  O         26.6510   11.8720   15.5420 O.2   115  GLY115     -0.2863
     27  N         29.8860   10.6500   19.7380 N.3   118  THR118     -0.1218
     28  CA        30.4150    9.7970   20.7920 C.3   118  THR118      0.1862
     29  C         31.1390    8.6180   20.1560 C.2   118  THR118      0.2287
     30  O         31.1910    8.4780   18.9300 O.2   118  THR118     -0.2866
     31  CB        29.3010    9.2950   21.7210 C.3   118  THR118      0.1770
     32  OG1       28.2550    8.7040   20.9380 O.3   118  THR118     -0.2211
     33  CG2       28.7250   10.4340   22.5510 C.3   118  THR118      0.0375
     34  N         34.1090   -4.0640   20.8770 N.3   126  TYR126     -0.1241
     35  CA        34.8750   -3.9160   19.6440 C.3   126  TYR126      0.1605
     36  C         36.2210   -4.6340   19.6890 C.2   126  TYR126      0.2264
     37  O         37.0420   -4.4380   18.7860 O.2   126  TYR126     -0.2867
     38  CB        35.1110   -2.4360   19.3250 C.3   126  TYR126      0.0534
     39  CG        33.8710   -1.5750   19.2050 C.ar  126  TYR126     -0.0201
     40  CD1       32.6880   -2.0770   18.6770 C.ar  126  TYR126     -0.0009
     41  CD2       33.8970   -0.2450   19.6040 C.ar  126  TYR126     -0.0009
     42  CE1       31.5620   -1.2770   18.5670 C.ar  126  TYR126      0.0417
     43  CE2       32.7820    0.5580   19.4970 C.ar  126  TYR126      0.0417
     44  CZ        31.6180    0.0410   18.9790 C.ar  126  TYR126      0.1957
     45  OH        30.5100    0.8520   18.8750 O.3   126  TYR126     -0.2866
     46  N         29.7670    0.4190   12.0480 N.3   195  GLU195     -0.1231
     47  CA        28.3600    0.3820   12.4150 C.3   195  GLU195      0.1699
     48  C         27.8550    1.7910   12.6900 C.2   195  GLU195      0.2592
     49  O         28.5920    2.6310   13.2130 O.2   195  GLU195     -0.2718
     50  CB        28.1370   -0.5090   13.6470 C.3   195  GLU195      0.0402
     51  CG        26.6760   -0.8130   13.9390 C.3   195  GLU195      0.1161
     52  CD        26.0950    0.1000   15.0010 C.2   195  GLU195      0.3649
     53  OE1       26.8800    0.8030   15.6710 O.co2 195  GLU195     -0.2457
     54  OE2       24.8560    0.1230   15.1570 O.co2 195  GLU195     -0.2457
     55  N         26.5940    2.0390   12.3260 N.am  196  SER196     -0.1952
     56  CA        25.9000    3.3070   12.5850 C.3   196  SER196      0.1924
     57  C         26.7030    4.4360   11.9490 C.2   196  SER196      0.2314
     58  O         26.9040    4.4040   10.7220 O.2   196  SER196     -0.2863
     59  CB        25.6520    3.4320   14.0890 C.3   196  SER196      0.2116
     60  OG        24.5280    4.2550   14.3520 O.3   196  SER196     -0.2180
     61  N         15.4240    2.1120   19.5270 N.3   326  ALA326     -0.1231
     62  CA        16.3270    2.7380   20.4870 C.3   326  ALA326      0.1694
     63  C         16.1060    4.2420   20.5790 C.2   326  ALA326      0.2592
     64  O         16.2240    4.8220   21.6650 O.2   326  ALA326     -0.2718
     65  CB        17.7790    2.4430   20.1110 C.3   326  ALA326      0.0304
     66  N         15.7770    4.8880   19.4600 N.am  327  PHE327     -0.1976
     67  CA        15.6400    6.3380   19.4360 C.3   327  PHE327      0.1639
     68  C         14.2700    6.8120   19.9020 C.2   327  PHE327      0.2290
     69  O         14.1170    7.9950   20.2260 O.2   327  PHE327     -0.2864
     70  CB        15.9320    6.8610   18.0280 C.3   327  PHE327      0.0560
     71  CG        17.2920    6.4790   17.5150 C.ar  327  PHE327     -0.0200
     72  CD1       17.4750    5.3070   16.7980 C.ar  327  PHE327     -0.0042
     73  CD2       18.3920    7.2840   17.7630 C.ar  327  PHE327     -0.0042
     74  CE1       18.7270    4.9480   16.3330 C.ar  327  PHE327     -0.0003
     75  CE2       19.6480    6.9310   17.3000 C.ar  327  PHE327     -0.0003
     76  CZ        19.8150    5.7620   16.5840 C.ar  327  PHE327     -0.0000
     77  N         14.5610    7.8770   23.5870 N.3   330  TYR330     -0.1241
     78  CA        15.2740    9.1260   23.8560 C.3   330  TYR330      0.1605
     79  C         14.5340   10.3290   23.2660 C.2   330  TYR330      0.2264
     80  O         15.0510   11.0550   22.4190 O.2   330  TYR330     -0.2867
     81  CB        16.6980    9.0480   23.3140 C.3   330  TYR330      0.0534
     82  CG        17.6120    8.1010   24.0580 C.ar  330  TYR330     -0.0201
     83  CD1       17.6940    6.7620   23.7010 C.ar  330  TYR330     -0.0009
     84  CD2       18.4040    8.5490   25.1090 C.ar  330  TYR330     -0.0009
     85  CE1       18.5320    5.8930   24.3730 C.ar  330  TYR330      0.0417
     86  CE2       19.2450    7.6860   25.7880 C.ar  330  TYR330      0.0417
     87  CZ        19.3040    6.3600   25.4150 C.ar  330  TYR330      0.1957
     88  OH        20.1360    5.4930   26.0820 O.3   330  TYR330     -0.2866
     89  N         18.0900   -4.1770   27.2220 N.3   428  TRP428     -0.1241
     90  CA        16.8970   -3.3750   27.0070 C.3   428  TRP428      0.1605
     91  C         15.6460   -4.2530   27.0010 C.2   428  TRP428      0.2264
     92  O         15.7310   -5.4680   26.8070 O.2   428  TRP428     -0.2867
     93  CB        17.0200   -2.6070   25.6940 C.3   428  TRP428      0.0550
     94  CG        18.1250   -1.5860   25.6880 C.ar  428  TRP428      0.0003
     95  CD1       19.4240   -1.7880   25.3200 C.ar  428  TRP428      0.0946
     96  CD2       18.0260   -0.2050   26.0640 C.ar  428  TRP428      0.0152
     97  NE1       20.1390   -0.6220   25.4440 N.ar  428  TRP428     -0.2442
     98  CE2       19.3050    0.3650   25.8990 C.ar  428  TRP428      0.0810
     99  CE3       16.9820    0.6040   26.5250 C.ar  428  TRP428      0.0012
    100  CZ2       19.5670    1.7050   26.1800 C.ar  428  TRP428      0.0191
    101  CZ3       17.2450    1.9340   26.8020 C.ar  428  TRP428      0.0001
    102  CH2       18.5270    2.4710   26.6290 C.ar  428  TRP428      0.0015
    103  N         17.6940   -4.4790   18.3800 N.3   435  MET435     -0.1230
    104  CA        17.8900   -3.0400   18.4100 C.3   435  MET435      0.1702
    105  C         19.1050   -2.6040   17.5960 C.2   435  MET435      0.2592
    106  O         19.9400   -3.4060   17.1730 O.2   435  MET435     -0.2718
    107  CB        18.0410   -2.5580   19.8480 C.3   435  MET435      0.0401
    108  CG        16.7800   -2.6510   20.6660 C.3   435  MET435      0.0596
    109  SD        17.0830   -2.0830   22.3420 S.3   435  MET435     -0.1393
    110  CE        18.1170   -0.6530   22.0450 C.3   435  MET435      0.0692
    111  N         19.1850   -1.2920   17.3910 N.am  436  HIS436     -0.1962
    112  CA        20.3300   -0.6660   16.7470 C.3   436  HIS436      0.1787
    113  C         21.5950   -0.9180   17.5570 C.2   436  HIS436      0.2621
    114  O         21.6730   -0.5480   18.7320 O.2   436  HIS436     -0.2715
    115  CB        20.0640    0.8340   16.6120 C.3   436  HIS436      0.0785
    116  CG        21.0100    1.5480   15.6990 C.ar  436  HIS436      0.0821
    117  ND1       21.0250    1.3490   14.3350 N.ar  436  HIS436     -0.2267
    118  CD2       21.9560    2.4830   15.9530 C.ar  436  HIS436      0.1154
    119  CE1       21.9500    2.1190   13.7900 C.ar  436  HIS436      0.1986
    120  NE2       22.5280    2.8180   14.7500 N.ar  436  HIS436     -0.2212
    121  N         22.5810   -1.5630   16.9360 N.am  437  GLY437     -0.1940
    122  CA        23.8860   -1.7340   17.5380 C.3   437  GLY437      0.2014
    123  C         24.1240   -3.0440   18.2570 C.2   437  GLY437      0.2638
    124  O         25.2120   -3.2310   18.8160 O.2   437  GLY437     -0.2714
    125  N         23.1590   -3.9620   18.2600 N.am  438  TYR438     -0.1973
    126  CA        23.2920   -5.2040   19.0100 C.3   438  TYR438      0.1639
    127  C         23.4990   -6.4110   18.1000 C.2   438  TYR438      0.2290
    128  O         23.1310   -7.5350   18.4470 O.2   438  TYR438     -0.2864
    129  CB        22.0930   -5.3950   19.9330 C.3   438  TYR438      0.0560
    130  CG        22.1370   -4.4180   21.0830 C.ar  438  TYR438     -0.0198
    131  CD1       23.0470   -4.5850   22.1180 C.ar  438  TYR438     -0.0009
    132  CD2       21.3000   -3.3100   21.1170 C.ar  438  TYR438     -0.0009
    133  CE1       23.1080   -3.6890   23.1670 C.ar  438  TYR438      0.0417
    134  CE2       21.3540   -2.4090   22.1630 C.ar  438  TYR438      0.0417
    135  CZ        22.2590   -2.6050   23.1850 C.ar  438  TYR438      0.1957
    136  OH        22.3190   -1.7140   24.2300 O.3   438  TYR438     -0.2866
@<TRIPOS>BOND
     1    58    57    2
     2    57    56    1
     3    46    47    1
     4    55    56    1
     5    55    48   am
     6    47    48    1
     7    47    50    1
     8    56    59    1
     9    48    49    2
    10    50    51    1
    11   119   117   ar
    12   119   120   ar
    13    51    52    1
    14    59    60    1
    15   117   116   ar
    16   120   118   ar
    17    52    54   ar
    18    52    53   ar
    19    26    25    2
    20    16    15    1
    21    16    17    1
    22    25    24    1
    23   116   118   ar
    24   116   115    1
    25    24    23    1
    26    74    76   ar
    27    74    72   ar
    28    23    21   am
    29    76    75   ar
    30   115   112    1
    31   112   111    1
    32   112   113    1
    33    72    71   ar
    34    17    19   am
    35    17    18    2
    36    19    20    1
    37   121   122    1
    38   121   113   am
    39   106   105    2
    40    75    73   ar
    41   111   105   am
    42    71    73   ar
    43    71    70    1
    44    21    20    1
    45    21    22    2
    46   122   123    1
    47   113   114    2
    48   105   104    1
    49    70    67    1
    50   127   128    2
    51   127   126    1
    52   123   125   am
    53   123   124    2
    54   125   126    1
    55   103   104    1
    56   104   107    1
    57    42    40   ar
    58    42    44   ar
    59    40    39   ar
    60    37    36    2
    61    45    44    1
    62    30    29    2
    63    44    43   ar
    64   126   129    1
    65    39    38    1
    66    39    41   ar
    67    38    35    1
    68    67    66    1
    69    67    68    1
    70    66    63   am
    71    43    41   ar
    72    61    62    1
    73    35    36    1
    74    35    34    1
    75    27    28    1
    76   107   108    1
    77    68    69    2
    78   129   130    1
    79    65    62    1
    80    29    28    1
    81    62    63    1
    82    63    64    2
    83   108   109    1
    84    28    31    1
    85    32    31    1
    86    13    14   ar
    87    13    11   ar
    88    14    12   ar
    89   130   132   ar
    90   130   131   ar
    91   132   134   ar
    92    31    33    1
    93    11     8   ar
    94    12    10   ar
    95   110   109    1
    96   131   133   ar
    97   134   135   ar
    98    80    79    2
    99    10     8   ar
   100    10     9   ar
   101     8     6   ar
   102   133   135   ar
   103   135   136    1
   104    79    78    1
   105    81    78    1
   106    81    82    1
   107    77    78    1
   108     9     7   ar
   109     6     5    1
   110     6     7   ar
   111    83    82   ar
   112    83    85   ar
   113     5     2    1
   114    82    84   ar
   115    85    87   ar
   116     4     3    2
   117     2     3    1
   118     2     1    1
   119    84    86   ar
   120    95    97   ar
   121    95    94   ar
   122    87    86   ar
   123    87    88    1
   124    97    98   ar
   125    94    93    1
   126    94    96   ar
   127    93    90    1
   128    98    96   ar
   129    98   100   ar
   130    96    99   ar
   131   100   102   ar
   132    99   101   ar
   133   102   101   ar
   134    92    91    2
   135    91    90    1
   136    90    89    1
