@<TRIPOS>MOLECULE
tmp/6emiB04.pdb
 114 113 0 0 0
SMALL
GASTEIGER

@<TRIPOS>ATOM
      1  N         76.0440  -28.3670   55.5290 N.3   370  HIS370     -0.1226
      2  CA        75.2940  -29.4960   56.0660 C.3   370  HIS370      0.1752
      3  C         74.9020  -30.5060   54.9960 C.2   370  HIS370      0.2596
      4  O         74.6010  -31.6560   55.3320 O.2   370  HIS370     -0.2718
      5  CB        74.0410  -28.9950   56.7890 C.3   370  HIS370      0.0759
      6  CG        73.3690  -30.0370   57.6280 C.ar  370  HIS370      0.0818
      7  ND1       73.6770  -30.2370   58.9570 N.ar  370  HIS370     -0.2268
      8  CD2       72.4030  -30.9380   57.3270 C.ar  370  HIS370      0.1154
      9  CE1       72.9300  -31.2150   59.4380 C.ar  370  HIS370      0.1986
     10  NE2       72.1490  -31.6580   58.4690 N.ar  370  HIS370     -0.2212
     11  N         74.9070  -30.1150   53.7210 N.am  371  TYR371     -0.1962
     12  CA        74.4380  -30.9770   52.6440 C.3   371  TYR371      0.1771
     13  C         75.5540  -31.3900   51.6870 C.2   371  TYR371      0.2620
     14  O         75.2770  -31.7440   50.5370 O.2   371  TYR371     -0.2715
     15  CB        73.3080  -30.2880   51.8780 C.3   371  TYR371      0.0574
     16  CG        71.9420  -30.5160   52.4850 C.ar  371  TYR371     -0.0198
     17  CD1       71.2100  -31.6560   52.1830 C.ar  371  TYR371     -0.0009
     18  CD2       71.3890  -29.5950   53.3660 C.ar  371  TYR371     -0.0009
     19  CE1       69.9640  -31.8720   52.7360 C.ar  371  TYR371      0.0417
     20  CE2       70.1410  -29.8020   53.9240 C.ar  371  TYR371      0.0417
     21  CZ        69.4340  -30.9430   53.6060 C.ar  371  TYR371      0.1957
     22  OH        68.1910  -31.1600   54.1570 O.3   371  TYR371     -0.2866
     23  N         76.8120  -31.3650   52.1390 N.am  372  THR372     -0.1937
     24  CA        77.9330  -31.7710   51.2990 C.3   372  THR372      0.2028
     25  C         78.8480  -32.7710   52.0010 C.2   372  THR372      0.2642
     26  O         79.9970  -32.9490   51.5830 O.2   372  THR372     -0.2714
     27  CB        78.7430  -30.5560   50.8360 C.3   372  THR372      0.1808
     28  OG1       78.9700  -29.6750   51.9440 O.3   372  THR372     -0.2208
     29  CG2       77.9990  -29.8070   49.7370 C.3   372  THR372      0.0379
     30  N         78.3680  -33.4230   53.0580 N.am  373  ASP373     -0.1957
     31  CA        79.1000  -34.5110   53.7050 C.3   373  ASP373      0.1840
     32  C         78.8150  -35.7780   52.9080 C.2   373  ASP373      0.2622
     33  O         77.9010  -36.5450   53.2160 O.2   373  ASP373     -0.2715
     34  CB        78.6860  -34.6480   55.1640 C.3   373  ASP373      0.1450
     35  CG        79.7480  -35.3190   56.0110 C.2   373  ASP373      0.3671
     36  OD1       80.8130  -35.6760   55.4610 O.co2 373  ASP373     -0.2456
     37  OD2       79.5190  -35.4870   57.2270 O.co2 373  ASP373     -0.2456
     38  N         79.6200  -36.0010   51.8690 N.am  374  TRP374     -0.1974
     39  CA        79.2750  -36.9410   50.8080 C.3   374  TRP374      0.1640
     40  C         79.2870  -38.4030   51.2390 C.2   374  TRP374      0.2290
     41  O         78.2290  -39.0410   51.2720 O.2   374  TRP374     -0.2864
     42  CB        80.2180  -36.7570   49.6160 C.3   374  TRP374      0.0576
     43  CG        80.1660  -35.3900   48.9950 C.ar  374  TRP374      0.0006
     44  CD1       81.2280  -34.5830   48.7110 C.ar  374  TRP374      0.0946
     45  CD2       78.9940  -34.6720   48.5770 C.ar  374  TRP374      0.0152
     46  NE1       80.7940  -33.4080   48.1450 N.ar  374  TRP374     -0.2442
     47  CE2       79.4280  -33.4380   48.0520 C.ar  374  TRP374      0.0810
     48  CE3       77.6230  -34.9520   48.5950 C.ar  374  TRP374      0.0012
     49  CZ2       78.5410  -32.4870   47.5500 C.ar  374  TRP374      0.0191
     50  CZ3       76.7460  -34.0060   48.0990 C.ar  374  TRP374      0.0001
     51  CH2       77.2080  -32.7890   47.5840 C.ar  374  TRP374      0.0015
     52  N         81.0120  -39.0400   43.1580 N.3   379  ARG379     -0.1245
     53  CA        79.7500  -39.3180   42.4900 C.3   379  ARG379      0.1563
     54  C         79.3030  -38.0650   41.7510 C.2   379  ARG379      0.2260
     55  O         79.0300  -37.0470   42.4010 O.2   379  ARG379     -0.2867
     56  CB        78.6940  -39.7630   43.4990 C.3   379  ARG379      0.0307
     57  CG        77.7940  -40.8810   42.9930 C.3   379  ARG379      0.0489
     58  CD        76.6980  -41.2080   43.9940 C.3   379  ARG379      0.2205
     59  NE        75.8820  -40.0380   44.3030 N.pl3 379  ARG379     -0.0865
     60  CZ        74.7220  -39.7570   43.7190 C.cat 379  ARG379      0.5346
     61  NH1       74.0560  -38.6660   44.0680 N.pl3 379  ARG379      0.1354
     62  NH2       74.2280  -40.5620   42.7870 N.pl3 379  ARG379      0.1354
     63  N         71.7740  -34.2160   43.6250 N.3   385  ASP385     -0.1225
     64  CA        71.0130  -34.8380   44.7030 C.3   385  ASP385      0.1805
     65  C         70.9360  -33.9420   45.9310 C.2   385  ASP385      0.2597
     66  O         69.9330  -33.9700   46.6540 O.2   385  ASP385     -0.2718
     67  CB        71.6340  -36.1830   45.0750 C.3   385  ASP385      0.1424
     68  CG        71.3100  -37.2710   44.0730 C.2   385  ASP385      0.3668
     69  OD1       71.7810  -38.4120   44.2630 O.co2 385  ASP385     -0.2456
     70  OD2       70.5850  -36.9850   43.0970 O.co2 385  ASP385     -0.2456
     71  N         71.9780  -33.1450   46.1840 N.am  386  ALA386     -0.1979
     72  CA        71.9980  -32.3090   47.3790 C.3   386  ALA386      0.1597
     73  C         70.9540  -31.2020   47.3030 C.2   386  ALA386      0.2287
     74  O         70.2570  -30.9330   48.2890 O.2   386  ALA386     -0.2864
     75  CB        73.3940  -31.7210   47.5840 C.3   386  ALA386      0.0319
     76  N         67.5290  -32.5780   47.7820 N.3   389  GLU389     -0.1245
     77  CA        67.2520  -32.8890   49.1790 C.3   389  GLU389      0.1567
     78  C         67.0250  -31.6330   50.0080 C.2   389  GLU389      0.2260
     79  O         66.2310  -31.6580   50.9550 O.2   389  GLU389     -0.2867
     80  CB        68.3950  -33.7100   49.7730 C.3   389  GLU389      0.0388
     81  CG        68.3130  -35.1930   49.4620 C.3   389  GLU389      0.1160
     82  CD        69.6560  -35.8830   49.5640 C.2   389  GLU389      0.3649
     83  OE1       69.7930  -37.0020   49.0260 O.co2 389  GLU389     -0.2457
     84  OE2       70.5750  -35.3060   50.1810 O.co2 389  GLU389     -0.2457
     85  N         65.0980  -38.8280   58.0190 N.3   513  ARG513     -0.1245
     86  CA        65.8570  -37.5970   57.7830 C.3   513  ARG513      0.1563
     87  C         66.0830  -36.8160   59.0750 C.2   513  ARG513      0.2260
     88  O         66.1220  -35.5830   59.0710 O.2   513  ARG513     -0.2867
     89  CB        65.1670  -36.7150   56.7380 C.3   513  ARG513      0.0307
     90  CG        64.6990  -37.4580   55.4970 C.3   513  ARG513      0.0489
     91  CD        65.8710  -37.8800   54.6290 C.3   513  ARG513      0.2205
     92  NE        66.4680  -36.7480   53.9260 N.pl3 513  ARG513     -0.0865
     93  CZ        67.6930  -36.7480   53.4100 C.cat 513  ARG513      0.5346
     94  NH1       68.1510  -35.6700   52.7870 N.pl3 513  ARG513      0.1354
     95  NH2       68.4620  -37.8230   53.5160 N.pl3 513  ARG513      0.1354
     96  N         68.6630  -36.3680   60.9400 N.3   515  GLN515     -0.1231
     97  CA        69.8710  -35.5500   60.9630 C.3   515  GLN515      0.1698
     98  C         69.6760  -34.2460   60.1980 C.2   515  GLN515      0.2592
     99  O         70.1490  -33.1890   60.6320 O.2   515  GLN515     -0.2718
    100  CB        71.0530  -36.3430   60.3960 C.3   515  GLN515      0.0381
    101  CG        70.8920  -36.8120   58.9460 C.3   515  GLN515      0.0905
    102  CD        69.9330  -37.9830   58.7970 C.2   515  GLN515      0.2608
    103  OE1       69.8130  -38.8200   59.6920 O.2   515  GLN515     -0.2717
    104  NE2       69.2410  -38.0420   57.6640 N.am  515  GLN515     -0.0878
    105  N         68.9740  -34.2960   59.0640 N.am  516  HIS516     -0.1976
    106  CA        68.7700  -33.0930   58.2650 C.3   516  HIS516      0.1656
    107  C         67.6810  -32.2080   58.8570 C.2   516  HIS516      0.2291
    108  O         67.8110  -30.9790   58.8570 O.2   516  HIS516     -0.2864
    109  CB        68.4220  -33.4700   56.8260 C.3   516  HIS516      0.0771
    110  CG        69.5040  -34.2270   56.1220 C.ar  516  HIS516      0.0820
    111  ND1       70.6140  -33.6120   55.5840 N.ar  516  HIS516     -0.2267
    112  CD2       69.6450  -35.5490   55.8660 C.ar  516  HIS516      0.1154
    113  CE1       71.3920  -34.5230   55.0280 C.ar  516  HIS516      0.1986
    114  NE2       70.8270  -35.7060   55.1840 N.ar  516  HIS516     -0.2212
@<TRIPOS>BOND
     1    54    55    2
     2    54    53    1
     3    53    52    1
     4    53    56    1
     5    62    60    1
     6    57    56    1
     7    57    58    1
     8    70    68   ar
     9    63    64    1
    10    60    61    1
    11    60    59    2
    12    58    59    1
    13    68    69   ar
    14    68    67    1
    15    64    67    1
    16    64    65    1
    17    65    71   am
    18    65    66    2
    19    71    72    1
    20    73    72    1
    21    73    74    2
    22    72    75    1
    23    49    51   ar
    24    49    47   ar
    25    51    50   ar
    26    76    77    1
    27    47    46   ar
    28    47    45   ar
    29    50    48   ar
    30    46    44   ar
    31    45    48   ar
    32    45    43   ar
    33    44    43   ar
    34    43    42    1
    35    83    82   ar
    36    77    80    1
    37    77    78    1
    38    81    82    1
    39    81    80    1
    40    82    84   ar
    41    42    39    1
    42    29    27    1
    43    78    79    2
    44    14    13    2
    45    39    40    1
    46    39    38    1
    47    27    24    1
    48    27    28    1
    49    40    41    2
    50    24    25    1
    51    24    23    1
    52    26    25    2
    53    13    23   am
    54    13    12    1
    55    38    32   am
    56    15    16    1
    57    15    12    1
    58    25    30   am
    59    17    16   ar
    60    17    19   ar
    61    16    18   ar
    62    12    11    1
    63    19    21   ar
    64    94    93    1
    65    32    33    2
    66    32    31    1
    67    30    31    1
    68    18    20   ar
    69    93    95    1
    70    93    92    2
    71    21    20   ar
    72    21    22    1
    73    31    34    1
    74    11     3   am
    75    92    91    1
    76    91    90    1
    77     3     4    2
    78     3     2    1
    79   113   114   ar
    80   113   111   ar
    81    34    35    1
    82   114   112   ar
    83    36    35   ar
    84    90    89    1
    85     1     2    1
    86   111   110   ar
    87   112   110   ar
    88    35    37   ar
    89     2     5    1
    90   110   109    1
    91    89    86    1
    92     5     6    1
    93   109   106    1
    94     8     6   ar
    95     8    10   ar
    96     6     7   ar
    97   104   102   am
    98    86    85    1
    99    86    87    1
   100   106   107    1
   101   106   105    1
   102    10     9   ar
   103   102   101    1
   104   102   103    2
   105   108   107    2
   106   101   100    1
   107     7     9   ar
   108   105    98   am
   109    88    87    2
   110    98    99    2
   111    98    97    1
   112   100    97    1
   113    96    97    1
