@<TRIPOS>MOLECULE
tmp/6emiB06.pdb
 107 107 0 0 0
SMALL
GASTEIGER

@<TRIPOS>ATOM
      1  N         28.3880  -36.2140   39.3080 N.3    27  LEU27      -0.1231
      2  CA        29.4110  -35.2450   38.9350 C.3    27  LEU27       0.1693
      3  C         28.7950  -33.8600   38.7860 C.2    27  LEU27       0.2592
      4  O         27.7750  -33.6990   38.1100 O.2    27  LEU27      -0.2718
      5  CB        30.0970  -35.6510   37.6300 C.3    27  LEU27       0.0284
      6  CG        30.6750  -37.0630   37.5330 C.3    27  LEU27       0.0019
      7  CD1       31.4540  -37.2300   36.2370 C.3    27  LEU27       0.0001
      8  CD2       31.5520  -37.3690   38.7350 C.3    27  LEU27       0.0001
      9  N         29.4190  -32.8660   39.4150 N.am   28  GLY28      -0.1957
     10  CA        29.0290  -31.4840   39.2200 C.3    28  GLY28       0.1869
     11  C         27.7860  -31.0450   39.9670 C.2    28  GLY28       0.2309
     12  O         26.8930  -30.4240   39.3820 O.2    28  GLY28      -0.2863
     13  N         27.2080  -19.1780   42.7350 N.3    34  PRO34      -0.2116
     14  CA        28.3680  -18.8270   41.9080 C.3    34  PRO34       0.1372
     15  C         28.9540  -17.4930   42.3300 C.2    34  PRO34       0.2244
     16  O         28.2610  -16.4640   42.3150 O.2    34  PRO34      -0.2868
     17  CB        27.7830  -18.7600   40.4890 C.3    34  PRO34       0.0268
     18  CG        26.5610  -19.6250   40.5460 C.3    34  PRO34       0.0207
     19  CD        26.0050  -19.4340   41.9250 C.3    34  PRO34       0.0892
     20  N         18.3570  -31.5640   38.9430 N.3    54  TRP54      -0.1227
     21  CA        19.6710  -31.1670   38.4520 C.3    54  TRP54       0.1737
     22  C         20.3740  -32.3590   37.8120 C.2    54  TRP54       0.2595
     23  O         20.6420  -33.3630   38.4790 O.2    54  TRP54      -0.2718
     24  CB        20.5110  -30.6000   39.5950 C.3    54  TRP54       0.0564
     25  CG        21.8490  -30.0750   39.1610 C.ar   54  TRP54       0.0003
     26  CD1       22.9750  -30.8050   38.9040 C.ar   54  TRP54       0.0946
     27  CD2       22.2010  -28.7050   38.9340 C.ar   54  TRP54       0.0152
     28  NE1       24.0030  -29.9740   38.5300 N.ar   54  TRP54      -0.2442
     29  CE2       23.5540  -28.6800   38.5410 C.ar   54  TRP54       0.0810
     30  CE3       21.5030  -27.4970   39.0260 C.ar   54  TRP54       0.0012
     31  CZ2       24.2220  -27.4950   38.2410 C.ar   54  TRP54       0.0191
     32  CZ3       22.1680  -26.3220   38.7270 C.ar   54  TRP54       0.0001
     33  CH2       23.5130  -26.3300   38.3390 C.ar   54  TRP54       0.0015
     34  N         20.6750  -32.2470   36.5200 N.am   55  ASN55      -0.1960
     35  CA        21.3860  -33.2960   35.7990 C.3    55  ASN55       0.1819
     36  C         22.8570  -33.2480   36.1940 C.2    55  ASN55       0.2621
     37  O         23.5810  -32.3290   35.8010 O.2    55  ASN55      -0.2715
     38  CB        21.2180  -33.1170   34.2930 C.3    55  ASN55       0.1195
     39  CG        19.7840  -33.2970   33.8440 C.2    55  ASN55       0.2630
     40  OD1       19.0950  -32.3260   33.5270 O.2    55  ASN55      -0.2716
     41  ND2       19.3250  -34.5440   33.8080 N.am   55  ASN55      -0.0877
     42  N         23.3000  -34.2320   36.9700 N.am   56  ALA56      -0.1963
     43  CA        24.6700  -34.2840   37.4710 C.3    56  ALA56       0.1728
     44  C         25.3870  -35.4870   36.8640 C.2    56  ALA56       0.2617
     45  O         25.7240  -36.4550   37.5490 O.2    56  ALA56      -0.2715
     46  CB        24.6720  -34.3420   39.0010 C.3    56  ALA56       0.0334
     47  N         25.6340  -35.4110   35.5550 N.am   57  THR57      -0.1937
     48  CA        26.1970  -36.5290   34.8070 C.3    57  THR57       0.2028
     49  C         27.5110  -36.1910   34.1160 C.2    57  THR57       0.2642
     50  O         27.9830  -36.9820   33.2900 O.2    57  THR57      -0.2714
     51  CB        25.1900  -37.0370   33.7690 C.3    57  THR57       0.1808
     52  OG1       24.6940  -35.9330   33.0020 O.3    57  THR57      -0.2208
     53  CG2       24.0270  -37.7380   34.4560 C.3    57  THR57       0.0379
     54  N         28.1170  -35.0460   34.4210 N.am   58  LYS58      -0.1963
     55  CA        29.4080  -34.7140   33.8350 C.3    58  LYS58       0.1728
     56  C         30.1240  -33.7260   34.7420 C.2    58  LYS58       0.2616
     57  O         29.5150  -33.0910   35.6060 O.2    58  LYS58      -0.2715
     58  CB        29.2560  -34.1530   32.4170 C.3    58  LYS58       0.0311
     59  CG        28.9830  -32.6630   32.3480 C.3    58  LYS58       0.0038
     60  CD        29.3380  -32.1140   30.9760 C.3    58  LYS58       0.0206
     61  CE        29.1400  -30.6100   30.9130 C.3    58  LYS58       0.1093
     62  NZ        27.9050  -30.2410   30.1690 N.3    58  LYS58      -0.1314
     63  N         31.4320  -33.6150   34.5380 N.am   59  TYR59      -0.1960
     64  CA        32.2510  -32.7580   35.3820 C.3    59  TYR59       0.1771
     65  C         31.9140  -31.2910   35.1520 C.2    59  TYR59       0.2619
     66  O         31.6040  -30.8730   34.0330 O.2    59  TYR59      -0.2715
     67  CB        33.7300  -33.0050   35.1070 C.3    59  TYR59       0.0574
     68  CG        34.2720  -34.2700   35.7320 C.ar   59  TYR59      -0.0198
     69  CD1       34.2500  -34.4530   37.1090 C.ar   59  TYR59      -0.0009
     70  CD2       34.8180  -35.2760   34.9460 C.ar   59  TYR59      -0.0009
     71  CE1       34.7540  -35.6050   37.6850 C.ar   59  TYR59       0.0417
     72  CE2       35.3220  -36.4290   35.5110 C.ar   59  TYR59       0.0417
     73  CZ        35.2890  -36.5890   36.8800 C.ar   59  TYR59       0.1957
     74  OH        35.7910  -37.7380   37.4440 O.3    59  TYR59      -0.2866
     75  N         31.9820  -30.5070   36.2260 N.am   60  ALA60      -0.1963
     76  CA        31.6650  -29.0900   36.1790 C.3    60  ALA60       0.1728
     77  C         32.8480  -28.2950   35.6320 C.2    60  ALA60       0.2616
     78  O         33.9040  -28.8420   35.3020 O.2    60  ALA60      -0.2715
     79  CB        31.2770  -28.5890   37.5670 C.3    60  ALA60       0.0334
     80  N         32.6670  -26.9800   35.5380 N.am   61  ASN61      -0.1972
     81  CA        33.7570  -26.1050   35.1370 C.3    61  ASN61       0.1688
     82  C         34.8560  -26.1040   36.1930 C.2    61  ASN61       0.2292
     83  O         34.6060  -26.3000   37.3860 O.2    61  ASN61      -0.2864
     84  CB        33.2560  -24.6750   34.9250 C.3    61  ASN61       0.1181
     85  CG        32.1890  -24.5780   33.8540 C.2    61  ASN61       0.2629
     86  OD1       32.2520  -25.2600   32.8310 O.2    61  ASN61      -0.2716
     87  ND2       31.2000  -23.7220   34.0830 N.am   61  ASN61      -0.0877
     88  N         32.2320  -19.3870   37.7440 N.3    89  ASP89      -0.1239
     89  CA        31.1540  -20.2730   38.1810 C.3    89  ASP89       0.1674
     90  C         31.7200  -21.6870   38.2210 C.2    89  ASP89       0.2266
     91  O         31.6830  -22.4260   37.2360 O.2    89  ASP89      -0.2867
     92  CB        29.9570  -20.1650   37.2440 C.3    89  ASP89       0.1410
     93  CG        28.8380  -21.1260   37.6020 C.2    89  ASP89       0.3668
     94  OD1       28.8320  -21.6530   38.7340 O.co2  89  ASP89      -0.2456
     95  OD2       27.9570  -21.3490   36.7450 O.co2  89  ASP89      -0.2456
     96  N         31.4340  -26.5230   42.5510 N.3    92  TYR92      -0.1241
     97  CA        30.6690  -27.7550   42.4320 C.3    92  TYR92       0.1605
     98  C         31.4650  -28.8920   43.0620 C.2    92  TYR92       0.2264
     99  O         32.6610  -28.7620   43.3390 O.2    92  TYR92      -0.2867
    100  CB        30.3360  -28.0750   40.9670 C.3    92  TYR92       0.0534
    101  CG        29.6050  -26.9660   40.2410 C.ar   92  TYR92      -0.0201
    102  CD1       28.2220  -26.9850   40.1180 C.ar   92  TYR92      -0.0009
    103  CD2       30.2970  -25.9020   39.6750 C.ar   92  TYR92      -0.0009
    104  CE1       27.5480  -25.9750   39.4610 C.ar   92  TYR92       0.0417
    105  CE2       29.6320  -24.8860   39.0140 C.ar   92  TYR92       0.0417
    106  CZ        28.2570  -24.9290   38.9090 C.ar   92  TYR92       0.1957
    107  OH        27.5870  -23.9230   38.2530 O.3    92  TYR92      -0.2866
@<TRIPOS>BOND
     1    62    61    1
     2    61    60    1
     3    60    59    1
     4    59    58    1
     5    58    55    1
     6    86    85    2
     7    52    51    1
     8    50    49    2
     9    40    39    2
    10    51    53    1
    11    51    48    1
    12    41    39   am
    13    55    54    1
    14    55    56    1
    15    39    38    1
    16    85    87   am
    17    85    84    1
    18    66    65    2
    19    49    54   am
    20    49    48    1
    21    38    35    1
    22    63    56   am
    23    63    64    1
    24    56    57    2
    25    48    47    1
    26    84    81    1
    27    70    72   ar
    28    70    68   ar
    29    67    64    1
    30    67    68    1
    31    81    80    1
    32    81    82    1
    33    65    64    1
    34    65    75   am
    35    78    77    2
    36    72    73   ar
    37    80    77   am
    38    47    44   am
    39    77    76    1
    40    68    69   ar
    41    35    36    1
    42    35    34    1
    43    37    36    2
    44    76    75    1
    45    76    79    1
    46    82    83    2
    47    36    42   am
    48     7     6    1
    49    34    22   am
    50    95    93   ar
    51    44    43    1
    52    44    45    2
    53    73    74    1
    54    73    71   ar
    55    42    43    1
    56    69    71   ar
    57    91    90    2
    58    92    93    1
    59    92    89    1
    60    43    46    1
    61     6     5    1
    62     6     8    1
    63    93    94   ar
    64     5     2    1
    65    88    89    1
    66    22    21    1
    67    22    23    2
    68     4     3    2
    69    89    90    1
    70    31    33   ar
    71    31    29   ar
    72   107   106    1
    73    33    32   ar
    74    21    20    1
    75    21    24    1
    76    28    29   ar
    77    28    26   ar
    78    29    27   ar
    79    32    30   ar
    80     3     2    1
    81     3     9   am
    82    26    25   ar
    83   106   105   ar
    84   106   104   ar
    85    27    30   ar
    86    27    25   ar
    87     2     1    1
    88   105   103   ar
    89    25    24    1
    90    10     9    1
    91    10    11    1
    92    12    11    2
    93   104   102   ar
    94   103   101   ar
    95   102   101   ar
    96   101   100    1
    97    17    18    1
    98    17    14    1
    99    18    19    1
   100   100    97    1
   101    14    15    1
   102    14    13    1
   103    19    13    1
   104    16    15    2
   105    97    96    1
   106    97    98    1
   107    98    99    2
