@<TRIPOS>MOLECULE
tmp/6emiA05.pdb
 87 85 0 0 0
SMALL
GASTEIGER

@<TRIPOS>ATOM
      1  N         46.9190    1.3010   21.4590 N.3    28  GLY28      -0.1225
      2  CA        47.2850    2.6850   21.6910 C.3    28  GLY28       0.1811
      3  C         48.4740    3.1910   20.9080 C.2    28  GLY28       0.2280
      4  O         49.2390    4.0120   21.4230 O.2    28  GLY28      -0.2866
      5  N         57.8900    2.8240   21.9480 N.3    54  TRP54      -0.1241
      6  CA        56.5640    3.1220   22.4680 C.3    54  TRP54       0.1605
      7  C         55.9080    1.8390   22.9600 C.2    54  TRP54       0.2264
      8  O         55.8030    0.8550   22.2210 O.2    54  TRP54      -0.2867
      9  CB        55.7010    3.7840   21.3960 C.3    54  TRP54       0.0550
     10  CG        54.3280    4.1660   21.8690 C.ar   54  TRP54       0.0003
     11  CD1       53.2660    3.3310   22.0650 C.ar   54  TRP54       0.0946
     12  CD2       53.8660    5.4840   22.1910 C.ar   54  TRP54       0.0152
     13  NE1       52.1740    4.0460   22.4940 N.ar   54  TRP54      -0.2442
     14  CE2       52.5150    5.3700   22.5790 C.ar   54  TRP54       0.0810
     15  CE3       54.4630    6.7490   22.1900 C.ar   54  TRP54       0.0012
     16  CZ2       51.7530    6.4700   22.9630 C.ar   54  TRP54       0.0191
     17  CZ3       53.7030    7.8410   22.5710 C.ar   54  TRP54       0.0001
     18  CH2       52.3630    7.6950   22.9520 C.ar   54  TRP54       0.0015
     19  N         48.3620   -0.7080   26.2430 N.3    58  LYS58      -0.1231
     20  CA        47.3400    0.0050   26.9890 C.3    58  LYS58       0.1693
     21  C         46.3680    0.6500   26.0150 C.2    58  LYS58       0.2592
     22  O         46.7830    1.2300   25.0090 O.2    58  LYS58      -0.2718
     23  CB        47.9700    1.0740   27.8900 C.3    58  LYS58       0.0285
     24  CG        47.3930    1.1390   29.2900 C.3    58  LYS58       0.0035
     25  CD        46.5620    2.3940   29.4780 C.3    58  LYS58       0.0206
     26  CE        46.0230    2.4820   30.8930 C.3    58  LYS58       0.1093
     27  NZ        44.9580    3.5130   31.0180 N.3    58  LYS58      -0.1314
     28  N         45.0760    0.5390   26.3180 N.am   59  TYR59      -0.1962
     29  CA        44.0730    1.2700   25.5590 C.3    59  TYR59       0.1771
     30  C         44.2810    2.7660   25.7520 C.2    59  TYR59       0.2619
     31  O         44.4200    3.2460   26.8810 O.2    59  TYR59      -0.2715
     32  CB        42.6680    0.8660   26.0050 C.3    59  TYR59       0.0574
     33  CG        42.1020   -0.3280   25.2730 C.ar   59  TYR59      -0.0198
     34  CD1       42.1990   -0.4350   23.8910 C.ar   59  TYR59      -0.0009
     35  CD2       41.4660   -1.3500   25.9650 C.ar   59  TYR59      -0.0009
     36  CE1       41.6770   -1.5270   23.2210 C.ar   59  TYR59       0.0417
     37  CE2       40.9430   -2.4450   25.3060 C.ar   59  TYR59       0.0417
     38  CZ        41.0510   -2.5300   23.9350 C.ar   59  TYR59       0.1957
     39  OH        40.5290   -3.6220   23.2810 O.3    59  TYR59      -0.2866
     40  N         44.3060    3.5040   24.6460 N.am   60  ALA60      -0.1963
     41  CA        44.6260    4.9200   24.6950 C.3    60  ALA60       0.1728
     42  C         43.4160    5.7350   25.1510 C.2    60  ALA60       0.2616
     43  O         42.3340    5.2060   25.4200 O.2    60  ALA60      -0.2715
     44  CB        45.1280    5.3950   23.3350 C.3    60  ALA60       0.0334
     45  N         43.6110    7.0500   25.2420 N.am   61  ASN61      -0.1972
     46  CA        42.5410    7.9440   25.6570 C.3    61  ASN61       0.1688
     47  C         41.4010    7.9240   24.6450 C.2    61  ASN61       0.2292
     48  O         41.6030    7.6940   23.4500 O.2    61  ASN61      -0.2864
     49  CB        43.0640    9.3750   25.8070 C.3    61  ASN61       0.1181
     50  CG        44.0810    9.5170   26.9230 C.2    61  ASN61       0.2629
     51  OD1       43.8540    9.0740   28.0490 O.2    61  ASN61      -0.2716
     52  ND2       45.2090   10.1470   26.6160 N.am   61  ASN61      -0.0877
     53  N         37.9560    4.7050   28.8380 N.3    84  THR84      -0.1203
     54  CA        39.2730    5.2700   29.0990 C.3    84  THR84       0.1994
     55  C         39.1300    6.7650   29.3510 C.2    84  THR84       0.2617
     56  O         38.0460    7.3390   29.2180 O.2    84  THR84      -0.2717
     57  CB        40.2490    5.0210   27.9380 C.3    84  THR84       0.1784
     58  OG1       39.7130    5.5710   26.7280 O.3    84  THR84      -0.2211
     59  CG2       40.5030    3.5320   27.7530 C.3    84  THR84       0.0376
     60  N         40.2460    7.3950   29.7160 N.am   85  ASP85      -0.1973
     61  CA        40.2350    8.8180   30.0280 C.3    85  ASP85       0.1709
     62  C         39.8720    9.6420   28.7990 C.2    85  ASP85       0.2293
     63  O         40.3010    9.3440   27.6810 O.2    85  ASP85      -0.2864
     64  CB        41.6000    9.2580   30.5620 C.3    85  ASP85       0.1436
     65  CG        41.9130    8.6710   31.9230 C.2    85  ASP85       0.3671
     66  OD1       40.9620    8.3570   32.6710 O.co2  85  ASP85      -0.2456
     67  OD2       43.1120    8.5280   32.2460 O.co2  85  ASP85      -0.2456
     68  N         44.0570   14.5660   23.2980 N.3    89  ASP89      -0.1239
     69  CA        45.1390   13.6910   22.8510 C.3    89  ASP89       0.1674
     70  C         44.5650   12.2850   22.7460 C.2    89  ASP89       0.2266
     71  O         44.5970   11.5020   23.6970 O.2    89  ASP89      -0.2867
     72  CB        46.3140   13.7560   23.8210 C.3    89  ASP89       0.1410
     73  CG        47.4800   12.8850   23.3950 C.2    89  ASP89       0.3668
     74  OD1       47.4840   12.3980   22.2450 O.co2  89  ASP89      -0.2456
     75  OD2       48.3980   12.6840   24.2180 O.co2  89  ASP89      -0.2456
     76  N         44.9340    7.6450   18.3530 N.3    92  TYR92      -0.1241
     77  CA        45.6810    6.4060   18.5100 C.3    92  TYR92       0.1605
     78  C         44.9080    5.2680   17.8590 C.2    92  TYR92       0.2264
     79  O         43.7030    5.3700   17.6170 O.2    92  TYR92      -0.2867
     80  CB        45.9490    6.0870   19.9880 C.3    92  TYR92       0.0534
     81  CG        46.6870    7.1790   20.7330 C.ar   92  TYR92      -0.0201
     82  CD1       46.0070    8.2600   21.2770 C.ar   92  TYR92      -0.0009
     83  CD2       48.0630    7.1230   20.8990 C.ar   92  TYR92      -0.0009
     84  CE1       46.6780    9.2590   21.9550 C.ar   92  TYR92       0.0417
     85  CE2       48.7420    8.1160   21.5750 C.ar   92  TYR92       0.0417
     86  CZ        48.0450    9.1810   22.1000 C.ar   92  TYR92       0.1957
     87  OH        48.7210   10.1710   22.7740 O.3    92  TYR92      -0.2866
@<TRIPOS>BOND
     1    79    78    2
     2    78    77    1
     3    76    77    1
     4    77    80    1
     5    80    81    1
     6    81    83   ar
     7    81    82   ar
     8    83    85   ar
     9     3     4    2
    10     3     2    1
    11    82    84   ar
    12     9    10    1
    13     9     6    1
    14     1     2    1
    15    85    86   ar
    16    10    11   ar
    17    10    12   ar
    18     5     6    1
    19    84    86   ar
    20    11    13   ar
    21    86    87    1
    22    15    12   ar
    23    15    17   ar
    24    12    14   ar
    25     8     7    2
    26    74    73   ar
    27     6     7    1
    28    13    14   ar
    29    17    18   ar
    30    14    16   ar
    31    70    69    1
    32    70    71    2
    33    69    68    1
    34    69    72    1
    35    18    16   ar
    36    36    34   ar
    37    36    38   ar
    38    39    38    1
    39    44    41    1
    40    73    72    1
    41    73    75   ar
    42    48    47    2
    43    34    33   ar
    44    38    37   ar
    45    47    46    1
    46    40    41    1
    47    40    30   am
    48    41    42    1
    49    22    21    2
    50    42    45   am
    51    42    43    2
    52    45    46    1
    53    33    35   ar
    54    33    32    1
    55    37    35   ar
    56    29    30    1
    57    29    32    1
    58    29    28    1
    59    46    49    1
    60    30    31    2
    61    49    50    1
    62    21    28   am
    63    21    20    1
    64    19    20    1
    65    52    50   am
    66    58    57    1
    67    50    51    2
    68    20    23    1
    69    63    62    2
    70    59    57    1
    71    23    24    1
    72    57    54    1
    73    62    61    1
    74    53    54    1
    75    54    55    1
    76    56    55    2
    77    24    25    1
    78    55    60   am
    79    25    26    1
    80    60    61    1
    81    61    64    1
    82    64    65    1
    83    26    27    1
    84    65    67   ar
    85    65    66   ar
