@<TRIPOS>MOLECULE
tmp/6emiA00.pdb
 91 89 0 0 0
SMALL
GASTEIGER

@<TRIPOS>ATOM
      1  N         57.3170    2.9930   10.7940 N.3     7  LYS7       -0.1231
      2  CA        58.0060    4.0910   10.1300 C.3     7  LYS7        0.1693
      3  C         58.3040    5.2500   11.0710 C.2     7  LYS7        0.2592
      4  O         59.0940    6.1290   10.7110 O.2     7  LYS7       -0.2718
      5  CB        57.1810    4.5850    8.9390 C.3     7  LYS7        0.0285
      6  CG        57.7490    4.1780    7.5880 C.3     7  LYS7        0.0035
      7  CD        56.8380    3.1910    6.8820 C.3     7  LYS7        0.0206
      8  CE        57.6270    2.2720    5.9630 C.3     7  LYS7        0.1093
      9  NZ        56.8680    1.9450    4.7230 N.3     7  LYS7       -0.1314
     10  N         57.7020    5.2710   12.2600 N.am    8  ASN8       -0.1974
     11  CA        57.9330    6.3270   13.2320 C.3     8  ASN8        0.1688
     12  C         58.6700    5.8560   14.4770 C.2     8  ASN8        0.2292
     13  O         59.0250    6.6910   15.3160 O.2     8  ASN8       -0.2864
     14  CB        56.6000    6.9680   13.6490 C.3     8  ASN8        0.1181
     15  CG        55.8670    7.5940   12.4810 C.2     8  ASN8        0.2629
     16  OD1       56.3400    8.5610   11.8840 O.2     8  ASN8       -0.2716
     17  ND2       54.7050    7.0450   12.1470 N.am    8  ASN8       -0.0877
     18  N         49.0620    7.6000   15.6880 N.3    31  TYR31      -0.1241
     19  CA        49.1490    7.7120   14.2410 C.3    31  TYR31       0.1605
     20  C         49.0980    9.1490   13.7420 C.2    31  TYR31       0.2264
     21  O         49.1220    9.3620   12.5250 O.2    31  TYR31      -0.2867
     22  CB        48.0340    6.8960   13.5650 C.3    31  TYR31       0.0534
     23  CG        46.6220    7.3990   13.8020 C.ar   31  TYR31      -0.0201
     24  CD1       46.0480    8.3420   12.9580 C.ar   31  TYR31      -0.0009
     25  CD2       45.8550    6.9100   14.8520 C.ar   31  TYR31      -0.0009
     26  CE1       44.7590    8.7970   13.1630 C.ar   31  TYR31       0.0417
     27  CE2       44.5610    7.3580   15.0640 C.ar   31  TYR31       0.0417
     28  CZ        44.0190    8.3030   14.2150 C.ar   31  TYR31       0.1957
     29  OH        42.7340    8.7590   14.4160 O.3    31  TYR31      -0.2866
     30  N         50.6280   14.6230   10.2190 N.3    46  PRO46      -0.2102
     31  CA        51.3970   13.3730   10.2260 C.3    46  PRO46       0.1504
     32  C         52.4800   13.3950   11.2950 C.2    46  PRO46       0.2575
     33  O         53.0420   14.4420   11.6240 O.2    46  PRO46      -0.2718
     34  CB        51.9990   13.3130    8.8170 C.3    46  PRO46       0.0282
     35  CG        51.9840   14.7270    8.3330 C.3    46  PRO46       0.0208
     36  CD        50.7720   15.3570    8.9510 C.3    46  PRO46       0.0893
     37  N         52.7640   12.2160   11.8400 N.am   47  LEU47      -0.1980
     38  CA        53.7320   12.0860   12.9160 C.3    47  LEU47       0.1596
     39  C         55.1590   12.1660   12.3840 C.2    47  LEU47       0.2287
     40  O         55.4320   11.9140   11.2070 O.2    47  LEU47      -0.2864
     41  CB        53.5470   10.7600   13.6550 C.3    47  LEU47       0.0297
     42  CG        52.5270   10.7020   14.7890 C.3    47  LEU47       0.0022
     43  CD1       52.3740    9.2710   15.2810 C.3    47  LEU47       0.0001
     44  CD2       52.9340   11.6260   15.9250 C.3    47  LEU47       0.0001
     45  N         43.9000    9.1410    7.9050 N.3   171  LEU171     -0.1245
     46  CA        45.3190    9.0630    8.2380 C.3   171  LEU171      0.1561
     47  C         45.6480    7.7430    8.9250 C.2   171  LEU171      0.2260
     48  O         46.7280    7.1800    8.7130 O.2   171  LEU171     -0.2867
     49  CB        45.7260   10.2480    9.1140 C.3   171  LEU171      0.0270
     50  CG        47.2360   10.4700    9.2570 C.3   171  LEU171      0.0019
     51  CD1       47.8810   10.7070    7.8990 C.3   171  LEU171      0.0001
     52  CD2       47.5320   11.6270   10.1970 C.3   171  LEU171      0.0001
     53  N         46.0970    5.5630    6.2520 N.3   174  LYS174     -0.1231
     54  CA        47.4210    5.7830    5.6780 C.3   174  LYS174      0.1693
     55  C         48.4960    5.0800    6.4980 C.2   174  LYS174      0.2592
     56  O         49.4510    4.5290    5.9400 O.2   174  LYS174     -0.2718
     57  CB        47.7070    7.2820    5.5830 C.3   174  LYS174      0.0285
     58  CG        49.0560    7.6260    4.9720 C.3   174  LYS174      0.0035
     59  CD        49.0190    7.5260    3.4560 C.3   174  LYS174      0.0206
     60  CE        50.4220    7.4500    2.8760 C.3   174  LYS174      0.1093
     61  NZ        50.7390    6.0840    2.3740 N.3   174  LYS174     -0.1314
     62  N         48.3500    5.0860    7.8260 N.am  175  TRP175     -0.1976
     63  CA        49.2860    4.3670    8.6820 C.3   175  TRP175      0.1640
     64  C         49.2810    2.8760    8.3710 C.2   175  TRP175      0.2290
     65  O         50.3400    2.2350    8.3510 O.2   175  TRP175     -0.2864
     66  CB        48.9390    4.6130   10.1500 C.3   175  TRP175      0.0576
     67  CG        49.8950    3.9770   11.1120 C.ar  175  TRP175      0.0006
     68  CD1       50.9640    4.5720   11.7170 C.ar  175  TRP175      0.0946
     69  CD2       49.8680    2.6240   11.5850 C.ar  175  TRP175      0.0152
     70  NE1       51.6060    3.6720   12.5340 N.ar  175  TRP175     -0.2442
     71  CE2       50.9530    2.4690   12.4710 C.ar  175  TRP175      0.0810
     72  CE3       49.0330    1.5280   11.3430 C.ar  175  TRP175      0.0012
     73  CZ2       51.2250    1.2650   13.1160 C.ar  175  TRP175      0.0191
     74  CZ3       49.3050    0.3320   11.9840 C.ar  175  TRP175      0.0001
     75  CH2       50.3910    0.2100   12.8600 C.ar  175  TRP175      0.0015
     76  N         51.2520    2.0650    5.3200 N.3   178  ASP178     -0.1225
     77  CA        52.6890    2.2260    5.4960 C.3   178  ASP178      0.1805
     78  C         53.3060    1.2180    6.4560 C.2   178  ASP178      0.2597
     79  O         54.5090    0.9570    6.3590 O.2   178  ASP178     -0.2718
     80  CB        53.0050    3.6390    6.0000 C.3   178  ASP178      0.1424
     81  CG        52.6280    4.7160    4.9980 C.2   178  ASP178      0.3668
     82  OD1       52.6840    4.4470    3.7790 O.co2 178  ASP178     -0.2456
     83  OD2       52.2780    5.8340    5.4300 O.co2 178  ASP178     -0.2456
     84  N         52.5270    0.6430    7.3770 N.am  179  ASN179     -0.1974
     85  CA        53.1050   -0.1460    8.4570 C.3   179  ASN179      0.1688
     86  C         52.5290   -1.5450    8.6330 C.2   179  ASN179      0.2292
     87  O         53.1580   -2.3540    9.3230 O.2   179  ASN179     -0.2864
     88  CB        52.9710    0.6040    9.7920 C.3   179  ASN179      0.1181
     89  CG        53.8380    1.8450    9.8500 C.2   179  ASN179      0.2629
     90  OD1       55.0650    1.7610    9.7950 O.2   179  ASN179     -0.2716
     91  ND2       53.2050    3.0070    9.9610 N.am  179  ASN179     -0.0877
@<TRIPOS>BOND
     1    61    60    1
     2    60    59    1
     3    59    58    1
     4    82    81   ar
     5     9     8    1
     6    58    57    1
     7    81    83   ar
     8    81    80    1
     9    76    77    1
    10    77    80    1
    11    77    78    1
    12    57    54    1
    13    54    53    1
    14    54    55    1
    15    56    55    2
    16     8     7    1
    17    79    78    2
    18    78    84   am
    19    55    62   am
    20     7     6    1
    21    84    85    1
    22     6     5    1
    23    62    63    1
    24    51    50    1
    25    45    46    1
    26    46    47    1
    27    46    49    1
    28    35    34    1
    29    35    36    1
    30    65    64    2
    31    64    63    1
    32    85    86    1
    33    85    88    1
    34    86    87    2
    35    63    66    1
    36    48    47    2
    37    34    31    1
    38     5     2    1
    39    36    30    1
    40    49    50    1
    41    50    52    1
    42    88    89    1
    43    90    89    2
    44    89    91   am
    45     2     1    1
    46     2     3    1
    47    66    67    1
    48    30    31    1
    49    31    32    1
    50     4     3    2
    51     3    10   am
    52    67    69   ar
    53    67    68   ar
    54    40    39    2
    55    32    33    2
    56    32    37   am
    57    72    69   ar
    58    72    74   ar
    59    69    71   ar
    60    68    70   ar
    61    37    38    1
    62    16    15    2
    63    74    75   ar
    64    17    15   am
    65    10    11    1
    66    39    38    1
    67    71    70   ar
    68    71    73   ar
    69    15    14    1
    70    21    20    2
    71    75    73   ar
    72    38    41    1
    73    24    26   ar
    74    24    23   ar
    75    26    28   ar
    76    11    14    1
    77    11    12    1
    78    22    23    1
    79    22    19    1
    80    41    42    1
    81    20    19    1
    82    23    25   ar
    83    28    29    1
    84    28    27   ar
    85    19    18    1
    86    12    13    2
    87    42    43    1
    88    42    44    1
    89    25    27   ar
