@<TRIPOS>MOLECULE
tmp/6emmA02.pdb
 100 96 0 0 0
SMALL
GASTEIGER

@<TRIPOS>ATOM
      1  N         11.9430  121.5230   45.3220 N.3    90  HIS90      -0.1241
      2  CA        12.5350  122.7140   45.9290 C.3    90  HIS90       0.1621
      3  C         13.6660  123.1920   45.0350 C.2    90  HIS90       0.2264
      4  O         14.6650  122.4670   44.8720 O.2    90  HIS90      -0.2867
      5  CB        13.0540  122.4310   47.3410 C.3    90  HIS90       0.0745
      6  CG        13.3460  123.6670   48.1390 C.ar   90  HIS90       0.0817
      7  ND1       14.1190  124.6990   47.6550 N.ar   90  HIS90      -0.2268
      8  CD2       12.9790  124.0330   49.3930 C.ar   90  HIS90       0.1154
      9  CE1       14.2130  125.6510   48.5700 C.ar   90  HIS90       0.1986
     10  NE2       13.5360  125.2680   49.6370 N.ar   90  HIS90      -0.2212
     11  N          5.2710  121.9630   54.1220 N.3   138  SER138     -0.1217
     12  CA         6.6050  122.1630   54.6710 C.3   138  SER138      0.1889
     13  C          6.5320  123.1820   55.7960 C.2   138  SER138      0.2288
     14  O          5.7030  124.0920   55.7640 O.2   138  SER138     -0.2866
     15  CB         7.5910  122.6500   53.6090 C.3   138  SER138      0.2089
     16  OG         8.6970  123.2560   54.2450 O.3   138  SER138     -0.2183
     17  N          8.4980  125.5660   56.1820 N.3   140  VAL140     -0.1245
     18  CA         8.8320  126.9160   55.7300 C.3   140  VAL140      0.1561
     19  C          7.5990  127.6220   55.2110 C.2   140  VAL140      0.2260
     20  O          7.6040  128.8500   55.0810 O.2   140  VAL140     -0.2867
     21  CB         9.9460  126.9360   54.6560 C.3   140  VAL140      0.0252
     22  CG1       11.1670  126.1460   55.1140 C.3   140  VAL140      0.0019
     23  CG2        9.4390  126.4190   53.3260 C.3   140  VAL140      0.0019
     24  N         11.4890  130.9480   54.7190 N.3   145  GLN145     -0.1245
     25  CA        12.8240  130.4290   54.4480 C.3   145  GLN145      0.1566
     26  C         13.5580  131.4280   53.5580 C.2   145  GLN145      0.2260
     27  O         12.9510  132.0610   52.6890 O.2   145  GLN145     -0.2867
     28  CB        12.7540  129.0550   53.7670 C.3   145  GLN145      0.0367
     29  CG        14.0870  128.4620   53.3440 C.3   145  GLN145      0.0905
     30  CD        13.9220  127.1620   52.5710 C.2   145  GLN145      0.2608
     31  OE1       12.9980  126.9980   51.7730 O.2   145  GLN145     -0.2717
     32  NE2       14.8110  126.2290   52.8160 N.am  145  GLN145     -0.0878
     33  N          9.1750  128.7400   46.3460 N.3   151  TYR151     -0.1241
     34  CA         8.8980  127.4980   47.0550 C.3   151  TYR151      0.1605
     35  C          8.0530  127.7570   48.2880 C.2   151  TYR151      0.2264
     36  O          7.0390  127.0850   48.5100 O.2   151  TYR151     -0.2867
     37  CB        10.2010  126.8060   47.4500 C.3   151  TYR151      0.0534
     38  CG         9.9810  125.5870   48.3210 C.ar  151  TYR151     -0.0201
     39  CD1        9.6680  124.3550   47.7610 C.ar  151  TYR151     -0.0009
     40  CD2       10.0830  125.6650   49.7090 C.ar  151  TYR151     -0.0009
     41  CE1        9.4720  123.2410   48.5600 C.ar  151  TYR151      0.0417
     42  CE2        9.8780  124.5540   50.5070 C.ar  151  TYR151      0.0417
     43  CZ         9.5870  123.3460   49.9280 C.ar  151  TYR151      0.1957
     44  OH         9.4050  122.2340   50.7290 O.3   151  TYR151     -0.2866
     45  N          6.8600  118.7770   57.0970 N.3   181  PRO181     -0.2102
     46  CA         8.1760  118.3250   57.5470 C.3   181  PRO181      0.1504
     47  C          9.1420  119.4920   57.5990 C.2   181  PRO181      0.2576
     48  O          9.0800  120.4060   56.7760 O.2   181  PRO181     -0.2718
     49  CB         8.5840  117.2770   56.5020 C.3   181  PRO181      0.0282
     50  CG         7.7040  117.4830   55.3350 C.3   181  PRO181      0.0208
     51  CD         6.4760  118.2200   55.7860 C.3   181  PRO181      0.0893
     52  N         10.0030  119.4810   58.6130 N.am  182  GLY182     -0.1943
     53  CA        11.1830  120.3190   58.5950 C.3   182  GLY182      0.2014
     54  C         12.2560  119.7190   57.7040 C.2   182  GLY182      0.2638
     55  O         11.9500  119.2760   56.5970 O.2   182  GLY182     -0.2714
     56  N         13.5090  119.7010   58.1580 N.am  183  ASN183     -0.1972
     57  CA        14.6280  119.1720   57.3710 C.3   183  ASN183      0.1688
     58  C         14.6120  117.6450   57.3960 C.2   183  ASN183      0.2292
     59  O         14.8930  117.0320   58.4330 O.2   183  ASN183     -0.2864
     60  CB        15.9480  119.7020   57.9220 C.3   183  ASN183      0.1181
     61  CG        16.1800  121.1400   57.5500 C.2   183  ASN183      0.2629
     62  OD1       16.1610  121.4840   56.3710 O.2   183  ASN183     -0.2716
     63  ND2       16.3440  122.0040   58.5500 N.am  183  ASN183     -0.0877
     64  N         16.8920  113.4950   52.4180 N.3   186  THR186     -0.1218
     65  CA        16.3820  112.8550   51.2080 C.3   186  THR186      0.1862
     66  C         17.3200  113.1140   50.0400 C.2   186  THR186      0.2287
     67  O         18.1920  113.9860   50.1380 O.2   186  THR186     -0.2866
     68  CB        15.0180  113.4110   50.8280 C.3   186  THR186      0.1770
     69  OG1       15.1580  114.8190   50.6040 O.3   186  THR186     -0.2211
     70  CG2       13.9900  113.1380   51.9070 C.3   186  THR186      0.0375
     71  N         16.6710  114.8080   47.3970 N.3   188  LEU188     -0.1231
     72  CA        16.5110  116.2260   47.1080 C.3   188  LEU188      0.1693
     73  C         17.3690  117.0710   48.0370 C.2   188  LEU188      0.2592
     74  O         18.0500  118.0010   47.5860 O.2   188  LEU188     -0.2718
     75  CB        15.0450  116.6260   47.2280 C.3   188  LEU188      0.0284
     76  CG        14.8030  118.1310   47.1040 C.3   188  LEU188      0.0019
     77  CD1       15.4370  118.6940   45.8190 C.3   188  LEU188      0.0001
     78  CD2       13.3070  118.4560   47.1850 C.3   188  LEU188      0.0001
     79  N         17.3390  116.7740   49.3440 N.am  189  TRP189     -0.1976
     80  CA        18.2280  117.4860   50.2580 C.3   189  TRP189      0.1640
     81  C         19.6710  117.3060   49.8250 C.2   189  TRP189      0.2290
     82  O         20.4450  118.2730   49.7810 O.2   189  TRP189     -0.2864
     83  CB        18.0510  117.0120   51.7060 C.3   189  TRP189      0.0576
     84  CG        17.9850  118.1540   52.7290 C.ar  189  TRP189      0.0006
     85  CD1       16.8670  118.5870   53.3980 C.ar  189  TRP189      0.0946
     86  CD2       19.0660  118.9960   53.1830 C.ar  189  TRP189      0.0152
     87  NE1       17.1840  119.6470   54.2210 N.ar  189  TRP189     -0.2442
     88  CE2       18.5250  119.9120   54.1090 C.ar  189  TRP189      0.0810
     89  CE3       20.4310  119.0660   52.8920 C.ar  189  TRP189      0.0012
     90  CZ2       19.3040  120.8700   54.7510 C.ar  189  TRP189      0.0191
     91  CZ3       21.2050  120.0390   53.5240 C.ar  189  TRP189      0.0001
     92  CH2       20.6410  120.9170   54.4420 C.ar  189  TRP189      0.0015
     93  N         20.5060  119.2930   46.6120 N.3   192  LEU192     -0.1245
     94  CA        20.6350  120.7250   46.8440 C.3   192  LEU192      0.1561
     95  C         21.9250  121.0400   47.5830 C.2   192  LEU192      0.2260
     96  O         22.6350  121.9830   47.2190 O.2   192  LEU192     -0.2867
     97  CB        19.4220  121.2510   47.6010 C.3   192  LEU192      0.0270
     98  CG        18.1080  121.2750   46.8250 C.3   192  LEU192      0.0019
     99  CD1       16.9650  121.4450   47.7790 C.3   192  LEU192      0.0001
    100  CD2       18.1030  122.4020   45.8100 C.3   192  LEU192      0.0001
@<TRIPOS>BOND
     1     4     3    2
     2     3     2    1
     3     1     2    1
     4   100    98    1
     5    77    76    1
     6     2     5    1
     7    33    34    1
     8    93    94    1
     9    98    97    1
    10    98    99    1
    11    94    95    1
    12    94    97    1
    13    34    37    1
    14    34    35    1
    15    76    78    1
    16    76    75    1
    17    72    75    1
    18    72    71    1
    19    72    73    1
    20    96    95    2
    21     5     6    1
    22    37    38    1
    23    74    73    2
    24     7     6   ar
    25     7     9   ar
    26    39    38   ar
    27    39    41   ar
    28    73    79   am
    29     6     8   ar
    30    35    36    2
    31    38    40   ar
    32    41    43   ar
    33     9    10   ar
    34    79    80    1
    35     8    10   ar
    36    40    42   ar
    37    82    81    2
    38    81    80    1
    39    43    42   ar
    40    43    44    1
    41    66    67    2
    42    66    65    1
    43    80    83    1
    44    69    68    1
    45    68    65    1
    46    68    70    1
    47    65    64    1
    48    83    84    1
    49    31    30    2
    50    30    32   am
    51    30    29    1
    52    27    26    2
    53    84    86   ar
    54    84    85   ar
    55    89    86   ar
    56    89    91   ar
    57    86    88   ar
    58    23    21    1
    59    29    28    1
    60    85    87   ar
    61    91    92   ar
    62    26    25    1
    63    15    16    1
    64    15    12    1
    65    28    25    1
    66    88    87   ar
    67    88    90   ar
    68    11    12    1
    69    92    90   ar
    70    25    24    1
    71    21    22    1
    72    21    18    1
    73    12    13    1
    74    20    19    2
    75    19    18    1
    76    50    51    1
    77    50    49    1
    78    18    17    1
    79    14    13    2
    80    51    45    1
    81    62    61    2
    82    49    46    1
    83    55    54    2
    84    48    47    2
    85    45    46    1
    86    57    58    1
    87    57    60    1
    88    57    56    1
    89    58    59    2
    90    46    47    1
    91    61    60    1
    92    61    63   am
    93    47    52   am
    94    54    56   am
    95    54    53    1
    96    53    52    1
