@<TRIPOS>MOLECULE
tmp/6emuA00.pdb
 197 191 0 0 0
SMALL
GASTEIGER

@<TRIPOS>ATOM
      1  N         -2.8910  -30.5060  -10.9110 N.3    25  GLN25      -0.1245
      2  CA        -3.0970  -29.7590   -9.6750 C.3    25  GLN25       0.1566
      3  C         -4.5760  -29.5840   -9.3620 C.2    25  GLN25       0.2260
      4  O         -4.9530  -29.5280   -8.1850 O.2    25  GLN25      -0.2867
      5  CB        -2.3990  -28.4020   -9.7600 C.3    25  GLN25       0.0367
      6  CG        -0.8820  -28.5060   -9.8190 C.3    25  GLN25       0.0905
      7  CD        -0.2060  -27.1560   -9.8180 C.2    25  GLN25       0.2608
      8  OE1       -0.8180  -26.1410   -9.4870 O.2    25  GLN25      -0.2717
      9  NE2        1.0670  -27.1340  -10.1910 N.am   25  GLN25      -0.0878
     10  N         -7.2450  -15.2550   -4.0650 N.3    81  LEU81      -0.1231
     11  CA        -5.9230  -15.5880   -3.5480 C.3    81  LEU81       0.1693
     12  C         -4.8730  -15.0190   -4.4900 C.2    81  LEU81       0.2592
     13  O         -4.7130  -15.4960   -5.6170 O.2    81  LEU81      -0.2718
     14  CB        -5.7710  -17.0980   -3.3930 C.3    81  LEU81       0.0284
     15  CG        -6.3970  -17.7270   -2.1440 C.3    81  LEU81       0.0019
     16  CD1       -5.9160  -17.0190   -0.8830 C.3    81  LEU81       0.0001
     17  CD2       -7.9170  -17.7320   -2.2110 C.3    81  LEU81       0.0001
     18  N         -4.1690  -13.9920   -4.0340 N.am   82  ASP82      -0.1960
     19  CA        -3.2200  -13.2620   -4.8600 C.3    82  ASP82       0.1825
     20  C         -1.9440  -13.0050   -4.0700 C.2    82  ASP82       0.2464
     21  O         -1.9710  -12.2800   -3.0680 O.2    82  ASP82      -0.2730
     22  CB        -3.8400  -11.9460   -5.3350 C.3    82  ASP82       0.1450
     23  CG        -2.8830  -11.1040   -6.1600 C.2    82  ASP82       0.3671
     24  OD1       -1.8780  -11.6440   -6.6680 O.co2  82  ASP82      -0.2456
     25  OD2       -3.1400   -9.8900   -6.2970 O.co2  82  ASP82      -0.2456
     26  N         -0.8110  -13.5740   -4.4880 N.am   83  PRO83      -0.2715
     27  CA         0.4430  -13.3260   -3.7590 C.3    83  PRO83       0.1536
     28  C          0.8900  -11.8760   -3.8100 C.2    83  PRO83       0.2598
     29  O          1.6980  -11.4620   -2.9700 O.2    83  PRO83      -0.2715
     30  CB         1.4460  -14.2490   -4.4650 C.3    83  PRO83       0.0310
     31  CG         0.8950  -14.4050   -5.8460 C.3    83  PRO83       0.0237
     32  CD        -0.6030  -14.4080   -5.6850 C.3    83  PRO83       0.0939
     33  N          0.3870  -11.0920   -4.7630 N.am   84  TRP84      -0.1974
     34  CA         0.7580   -9.6910   -4.8990 C.3    84  TRP84       0.1640
     35  C         -0.1190   -8.7590   -4.0770 C.2    84  TRP84       0.2290
     36  O          0.1570   -7.5540   -4.0300 O.2    84  TRP84      -0.2864
     37  CB         0.7030   -9.2760   -6.3730 C.3    84  TRP84       0.0576
     38  CG         1.5660  -10.1320   -7.2420 C.ar   84  TRP84       0.0006
     39  CD1        1.1740  -11.2110   -7.9780 C.ar   84  TRP84       0.0946
     40  CD2        2.9760   -9.9960   -7.4470 C.ar   84  TRP84       0.0152
     41  NE1        2.2530  -11.7500   -8.6380 N.ar   84  TRP84      -0.2442
     42  CE2        3.3710  -11.0210   -8.3270 C.ar   84  TRP84       0.0810
     43  CE3        3.9420   -9.1020   -6.9750 C.ar   84  TRP84       0.0012
     44  CZ2        4.6910  -11.1770   -8.7460 C.ar   84  TRP84       0.0191
     45  CZ3        5.2500   -9.2590   -7.3910 C.ar   84  TRP84       0.0001
     46  CH2        5.6130  -10.2860   -8.2670 C.ar   84  TRP84       0.0015
     47  N         -8.7680  -19.2990   -6.8400 N.3   101  ILE101     -0.1231
     48  CA        -7.3560  -19.5910   -7.0450 C.3   101  ILE101      0.1692
     49  C         -7.1110  -19.6450   -8.5460 C.2   101  ILE101      0.2592
     50  O         -7.8550  -20.3120   -9.2750 O.2   101  ILE101     -0.2718
     51  CB        -6.9480  -20.9150   -6.3720 C.3   101  ILE101      0.0266
     52  CG1       -7.3090  -20.8920   -4.8830 C.3   101  ILE101      0.0019
     53  CG2       -5.4610  -21.1690   -6.5570 C.3   101  ILE101      0.0020
     54  CD1       -7.2040  -22.2370   -4.1990 C.3   101  ILE101      0.0001
     55  N         -6.0820  -18.9370   -9.0090 N.am  102  GLY102     -0.1957
     56  CA        -5.8210  -18.8580  -10.4380 C.3   102  GLY102      0.1869
     57  C         -5.2230  -20.1460  -10.9750 C.2   102  GLY102      0.2309
     58  O         -4.2790  -20.6960  -10.3980 O.2   102  GLY102     -0.2863
     59  N         -2.8760  -21.1940  -12.7670 N.3   104  ILE104     -0.1231
     60  CA        -1.6430  -20.6320  -13.3010 C.3   104  ILE104      0.1692
     61  C         -0.4700  -21.4890  -12.8470 C.2   104  ILE104      0.2592
     62  O         -0.4250  -21.9380  -11.6970 O.2   104  ILE104     -0.2718
     63  CB        -1.4490  -19.1690  -12.8420 C.3   104  ILE104      0.0266
     64  CG1       -2.6880  -18.3260  -13.1660 C.3   104  ILE104      0.0019
     65  CG2       -0.2150  -18.5670  -13.4850 C.3   104  ILE104      0.0020
     66  CD1       -2.7090  -16.9790  -12.4730 C.3   104  ILE104      0.0001
     67  N          0.4760  -21.7200  -13.7540 N.am  105  VAL105     -0.1966
     68  CA         1.7250  -22.4010  -13.4390 C.3   105  VAL105      0.1727
     69  C          2.8740  -21.6080  -14.0420 C.2   105  VAL105      0.2616
     70  O          2.7620  -21.0740  -15.1520 O.2   105  VAL105     -0.2715
     71  CB         1.7370  -23.8570  -13.9500 C.3   105  VAL105      0.0290
     72  CG1        0.8570  -24.7330  -13.0710 C.3   105  VAL105      0.0023
     73  CG2        1.2850  -23.9190  -15.4030 C.3   105  VAL105      0.0023
     74  N          3.9770  -21.5270  -13.3080 N.am  106  ASP106     -0.1971
     75  CA         5.1430  -20.7650  -13.7260 C.3   106  ASP106      0.1709
     76  C          6.1820  -21.6820  -14.3590 C.2   106  ASP106      0.2293
     77  O          6.2770  -22.8670  -14.0280 O.2   106  ASP106     -0.2864
     78  CB         5.7580  -20.0230  -12.5390 C.3   106  ASP106      0.1436
     79  CG         4.7870  -19.0560  -11.8880 C.2   106  ASP106      0.3671
     80  OD1        4.3880  -18.0750  -12.5500 O.co2 106  ASP106     -0.2456
     81  OD2        4.4120  -19.2860  -10.7180 O.co2 106  ASP106     -0.2456
     82  N          8.2150  -15.7630  -12.9710 N.3   109  LYS109     -0.1231
     83  CA         7.0300  -15.6670  -12.1270 C.3   109  LYS109      0.1693
     84  C          5.9440  -14.8370  -12.8000 C.2   109  LYS109      0.2591
     85  O          4.8840  -15.3640  -13.1550 O.2   109  LYS109     -0.2718
     86  CB         7.3860  -15.0590  -10.7690 C.3   109  LYS109      0.0285
     87  CG         7.9750  -16.0380   -9.7670 C.3   109  LYS109      0.0035
     88  CD         6.9740  -16.3550   -8.6650 C.3   109  LYS109      0.0206
     89  CE         7.6450  -17.0190   -7.4730 C.3   109  LYS109      0.1093
     90  NZ         8.2590  -18.3290   -7.8260 N.3   109  LYS109     -0.1314
     91  N          6.2060  -13.5360  -12.9600 N.am  110  LYS110     -0.1980
     92  CA         5.2890  -12.5750  -13.5700 C.3   110  LYS110      0.1596
     93  C          4.0610  -12.3190  -12.7010 C.2   110  LYS110      0.2287
     94  O          3.6590  -13.1670  -11.8980 O.2   110  LYS110     -0.2864
     95  CB         4.8660  -13.0330  -14.9690 C.3   110  LYS110      0.0298
     96  CG         6.0040  -13.1840  -15.9540 C.3   110  LYS110      0.0038
     97  CD         6.7290  -11.8660  -16.1430 C.3   110  LYS110      0.0206
     98  CE         7.6010  -11.8980  -17.3870 C.3   110  LYS110      0.1093
     99  NZ         8.4650  -13.1100  -17.3680 N.3   110  LYS110     -0.1314
    100  N          0.5280  -12.2130  -12.6260 N.3   112  THR112     -0.1203
    101  CA        -0.5810  -12.7290  -13.4240 C.3   112  THR112      0.1994
    102  C         -1.9190  -12.7230  -12.6920 C.2   112  THR112      0.2618
    103  O         -2.9450  -12.3900  -13.2930 O.2   112  THR112     -0.2717
    104  CB        -0.2770  -14.1580  -13.8870 C.3   112  THR112      0.1784
    105  OG1        1.1080  -14.2650  -14.2360 O.3   112  THR112     -0.2211
    106  CG2       -1.1280  -14.5190  -15.0950 C.3   112  THR112      0.0376
    107  N         -1.9300  -13.0850  -11.4090 N.am  113  THR113     -0.1952
    108  CA        -3.1900  -13.2370  -10.6820 C.3   113  THR113      0.1897
    109  C         -4.0110  -11.9530  -10.5690 C.2   113  THR113      0.2313
    110  O         -5.2360  -12.0240  -10.7730 O.2   113  THR113     -0.2863
    111  CB        -2.9120  -13.8200   -9.2870 C.3   113  THR113      0.1794
    112  OG1       -2.2300  -15.0730   -9.4210 O.3   113  THR113     -0.2208
    113  CG2       -4.2090  -14.0380   -8.5190 C.3   113  THR113      0.0378
    114  N         -6.3310  -11.1960   -1.3940 N.3   130  ARG130     -0.1231
    115  CA        -5.7550  -11.6500   -0.1350 C.3   130  ARG130      0.1694
    116  C         -4.5410  -12.5240   -0.4050 C.2   130  ARG130      0.2592
    117  O         -4.6160  -13.4700   -1.1960 O.2   130  ARG130     -0.2718
    118  CB        -6.7850  -12.4230    0.6960 C.3   130  ARG130      0.0321
    119  CG        -7.9650  -11.5880    1.1640 C.3   130  ARG130      0.0489
    120  CD        -7.5120  -10.4510    2.0660 C.3   130  ARG130      0.2205
    121  NE        -8.6380   -9.6860    2.5940 N.pl3 130  ARG130     -0.0865
    122  CZ        -9.1350   -8.5950    2.0200 C.cat 130  ARG130      0.5346
    123  NH1       -8.6070   -8.1350    0.8940 N.pl3 130  ARG130      0.1354
    124  NH2      -10.1610   -7.9640    2.5720 N.pl3 130  ARG130      0.1354
    125  N         -3.4310  -12.2110    0.2540 N.am  131  LYS131     -0.1966
    126  CA        -2.2160  -12.9990    0.1300 C.3   131  LYS131      0.1728
    127  C         -2.0220  -13.8760    1.3610 C.2   131  LYS131      0.2616
    128  O         -2.4260  -13.5270    2.4730 O.2   131  LYS131     -0.2715
    129  CB        -0.9900  -12.1030   -0.0690 C.3   131  LYS131      0.0311
    130  CG        -0.6400  -11.2260    1.1210 C.3   131  LYS131      0.0038
    131  CD         0.7420  -10.6140    0.9570 C.3   131  LYS131      0.0206
    132  CE         1.0150   -9.5730    2.0300 C.3   131  LYS131      0.1093
    133  NZ         2.3370   -8.9130    1.8430 N.3   131  LYS131     -0.1314
    134  N         -1.4070  -15.0320    1.1420 N.am  132  ILE132     -0.1977
    135  CA        -1.0250  -15.9500    2.2050 C.3   132  ILE132      0.1596
    136  C          0.4660  -15.7810    2.4480 C.2   132  ILE132      0.2287
    137  O          1.2620  -15.8040    1.4990 O.2   132  ILE132     -0.2864
    138  CB        -1.3670  -17.4040    1.8370 C.3   132  ILE132      0.0276
    139  CG1       -2.8810  -17.5800    1.7020 C.3   132  ILE132      0.0022
    140  CG2       -0.8040  -18.3630    2.8680 C.3   132  ILE132      0.0022
    141  CD1       -3.2920  -18.9220    1.1320 C.3   132  ILE132      0.0001
    142  N          5.8060  -13.8990    1.6210 N.3   138  VAL138     -0.1245
    143  CA         5.2820  -14.9220    0.7210 C.3   138  VAL138      0.1561
    144  C          6.3130  -16.0060    0.4390 C.2   138  VAL138      0.2260
    145  O          5.9440  -17.1050    0.0070 O.2   138  VAL138     -0.2867
    146  CB         4.7940  -14.3050   -0.6010 C.3   138  VAL138      0.0252
    147  CG1        3.5830  -13.4100   -0.3600 C.3   138  VAL138      0.0019
    148  CG2        5.9160  -13.5320   -1.2770 C.3   138  VAL138      0.0019
    149  N          5.8840  -19.9730    1.1700 N.3   141  VAL141     -0.1231
    150  CA         4.5140  -20.4190    0.9300 C.3   141  VAL141      0.1678
    151  C          4.4750  -21.1880   -0.3850 C.2   141  VAL141      0.2434
    152  O          4.8190  -20.6270   -1.4370 O.2   141  VAL141     -0.2733
    153  CB         3.5320  -19.2370    0.9040 C.3   141  VAL141      0.0265
    154  CG1        2.1140  -19.7280    0.6360 C.3   141  VAL141      0.0020
    155  CG2        3.6010  -18.4600    2.2060 C.3   141  VAL141      0.0020
    156  N          4.0810  -22.4620   -0.3800 N.am  142  PRO142     -0.2718
    157  CA         3.9490  -23.1900   -1.6480 C.3   142  PRO142      0.1535
    158  C          2.8410  -22.5860   -2.4950 C.2   142  PRO142      0.2599
    159  O          1.7570  -22.2780   -1.9980 O.2   142  PRO142     -0.2715
    160  CB         3.6110  -24.6190   -1.2070 C.3   142  PRO142      0.0310
    161  CG         3.0000  -24.4650    0.1490 C.3   142  PRO142      0.0237
    162  CD         3.7030  -23.2880    0.7800 C.3   142  PRO142      0.0939
    163  N          3.1200  -22.4080   -3.7860 N.am  143  ASP143     -0.1958
    164  CA         2.1840  -21.7340   -4.6740 C.3   143  ASP143      0.1840
    165  C          1.4150  -22.6860   -5.5790 C.2   143  ASP143      0.2622
    166  O          0.6300  -22.2230   -6.4120 O.2   143  ASP143     -0.2715
    167  CB         2.9140  -20.6810   -5.5170 C.3   143  ASP143      0.1450
    168  CG         4.0660  -21.2590   -6.3130 C.2   143  ASP143      0.3671
    169  OD1        4.3800  -22.4550   -6.1410 O.co2 143  ASP143     -0.2456
    170  OD2        4.6600  -20.5070   -7.1130 O.co2 143  ASP143     -0.2456
    171  N          1.6080  -23.9960   -5.4360 N.am  144  ARG144     -0.1963
    172  CA         0.7780  -24.9420   -6.1690 C.3   144  ARG144      0.1729
    173  C         -0.6850  -24.7500   -5.7880 C.2   144  ARG144      0.2616
    174  O         -1.0080  -24.4240   -4.6420 O.2   144  ARG144     -0.2715
    175  CB         1.2170  -26.3800   -5.8820 C.3   144  ARG144      0.0348
    176  CG         2.5760  -26.7510   -6.4610 C.3   144  ARG144      0.0492
    177  CD         2.9280  -28.2040   -6.1570 C.3   144  ARG144      0.2205
    178  NE         2.0870  -29.1430   -6.8960 N.pl3 144  ARG144     -0.0865
    179  CZ         2.4200  -29.6760   -8.0670 C.cat 144  ARG144      0.5346
    180  NH1        3.5770  -29.3620   -8.6340 N.pl3 144  ARG144      0.1354
    181  NH2        1.5980  -30.5210   -8.6730 N.pl3 144  ARG144      0.1354
    182  N         -1.5700  -24.9390   -6.7710 N.am  145  ILE145     -0.1977
    183  CA        -3.0010  -24.7180   -6.5600 C.3   145  ILE145      0.1596
    184  C         -3.5050  -25.5670   -5.4010 C.2   145  ILE145      0.2287
    185  O         -4.1940  -25.0760   -4.4980 O.2   145  ILE145     -0.2864
    186  CB        -3.7830  -25.0110   -7.8550 C.3   145  ILE145      0.0276
    187  CG1       -3.3110  -24.0970   -8.9880 C.3   145  ILE145      0.0022
    188  CG2       -5.2780  -24.8520   -7.6300 C.3   145  ILE145      0.0022
    189  CD1       -3.7920  -24.5340  -10.3720 C.3   145  ILE145      0.0001
    190  N         -2.1510  -24.2700   -1.9820 N.3   148  ILE148     -0.1245
    191  CA        -2.8820  -23.0880   -1.5270 C.3   148  ILE148      0.1561
    192  C         -4.2330  -23.4950   -0.9550 C.2   148  ILE148      0.2260
    193  O         -4.6500  -23.0170    0.1070 O.2   148  ILE148     -0.2867
    194  CB        -3.0460  -22.0780   -2.6770 C.3   148  ILE148      0.0252
    195  CG1       -1.6890  -21.5180   -3.1090 C.3   148  ILE148      0.0019
    196  CG2       -3.9870  -20.9510   -2.2640 C.3   148  ILE148      0.0019
    197  CD1       -1.0260  -20.6540   -2.0590 C.3   148  ILE148      0.0001
@<TRIPOS>BOND
     1    98    99    1
     2    98    97    1
     3    97    96    1
     4    96    95    1
     5    73    71    1
     6    70    69    2
     7   106   104    1
     8    95    92    1
     9    76    77    2
    10    76    75    1
    11   105   104    1
    12    69    68    1
    13    69    74   am
    14    71    68    1
    15    71    72    1
    16   104   101    1
    17    67    68    1
    18    67    61   am
    19    75    74    1
    20    75    78    1
    21    92    91    1
    22    92    93    1
    23    65    63    1
    24   101   102    1
    25   101   100    1
    26    60    61    1
    27    60    63    1
    28    60    59    1
    29   103   102    2
    30    64    63    1
    31    64    66    1
    32    85    84    2
    33    82    83    1
    34    91    84   am
    35    61    62    2
    36    84    83    1
    37    93    94    2
    38   102   107   am
    39    80    79   ar
    40    78    79    1
    41    83    86    1
    42    79    81   ar
    43   107   108    1
    44    57    56    1
    45    57    58    2
    46     1     2    1
    47   110   109    2
    48    86    87    1
    49   108   109    1
    50   108   111    1
    51    56    55    1
    52   189   187    1
    53     9     7   am
    54     6     7    1
    55     6     5    1
    56     7     8    2
    57    87    88    1
    58     5     2    1
    59     2     3    1
    60   112   111    1
    61     3     4    2
    62   111   113    1
    63    50    49    2
    64    55    49   am
    65   187   186    1
    66    44    42   ar
    67    44    46   ar
    68   181   179    1
    69    88    89    1
    70    41    42   ar
    71    41    39   ar
    72   180   179    1
    73    49    48    1
    74    42    40   ar
    75    46    45   ar
    76   179   178    2
    77    39    38   ar
    78   186   188    1
    79   186   183    1
    80    90    89    1
    81    40    38   ar
    82    40    43   ar
    83    45    43   ar
    84    38    37    1
    85   170   168   ar
    86    48    47    1
    87    48    51    1
    88   178   177    1
    89   182   183    1
    90   182   173   am
    91    24    23   ar
    92   183   184    1
    93    53    51    1
    94   176   177    1
    95   176   175    1
    96   166   165    2
    97    37    34    1
    98    51    52    1
    99   168   169   ar
   100   168   167    1
   101    25    23   ar
   102   172   175    1
   103   172   173    1
   104   172   171    1
   105    23    22    1
   106    31    32    1
   107    31    30    1
   108   173   174    2
   109    32    26    1
   110    13    12    2
   111   165   171   am
   112   165   164    1
   113   167   164    1
   114   184   185    2
   115    22    19    1
   116    34    33    1
   117    34    35    1
   118    52    54    1
   119    19    20    1
   120    19    18    1
   121    33    28   am
   122   164   163    1
   123    12    18   am
   124    12    11    1
   125    26    20   am
   126    26    27    1
   127    30    27    1
   128    35    36    2
   129    20    21    2
   130    10    11    1
   131    28    27    1
   132    28    29    2
   133   163   158   am
   134    11    14    1
   135    14    15    1
   136   195   194    1
   137   195   197    1
   138   194   196    1
   139   194   191    1
   140   158   159    2
   141   158   157    1
   142    17    15    1
   143    15    16    1
   144   190   191    1
   145   157   160    1
   146   157   156    1
   147   191   192    1
   148   152   151    2
   149   114   115    1
   150   148   146    1
   151   160   161    1
   152   117   116    2
   153   192   193    2
   154   146   147    1
   155   146   143    1
   156   116   115    1
   157   116   125   am
   158   151   156   am
   159   151   150    1
   160   156   162    1
   161   115   118    1
   162   129   126    1
   163   129   130    1
   164   145   144    2
   165   126   125    1
   166   126   127    1
   167   161   162    1
   168   144   143    1
   169   154   153    1
   170   118   119    1
   171   143   142    1
   172   123   122    1
   173   153   150    1
   174   153   155    1
   175   150   149    1
   176   131   130    1
   177   131   132    1
   178   141   139    1
   179   134   127   am
   180   134   135    1
   181   119   120    1
   182   127   128    2
   183   137   136    2
   184   139   138    1
   185   138   135    1
   186   138   140    1
   187   133   132    1
   188   122   124    1
   189   122   121    2
   190   120   121    1
   191   135   136    1
