@<TRIPOS>MOLECULE
tmp/6en3A01.pdb
 116 115 0 0 0
SMALL
GASTEIGER

@<TRIPOS>ATOM
      1  N         76.2450  146.4000  275.5500 N.3    72  ARG72      -0.1245
      2  CA        74.9030  145.9450  275.8910 C.3    72  ARG72       0.1563
      3  C         74.8010  145.8150  277.4060 C.2    72  ARG72       0.2260
      4  O         75.4820  144.9840  278.0170 O.2    72  ARG72      -0.2867
      5  CB        74.6060  144.6340  275.1690 C.3    72  ARG72       0.0307
      6  CG        74.7240  144.7800  273.6540 C.3    72  ARG72       0.0489
      7  CD        74.4990  143.4820  272.9010 C.3    72  ARG72       0.2205
      8  NE        75.4610  142.4520  273.2720 N.pl3  72  ARG72      -0.0865
      9  CZ        75.2300  141.1490  273.1630 C.cat  72  ARG72       0.5346
     10  NH1       74.0900  140.7260  272.6390 N.pl3  72  ARG72       0.1354
     11  NH2       76.1550  140.2730  273.5270 N.pl3  72  ARG72       0.1354
     12  N         73.0150  144.4770  279.5250 N.3    74  TRP74      -0.1241
     13  CA        72.7020  143.2210  280.1920 C.3    74  TRP74       0.1605
     14  C         73.8770  142.2500  280.2090 C.2    74  TRP74       0.2264
     15  O         73.7440  141.1520  280.7610 O.2    74  TRP74      -0.2867
     16  CB        71.4660  142.5680  279.5520 C.3    74  TRP74       0.0550
     17  CG        71.5980  142.1820  278.1070 C.ar   74  TRP74       0.0003
     18  CD1       71.8540  140.9360  277.6170 C.ar   74  TRP74       0.0946
     19  CD2       71.4540  143.0390  276.9640 C.ar   74  TRP74       0.0152
     20  NE1       71.8890  140.9640  276.2440 N.ar   74  TRP74      -0.2442
     21  CE2       71.6480  142.2430  275.8190 C.ar   74  TRP74       0.0810
     22  CE3       71.1880  144.4020  276.7990 C.ar   74  TRP74       0.0012
     23  CZ2       71.5850  142.7640  274.5280 C.ar   74  TRP74       0.0191
     24  CZ3       71.1270  144.9170  275.5180 C.ar   74  TRP74       0.0001
     25  CH2       71.3240  144.0990  274.3990 C.ar   74  TRP74       0.0015
     26  N         73.9940  150.9510  275.5810 N.3   103  PHE103     -0.1227
     27  CA        72.8860  150.4320  274.7920 C.3   103  PHE103      0.1736
     28  C         72.0120  149.6090  275.7270 C.2   103  PHE103      0.2595
     29  O         72.3770  148.4930  276.1100 O.2   103  PHE103     -0.2718
     30  CB        73.3670  149.6070  273.6070 C.3   103  PHE103      0.0547
     31  CG        72.2760  149.2790  272.6590 C.ar  103  PHE103     -0.0202
     32  CD1       71.8250  150.2470  271.7820 C.ar  103  PHE103     -0.0042
     33  CD2       71.6710  148.0390  272.6590 C.ar  103  PHE103     -0.0042
     34  CE1       70.8050  149.9850  270.9130 C.ar  103  PHE103     -0.0003
     35  CE2       70.6470  147.7660  271.7810 C.ar  103  PHE103     -0.0003
     36  CZ        70.2160  148.7420  270.9040 C.ar  103  PHE103     -0.0000
     37  N         70.8590  150.1620  276.0850 N.am  104  HIS104     -0.1961
     38  CA        70.0780  149.6650  277.2050 C.3   104  HIS104      0.1787
     39  C         68.9950  148.7020  276.7430 C.2   104  HIS104      0.2620
     40  O         68.2980  148.9570  275.7550 O.2   104  HIS104     -0.2715
     41  CB        69.4440  150.8300  277.9690 C.3   104  HIS104      0.0785
     42  CG        68.3850  150.4120  278.9430 C.ar  104  HIS104      0.0821
     43  ND1       68.4980  149.2840  279.7270 N.ar  104  HIS104     -0.2267
     44  CD2       67.1940  150.9730  279.2630 C.ar  104  HIS104      0.1154
     45  CE1       67.4220  149.1670  280.4850 C.ar  104  HIS104      0.1986
     46  NE2       66.6150  150.1800  280.2230 N.ar  104  HIS104     -0.2212
     47  N         68.8730  147.5910  277.4580 N.am  105  ASP105     -0.1957
     48  CA        67.6840  146.7570  277.4320 C.3   105  ASP105      0.1840
     49  C         67.8930  145.6090  278.3990 C.2   105  ASP105      0.2622
     50  O         69.0180  145.1400  278.6100 O.2   105  ASP105     -0.2715
     51  CB        67.3490  146.2130  276.0350 C.3   105  ASP105      0.1450
     52  CG        65.9780  145.5370  275.9880 C.2   105  ASP105      0.3671
     53  OD1       65.3830  145.3130  277.0600 O.co2 105  ASP105     -0.2456
     54  OD2       65.4880  145.2220  274.8880 O.co2 105  ASP105     -0.2456
     55  N         66.7860  145.1920  278.9960 N.am  106  TRP106     -0.1974
     56  CA        66.6220  144.0030  279.8110 C.3   106  TRP106      0.1640
     57  C         67.1330  144.2450  281.2250 C.2   106  TRP106      0.2290
     58  O         66.8610  143.4330  282.1100 O.2   106  TRP106     -0.2864
     59  CB        67.3450  142.7750  279.2290 C.3   106  TRP106      0.0576
     60  CG        66.9180  142.4790  277.8380 C.ar  106  TRP106      0.0006
     61  CD1       67.5980  142.7990  276.7000 C.ar  106  TRP106      0.0946
     62  CD2       65.6880  141.8800  277.4160 C.ar  106  TRP106      0.0152
     63  NE1       66.8870  142.4020  275.5950 N.ar  106  TRP106     -0.2442
     64  CE2       65.7090  141.8380  276.0070 C.ar  106  TRP106      0.0810
     65  CE3       64.5790  141.3620  278.0900 C.ar  106  TRP106      0.0012
     66  CZ2       64.6670  141.2970  275.2630 C.ar  106  TRP106      0.0191
     67  CZ3       63.5470  140.8230  277.3480 C.ar  106  TRP106      0.0001
     68  CH2       63.5980  140.7960  275.9500 C.ar  106  TRP106      0.0015
     69  N         61.6330  156.6860  268.9070 N.3   139  ARG139     -0.1245
     70  CA        60.2960  156.8390  269.4680 C.3   139  ARG139      0.1563
     71  C         60.2790  157.5500  270.8160 C.2   139  ARG139      0.2260
     72  O         59.1950  157.9170  271.2800 O.2   139  ARG139     -0.2867
     73  CB        59.6270  155.4700  269.6030 C.3   139  ARG139      0.0307
     74  CG        60.4050  154.4740  270.4460 C.3   139  ARG139      0.0489
     75  CD        59.7380  153.1130  270.4470 C.3   139  ARG139      0.2205
     76  NE        60.6990  152.0350  270.2240 N.pl3 139  ARG139     -0.0865
     77  CZ        61.3580  151.3930  271.1840 C.cat 139  ARG139      0.5346
     78  NH1       61.1740  151.7060  272.4610 N.pl3 139  ARG139      0.1354
     79  NH2       62.2100  150.4280  270.8620 N.pl3 139  ARG139      0.1354
     80  N         62.9450  149.9780  263.1890 N.3   190  ASP190     -0.1239
     81  CA        62.5650  149.2940  264.4170 C.3   190  ASP190      0.1674
     82  C         62.2030  150.2740  265.5260 C.2   190  ASP190      0.2266
     83  O         61.4010  149.9390  266.4050 O.2   190  ASP190     -0.2867
     84  CB        63.7040  148.3800  264.8760 C.3   190  ASP190      0.1410
     85  CG        63.3020  147.4810  266.0280 C.2   190  ASP190      0.3668
     86  OD1       63.6590  147.8010  267.1840 O.co2 190  ASP190     -0.2456
     87  OD2       62.6240  146.4590  265.7780 O.co2 190  ASP190     -0.2456
     88  N         76.6810  138.3770  268.1550 N.3   302  GLU302     -0.1245
     89  CA        75.8440  138.2710  269.3370 C.3   302  GLU302      0.1567
     90  C         75.4830  136.8140  269.5940 C.2   302  GLU302      0.2260
     91  O         75.2030  136.0540  268.6620 O.2   302  GLU302     -0.2867
     92  CB        74.5740  139.0990  269.1660 C.3   302  GLU302      0.0388
     93  CG        74.7920  140.5940  269.1950 C.3   302  GLU302      0.1160
     94  CD        73.5560  141.3590  268.7720 C.2   302  GLU302      0.3649
     95  OE1       73.3090  141.4680  267.5510 O.co2 302  GLU302     -0.2457
     96  OE2       72.8230  141.8380  269.6630 O.co2 302  GLU302     -0.2457
     97  N         69.9180  138.4910  261.8430 N.3   309  ASN309     -0.1240
     98  CA        70.8440  139.1210  262.7540 C.3   309  ASN309      0.1653
     99  C         72.1960  138.4860  262.7250 C.2   309  ASN309      0.2266
    100  O         72.8690  138.4610  263.7170 O.2   309  ASN309     -0.2867
    101  CB        70.3330  139.0800  264.1680 C.3   309  ASN309      0.1155
    102  CG        70.9430  140.1440  265.0170 C.2   309  ASN309      0.2627
    103  OD1       71.5360  141.0630  264.5140 O.2   309  ASN309     -0.2716
    104  ND2       70.7840  140.0330  266.3010 N.am  309  ASN309     -0.0877
    105  N         78.9340  147.3850  267.1700 N.3   355  TYR355     -0.1241
    106  CA        77.7870  147.0920  268.0120 C.3   355  TYR355      0.1605
    107  C         78.0410  145.8020  268.7800 C.2   355  TYR355      0.2264
    108  O         78.6520  144.8650  268.2580 O.2   355  TYR355     -0.2867
    109  CB        76.5010  146.9650  267.2000 C.3   355  TYR355      0.0534
    110  CG        75.3490  146.5230  268.0640 C.ar  355  TYR355     -0.0201
    111  CD1       74.9330  145.2000  268.0870 C.ar  355  TYR355     -0.0009
    112  CD2       74.7020  147.4290  268.8930 C.ar  355  TYR355     -0.0009
    113  CE1       73.8900  144.7980  268.8950 C.ar  355  TYR355      0.0417
    114  CE2       73.6590  147.0370  269.7030 C.ar  355  TYR355      0.0417
    115  CZ        73.2550  145.7220  269.6990 C.ar  355  TYR355      0.1957
    116  OH        72.2180  145.3300  270.5100 O.3   355  TYR355     -0.2866
@<TRIPOS>BOND
     1    97    98    1
     2    99    98    1
     3    99   100    2
     4    98   101    1
     5    80    81    1
     6   101   102    1
     7    81    84    1
     8    81    82    1
     9   103   102    2
    10    84    85    1
    11   102   104   am
    12    82    83    2
    13    87    85   ar
    14    85    86   ar
    15   105   106    1
    16   109   106    1
    17   109   110    1
    18    95    94   ar
    19   106   107    1
    20   110   111   ar
    21   110   112   ar
    22   111   113   ar
    23    88    89    1
    24   108   107    2
    25    91    90    2
    26    94    93    1
    27    94    96   ar
    28   112   114   ar
    29   113   115   ar
    30    69    70    1
    31    92    93    1
    32    92    89    1
    33    89    90    1
    34    70    73    1
    35    70    71    1
    36    73    74    1
    37   115   114   ar
    38   115   116    1
    39    76    75    1
    40    76    77    2
    41    74    75    1
    42    71    72    2
    43    79    77    1
    44    36    34   ar
    45    36    35   ar
    46    34    32   ar
    47    77    78    1
    48    35    33   ar
    49    32    31   ar
    50    10     9    1
    51    33    31   ar
    52    31    30    1
    53     7     8    1
    54     7     6    1
    55     9     8    2
    56     9    11    1
    57    30    27    1
    58     6     5    1
    59    25    23   ar
    60    25    24   ar
    61    23    21   ar
    62    27    26    1
    63    27    28    1
    64    54    52   ar
    65     5     2    1
    66    66    68   ar
    67    66    64   ar
    68    24    22   ar
    69     1     2    1
    70    63    64   ar
    71    63    61   ar
    72    28    37   am
    73    28    29    2
    74    40    39    2
    75    21    20   ar
    76    21    19   ar
    77     2     3    1
    78    68    67   ar
    79    52    51    1
    80    52    53   ar
    81    64    62   ar
    82    51    48    1
    83    37    38    1
    84    20    18   ar
    85    61    60   ar
    86    39    38    1
    87    39    47   am
    88    22    19   ar
    89    19    17   ar
    90    38    41    1
    91    67    65   ar
    92     3     4    2
    93    62    60   ar
    94    62    65   ar
    95    48    47    1
    96    48    49    1
    97    18    17   ar
    98    60    59    1
    99    41    42    1
   100    17    16    1
   101    49    50    2
   102    49    55   am
   103    42    44   ar
   104    42    43   ar
   105    55    56    1
   106    59    56    1
   107    44    46   ar
   108    12    13    1
   109    16    13    1
   110    43    45   ar
   111    56    57    1
   112    13    14    1
   113    14    15    2
   114    46    45   ar
   115    57    58    2
