@<TRIPOS>MOLECULE
tmp/6en3A00.pdb
 136 129 0 0 0
SMALL
GASTEIGER

@<TRIPOS>ATOM
      1  N         79.0620  149.9340  271.2270 N.3    70  TYR70      -0.1241
      2  CA        77.7690  149.8410  271.8970 C.3    70  TYR70       0.1605
      3  C         77.8540  148.6900  272.8900 C.2    70  TYR70       0.2264
      4  O         77.8310  147.5200  272.5040 O.2    70  TYR70      -0.2867
      5  CB        76.6420  149.6310  270.8910 C.3    70  TYR70       0.0534
      6  CG        76.1960  150.8870  270.1820 C.ar   70  TYR70      -0.0201
      7  CD1       76.8140  151.3080  269.0120 C.ar   70  TYR70      -0.0009
      8  CD2       75.1460  151.6480  270.6780 C.ar   70  TYR70      -0.0009
      9  CE1       76.4030  152.4550  268.3600 C.ar   70  TYR70       0.0417
     10  CE2       74.7280  152.7970  270.0340 C.ar   70  TYR70       0.0417
     11  CZ        75.3590  153.1940  268.8760 C.ar   70  TYR70       0.1957
     12  OH        74.9430  154.3370  268.2360 O.3    70  TYR70      -0.2866
     13  N         73.9940  150.9510  275.5810 N.3   103  PHE103     -0.1241
     14  CA        72.8860  150.4320  274.7920 C.3   103  PHE103      0.1605
     15  C         72.0120  149.6090  275.7270 C.2   103  PHE103      0.2264
     16  O         72.3770  148.4930  276.1100 O.2   103  PHE103     -0.2867
     17  CB        73.3670  149.6070  273.6070 C.3   103  PHE103      0.0534
     18  CG        72.2760  149.2790  272.6590 C.ar  103  PHE103     -0.0203
     19  CD1       71.8250  150.2470  271.7820 C.ar  103  PHE103     -0.0042
     20  CD2       71.6710  148.0390  272.6590 C.ar  103  PHE103     -0.0042
     21  CE1       70.8050  149.9850  270.9130 C.ar  103  PHE103     -0.0003
     22  CE2       70.6470  147.7660  271.7810 C.ar  103  PHE103     -0.0003
     23  CZ        70.2160  148.7420  270.9040 C.ar  103  PHE103     -0.0000
     24  N         72.1610  155.8420  274.5430 N.3   135  THR135     -0.1218
     25  CA        71.4600  155.6220  273.2830 C.3   135  THR135      0.1862
     26  C         69.9720  155.4440  273.5570 C.2   135  THR135      0.2287
     27  O         69.5840  154.6140  274.3840 O.2   135  THR135     -0.2866
     28  CB        71.9970  154.3870  272.5560 C.3   135  THR135      0.1770
     29  OG1       73.4080  154.5200  272.3480 O.3   135  THR135     -0.2211
     30  CG2       71.3070  154.2180  271.2050 C.3   135  THR135      0.0375
     31  N         65.8900  155.2890  271.5540 N.3   137  PRO137     -0.2116
     32  CA        65.2450  155.0950  270.2570 C.3   137  PRO137      0.1372
     33  C         64.5110  156.3390  269.7830 C.2   137  PRO137      0.2244
     34  O         64.0170  157.1490  270.5710 O.2   137  PRO137     -0.2868
     35  CB        64.2660  153.9460  270.5250 C.3   137  PRO137      0.0268
     36  CG        63.9170  154.0930  271.9590 C.3   137  PRO137      0.0207
     37  CD        65.1550  154.6180  272.6400 C.3   137  PRO137      0.0892
     38  N         68.8900  156.8070  267.9800 N.3   186  ALA186     -0.1245
     39  CA        68.9450  155.8040  266.9240 C.3   186  ALA186      0.1562
     40  C         67.6430  155.8290  266.1360 C.2   186  ALA186      0.2260
     41  O         66.5750  155.5330  266.6850 O.2   186  ALA186     -0.2867
     42  CB        69.1880  154.4150  267.5080 C.3   186  ALA186      0.0290
     43  N         65.8040  154.0550  263.2230 N.3   188  LEU188     -0.1245
     44  CA        65.6540  152.9310  262.3120 C.3   188  LEU188      0.1561
     45  C         64.1770  152.7270  262.0230 C.2   188  LEU188      0.2260
     46  O         63.3140  153.4770  262.4890 O.2   188  LEU188     -0.2867
     47  CB        66.2150  151.6300  262.8930 C.3   188  LEU188      0.0270
     48  CG        67.5420  151.5890  263.6320 C.3   188  LEU188      0.0019
     49  CD1       67.7200  150.1690  264.0720 C.3   188  LEU188      0.0001
     50  CD2       68.7010  152.0320  262.7610 C.3   188  LEU188      0.0001
     51  N         62.9450  149.9780  263.1890 N.3   190  ASP190     -0.1225
     52  CA        62.5650  149.2940  264.4170 C.3   190  ASP190      0.1805
     53  C         62.2030  150.2740  265.5260 C.2   190  ASP190      0.2598
     54  O         61.4010  149.9390  266.4050 O.2   190  ASP190     -0.2718
     55  CB        63.7040  148.3800  264.8760 C.3   190  ASP190      0.1424
     56  CG        63.3020  147.4810  266.0280 C.2   190  ASP190      0.3668
     57  OD1       63.6590  147.8010  267.1840 O.co2 190  ASP190     -0.2456
     58  OD2       62.6240  146.4590  265.7780 O.co2 190  ASP190     -0.2456
     59  N         62.7660  151.4800  265.4940 N.am  191  SER191     -0.1952
     60  CA        62.5750  152.4680  266.5470 C.3   191  SER191      0.1924
     61  C         61.5590  153.5400  266.1820 C.2   191  SER191      0.2314
     62  O         61.2800  154.4150  267.0080 O.2   191  SER191     -0.2863
     63  CB        63.9120  153.1320  266.8800 C.3   191  SER191      0.2116
     64  OG        64.9380  152.1630  266.9970 O.3   191  SER191     -0.2180
     65  N         72.4550  157.9290  265.0040 N.3   232  ASP232     -0.1239
     66  CA        72.8640  156.7340  264.2800 C.3   232  ASP232      0.1674
     67  C         71.6600  156.1650  263.5440 C.2   232  ASP232      0.2266
     68  O         70.5740  156.0490  264.1220 O.2   232  ASP232     -0.2867
     69  CB        73.4610  155.6800  265.2200 C.3   232  ASP232      0.1410
     70  CG        72.4780  155.2130  266.2750 C.2   232  ASP232      0.3668
     71  OD1       71.9190  156.0730  266.9890 O.co2 232  ASP232     -0.2456
     72  OD2       72.2660  153.9860  266.3930 O.co2 232  ASP232     -0.2456
     73  N         74.8400  152.5110  260.3480 N.3   256  GLN256     -0.1245
     74  CA        75.0230  151.1180  260.6520 C.3   256  GLN256      0.1566
     75  C         74.9210  150.3540  259.3790 C.2   256  GLN256      0.2260
     76  O         73.8940  150.2980  258.7580 O.2   256  GLN256     -0.2867
     77  CB        73.9760  150.6710  261.6140 C.3   256  GLN256      0.0367
     78  CG        73.5750  151.7660  262.5450 C.3   256  GLN256      0.0905
     79  CD        72.6490  151.2710  263.5850 C.2   256  GLN256      0.2608
     80  OE1       72.2380  150.1340  263.5540 O.2   256  GLN256     -0.2717
     81  NE2       72.3130  152.1160  264.5150 N.am  256  GLN256     -0.0878
     82  N         76.0290  146.7960  258.6890 N.3   258  TYR258     -0.1241
     83  CA        76.5120  145.4600  259.0050 C.3   258  TYR258      0.1605
     84  C         76.3710  144.5420  257.7970 C.2   258  TYR258      0.2264
     85  O         75.4540  144.6860  256.9830 O.2   258  TYR258     -0.2867
     86  CB        75.7380  144.8540  260.1770 C.3   258  TYR258      0.0534
     87  CG        75.4990  145.7680  261.3610 C.ar  258  TYR258     -0.0201
     88  CD1       76.3090  146.8700  261.6030 C.ar  258  TYR258     -0.0009
     89  CD2       74.4580  145.5160  262.2450 C.ar  258  TYR258     -0.0009
     90  CE1       76.0800  147.6970  262.6870 C.ar  258  TYR258      0.0417
     91  CE2       74.2250  146.3340  263.3280 C.ar  258  TYR258      0.0417
     92  CZ        75.0360  147.4210  263.5450 C.ar  258  TYR258      0.1957
     93  OH        74.7960  148.2350  264.6260 O.3   258  TYR258     -0.2866
     94  N         76.6810  138.3770  268.1550 N.3   302  GLU302     -0.1245
     95  CA        75.8440  138.2710  269.3370 C.3   302  GLU302      0.1567
     96  C         75.4830  136.8140  269.5940 C.2   302  GLU302      0.2260
     97  O         75.2030  136.0540  268.6620 O.2   302  GLU302     -0.2867
     98  CB        74.5740  139.0990  269.1660 C.3   302  GLU302      0.0388
     99  CG        74.7920  140.5940  269.1950 C.3   302  GLU302      0.1160
    100  CD        73.5560  141.3590  268.7720 C.2   302  GLU302      0.3649
    101  OE1       73.3090  141.4680  267.5510 O.co2 302  GLU302     -0.2457
    102  OE2       72.8230  141.8380  269.6630 O.co2 302  GLU302     -0.2457
    103  N         69.9180  138.4910  261.8430 N.3   309  ASN309     -0.1240
    104  CA        70.8440  139.1210  262.7540 C.3   309  ASN309      0.1653
    105  C         72.1960  138.4860  262.7250 C.2   309  ASN309      0.2266
    106  O         72.8690  138.4610  263.7170 O.2   309  ASN309     -0.2867
    107  CB        70.3330  139.0800  264.1680 C.3   309  ASN309      0.1155
    108  CG        70.9430  140.1440  265.0170 C.2   309  ASN309      0.2627
    109  OD1       71.5360  141.0630  264.5140 O.2   309  ASN309     -0.2716
    110  ND2       70.7840  140.0330  266.3010 N.am  309  ASN309     -0.0877
    111  N         75.6990  138.7160  260.5850 N.3   311  TRP311     -0.1241
    112  CA        76.3830  139.6390  259.6900 C.3   311  TRP311      0.1605
    113  C         77.7530  139.1630  259.2340 C.2   311  TRP311      0.2264
    114  O         78.1860  139.5470  258.1460 O.2   311  TRP311     -0.2867
    115  CB        76.5370  141.0040  260.3710 C.3   311  TRP311      0.0550
    116  CG        75.3040  141.4260  261.0990 C.ar  311  TRP311      0.0003
    117  CD1       75.1070  141.4210  262.4480 C.ar  311  TRP311      0.0946
    118  CD2       74.0860  141.9070  260.5170 C.ar  311  TRP311      0.0152
    119  NE1       73.8440  141.8740  262.7440 N.ar  311  TRP311     -0.2442
    120  CE2       73.1970  142.1780  261.5750 C.ar  311  TRP311      0.0810
    121  CE3       73.6630  142.1370  259.2050 C.ar  311  TRP311      0.0012
    122  CZ2       71.9130  142.6690  261.3610 C.ar  311  TRP311      0.0191
    123  CZ3       72.3890  142.6240  258.9950 C.ar  311  TRP311      0.0001
    124  CH2       71.5280  142.8850  260.0670 C.ar  311  TRP311      0.0015
    125  N         78.9340  147.3850  267.1700 N.3   355  TYR355     -0.1241
    126  CA        77.7870  147.0920  268.0120 C.3   355  TYR355      0.1605
    127  C         78.0410  145.8020  268.7800 C.2   355  TYR355      0.2264
    128  O         78.6520  144.8650  268.2580 O.2   355  TYR355     -0.2867
    129  CB        76.5010  146.9650  267.2000 C.3   355  TYR355      0.0534
    130  CG        75.3490  146.5230  268.0640 C.ar  355  TYR355     -0.0201
    131  CD1       74.9330  145.2000  268.0870 C.ar  355  TYR355     -0.0009
    132  CD2       74.7020  147.4290  268.8930 C.ar  355  TYR355     -0.0009
    133  CE1       73.8900  144.7980  268.8950 C.ar  355  TYR355      0.0417
    134  CE2       73.6590  147.0370  269.7030 C.ar  355  TYR355      0.0417
    135  CZ        73.2550  145.7220  269.6990 C.ar  355  TYR355      0.1957
    136  OH        72.2180  145.3300  270.5100 O.3   355  TYR355     -0.2866
@<TRIPOS>BOND
     1    85    84    2
     2    84    83    1
     3   114   113    2
     4    82    83    1
     5    76    75    2
     6   123   121   ar
     7   123   124   ar
     8    83    86    1
     9   121   118   ar
    10   113   112    1
    11    75    74    1
    12   112   115    1
    13   112   111    1
    14   124   122   ar
    15    86    87    1
    16    73    74    1
    17   115   116    1
    18   118   116   ar
    19   118   120   ar
    20    74    77    1
    21   116   117   ar
    22   122   120   ar
    23    87    88   ar
    24    87    89   ar
    25   120   119   ar
    26    88    90   ar
    27    77    78    1
    28   103   104    1
    29    45    44    1
    30    45    46    2
    31    89    91   ar
    32    44    47    1
    33    44    43    1
    34   117   119   ar
    35    78    79    1
    36    90    92   ar
    37   105   104    1
    38   105   106    2
    39   104   107    1
    40    50    48    1
    41    47    48    1
    42    51    52    1
    43    91    92   ar
    44    67    68    2
    45    67    66    1
    46    92    93    1
    47    80    79    2
    48    79    81   am
    49    48    49    1
    50   107   108    1
    51    66    65    1
    52    66    69    1
    53    52    55    1
    54    52    53    1
    55   109   108    2
    56    55    56    1
    57   108   110   am
    58    69    70    1
    59    59    53   am
    60    59    60    1
    61    53    54    2
    62    58    56   ar
    63    56    57   ar
    64    40    41    2
    65    40    39    1
    66    61    60    1
    67    61    62    2
    68    70    72   ar
    69    70    71   ar
    70    60    63    1
    71    63    64    1
    72    39    42    1
    73    39    38    1
    74   125   126    1
    75   129   126    1
    76   129   130    1
    77   101   100   ar
    78   126   127    1
    79   130   131   ar
    80   130   132   ar
    81   131   133   ar
    82    94    95    1
    83    12    11    1
    84   128   127    2
    85     9    11   ar
    86     9     7   ar
    87    97    96    2
    88   100    99    1
    89   100   102   ar
    90    11    10   ar
    91   132   134   ar
    92   133   135   ar
    93     7     6   ar
    94    98    99    1
    95    98    95    1
    96    95    96    1
    97   135   134   ar
    98   135   136    1
    99    33    32    1
   100    33    34    2
   101    10     8   ar
   102     6     8   ar
   103     6     5    1
   104    32    35    1
   105    32    31    1
   106    35    36    1
   107     5     2    1
   108    23    21   ar
   109    23    22   ar
   110    21    19   ar
   111    30    28    1
   112     1     2    1
   113    31    37    1
   114    22    20   ar
   115    19    18   ar
   116     2     3    1
   117    36    37    1
   118    29    28    1
   119     4     3    2
   120    28    25    1
   121    20    18   ar
   122    18    17    1
   123    25    26    1
   124    25    24    1
   125    26    27    2
   126    17    14    1
   127    14    13    1
   128    14    15    1
   129    15    16    2
