@<TRIPOS>MOLECULE
tmp/6en3A02.pdb
 103 102 0 0 0
SMALL
GASTEIGER

@<TRIPOS>ATOM
      1  N         73.9940  150.9510  275.5810 N.3   103  PHE103     -0.1227
      2  CA        72.8860  150.4320  274.7920 C.3   103  PHE103      0.1736
      3  C         72.0120  149.6090  275.7270 C.2   103  PHE103      0.2595
      4  O         72.3770  148.4930  276.1100 O.2   103  PHE103     -0.2718
      5  CB        73.3670  149.6070  273.6070 C.3   103  PHE103      0.0547
      6  CG        72.2760  149.2790  272.6590 C.ar  103  PHE103     -0.0202
      7  CD1       71.8250  150.2470  271.7820 C.ar  103  PHE103     -0.0042
      8  CD2       71.6710  148.0390  272.6590 C.ar  103  PHE103     -0.0042
      9  CE1       70.8050  149.9850  270.9130 C.ar  103  PHE103     -0.0003
     10  CE2       70.6470  147.7660  271.7810 C.ar  103  PHE103     -0.0003
     11  CZ        70.2160  148.7420  270.9040 C.ar  103  PHE103     -0.0000
     12  N         70.8590  150.1620  276.0850 N.am  104  HIS104     -0.1961
     13  CA        70.0780  149.6650  277.2050 C.3   104  HIS104      0.1787
     14  C         68.9950  148.7020  276.7430 C.2   104  HIS104      0.2620
     15  O         68.2980  148.9570  275.7550 O.2   104  HIS104     -0.2715
     16  CB        69.4440  150.8300  277.9690 C.3   104  HIS104      0.0785
     17  CG        68.3850  150.4120  278.9430 C.ar  104  HIS104      0.0821
     18  ND1       68.4980  149.2840  279.7270 N.ar  104  HIS104     -0.2267
     19  CD2       67.1940  150.9730  279.2630 C.ar  104  HIS104      0.1154
     20  CE1       67.4220  149.1670  280.4850 C.ar  104  HIS104      0.1986
     21  NE2       66.6150  150.1800  280.2230 N.ar  104  HIS104     -0.2212
     22  N         68.8730  147.5910  277.4580 N.am  105  ASP105     -0.1971
     23  CA        67.6840  146.7570  277.4320 C.3   105  ASP105      0.1709
     24  C         67.8930  145.6090  278.3990 C.2   105  ASP105      0.2293
     25  O         69.0180  145.1400  278.6100 O.2   105  ASP105     -0.2864
     26  CB        67.3490  146.2130  276.0350 C.3   105  ASP105      0.1436
     27  CG        65.9780  145.5370  275.9880 C.2   105  ASP105      0.3671
     28  OD1       65.3830  145.3130  277.0600 O.co2 105  ASP105     -0.2456
     29  OD2       65.4880  145.2220  274.8880 O.co2 105  ASP105     -0.2456
     30  N         74.4890  157.8500  276.1820 N.3   134  ARG134     -0.1231
     31  CA        73.2400  157.1100  276.3050 C.3   134  ARG134      0.1694
     32  C         72.5590  157.0460  274.9440 C.2   134  ARG134      0.2593
     33  O         72.4070  158.0700  274.2690 O.2   134  ARG134     -0.2718
     34  CB        72.3230  157.7790  277.3320 C.3   134  ARG134      0.0321
     35  CG        70.9890  157.0810  277.5410 C.3   134  ARG134      0.0489
     36  CD        71.1460  155.7310  278.2150 C.3   134  ARG134      0.2205
     37  NE        69.8520  155.0730  278.3940 N.pl3 134  ARG134     -0.0865
     38  CZ        69.2650  154.3050  277.4760 C.cat 134  ARG134      0.5346
     39  NH1       69.8580  154.0780  276.3060 N.pl3 134  ARG134      0.1354
     40  NH2       68.0810  153.7530  277.7240 N.pl3 134  ARG134      0.1354
     41  N         72.1610  155.8420  274.5430 N.am  135  THR135     -0.1939
     42  CA        71.4600  155.6220  273.2830 C.3   135  THR135      0.2028
     43  C         69.9720  155.4440  273.5570 C.2   135  THR135      0.2642
     44  O         69.5840  154.6140  274.3840 O.2   135  THR135     -0.2714
     45  CB        71.9970  154.3870  272.5560 C.3   135  THR135      0.1808
     46  OG1       73.4080  154.5200  272.3480 O.3   135  THR135     -0.2208
     47  CG2       71.3070  154.2180  271.2050 C.3   135  THR135      0.0379
     48  N         69.1450  156.2080  272.8520 N.am  136  ILE136     -0.1963
     49  CA        67.6970  156.0900  273.0060 C.3   136  ILE136      0.1712
     50  C         67.0520  155.9270  271.6350 C.2   136  ILE136      0.2458
     51  O         67.6140  156.3680  270.6220 O.2   136  ILE136     -0.2730
     52  CB        67.1160  157.3000  273.7540 C.3   136  ILE136      0.0289
     53  CG1       67.5750  158.6080  273.1080 C.3   136  ILE136      0.0022
     54  CG2       67.5340  157.2500  275.2130 C.3   136  ILE136      0.0023
     55  CD1       66.7930  159.8230  273.5750 C.3   136  ILE136      0.0001
     56  N         65.8900  155.2890  271.5540 N.am  137  PRO137     -0.2727
     57  CA        65.2450  155.0950  270.2570 C.3   137  PRO137      0.1402
     58  C         64.5110  156.3390  269.7830 C.2   137  PRO137      0.2269
     59  O         64.0170  157.1490  270.5710 O.2   137  PRO137     -0.2865
     60  CB        64.2660  153.9460  270.5250 C.3   137  PRO137      0.0296
     61  CG        63.9170  154.0930  271.9590 C.3   137  PRO137      0.0237
     62  CD        65.1550  154.6180  272.6400 C.3   137  PRO137      0.0939
     63  N         61.6330  156.6860  268.9070 N.3   139  ARG139     -0.1231
     64  CA        60.2960  156.8390  269.4680 C.3   139  ARG139      0.1694
     65  C         60.2790  157.5500  270.8160 C.2   139  ARG139      0.2592
     66  O         59.1950  157.9170  271.2800 O.2   139  ARG139     -0.2718
     67  CB        59.6270  155.4700  269.6030 C.3   139  ARG139      0.0321
     68  CG        60.4050  154.4740  270.4460 C.3   139  ARG139      0.0489
     69  CD        59.7380  153.1130  270.4470 C.3   139  ARG139      0.2205
     70  NE        60.6990  152.0350  270.2240 N.pl3 139  ARG139     -0.0865
     71  CZ        61.3580  151.3930  271.1840 C.cat 139  ARG139      0.5346
     72  NH1       61.1740  151.7060  272.4610 N.pl3 139  ARG139      0.1354
     73  NH2       62.2100  150.4280  270.8620 N.pl3 139  ARG139      0.1354
     74  N         61.4310  157.7500  271.4600 N.am  140  PHE140     -0.1976
     75  CA        61.4490  158.5060  272.7080 C.3   140  PHE140      0.1639
     76  C         61.2160  159.9960  272.4950 C.2   140  PHE140      0.2290
     77  O         60.9790  160.7130  273.4730 O.2   140  PHE140     -0.2864
     78  CB        62.7820  158.2980  273.4390 C.3   140  PHE140      0.0560
     79  CG        62.8280  157.0670  274.3110 C.ar  140  PHE140     -0.0200
     80  CD1       61.8430  156.0920  274.2380 C.ar  140  PHE140     -0.0042
     81  CD2       63.8620  156.8920  275.2160 C.ar  140  PHE140     -0.0042
     82  CE1       61.8960  154.9700  275.0450 C.ar  140  PHE140     -0.0003
     83  CE2       63.9190  155.7720  276.0220 C.ar  140  PHE140     -0.0003
     84  CZ        62.9350  154.8110  275.9370 C.ar  140  PHE140     -0.0000
     85  N         68.8900  156.8070  267.9800 N.3   186  ALA186     -0.1245
     86  CA        68.9450  155.8040  266.9240 C.3   186  ALA186      0.1562
     87  C         67.6430  155.8290  266.1360 C.2   186  ALA186      0.2260
     88  O         66.5750  155.5330  266.6850 O.2   186  ALA186     -0.2867
     89  CB        69.1880  154.4150  267.5080 C.3   186  ALA186      0.0290
     90  N         62.9450  149.9780  263.1890 N.3   190  ASP190     -0.1225
     91  CA        62.5650  149.2940  264.4170 C.3   190  ASP190      0.1805
     92  C         62.2030  150.2740  265.5260 C.2   190  ASP190      0.2598
     93  O         61.4010  149.9390  266.4050 O.2   190  ASP190     -0.2718
     94  CB        63.7040  148.3800  264.8760 C.3   190  ASP190      0.1424
     95  CG        63.3020  147.4810  266.0280 C.2   190  ASP190      0.3668
     96  OD1       63.6590  147.8010  267.1840 O.co2 190  ASP190     -0.2456
     97  OD2       62.6240  146.4590  265.7780 O.co2 190  ASP190     -0.2456
     98  N         62.7660  151.4800  265.4940 N.am  191  SER191     -0.1952
     99  CA        62.5750  152.4680  266.5470 C.3   191  SER191      0.1924
    100  C         61.5590  153.5400  266.1820 C.2   191  SER191      0.2314
    101  O         61.2800  154.4150  267.0080 O.2   191  SER191     -0.2863
    102  CB        63.9120  153.1320  266.8800 C.3   191  SER191      0.2116
    103  OG        64.9380  152.1630  266.9970 O.3   191  SER191     -0.2180
@<TRIPOS>BOND
     1    90    91    1
     2    91    94    1
     3    91    92    1
     4    94    95    1
     5    98    92   am
     6    98    99    1
     7    92    93    2
     8    97    95   ar
     9    95    96   ar
    10    87    88    2
    11    87    86    1
    12   100    99    1
    13   100   101    2
    14    99   102    1
    15   102   103    1
    16    86    89    1
    17    86    85    1
    18    63    64    1
    19    64    67    1
    20    64    65    1
    21    67    68    1
    22    58    57    1
    23    58    59    2
    24    70    69    1
    25    70    71    2
    26    57    60    1
    27    57    56    1
    28    68    69    1
    29    60    61    1
    30    51    50    2
    31    65    66    2
    32    65    74   am
    33    73    71    1
    34    11     9   ar
    35    11    10   ar
    36     9     7   ar
    37    71    72    1
    38    47    45    1
    39    74    75    1
    40    56    50   am
    41    56    62    1
    42    50    49    1
    43    10     8   ar
    44     7     6   ar
    45    61    62    1
    46    46    45    1
    47    76    75    1
    48    76    77    2
    49    45    42    1
    50     8     6   ar
    51     6     5    1
    52    75    78    1
    53    48    49    1
    54    48    43   am
    55    49    52    1
    56    53    55    1
    57    53    52    1
    58    42    43    1
    59    42    41    1
    60    78    79    1
    61    43    44    2
    62     5     2    1
    63    52    54    1
    64    80    79   ar
    65    80    82   ar
    66    33    32    2
    67    79    81   ar
    68    41    32   am
    69     2     1    1
    70     2     3    1
    71    29    27   ar
    72    32    31    1
    73    82    84   ar
    74    81    83   ar
    75     3    12   am
    76     3     4    2
    77    15    14    2
    78    84    83   ar
    79    27    26    1
    80    27    28   ar
    81    26    23    1
    82    12    13    1
    83    30    31    1
    84    31    34    1
    85    39    38    1
    86    14    13    1
    87    14    22   am
    88    13    16    1
    89    34    35    1
    90    23    22    1
    91    23    24    1
    92    38    40    1
    93    38    37    2
    94    35    36    1
    95    16    17    1
    96    36    37    1
    97    24    25    2
    98    17    19   ar
    99    17    18   ar
   100    19    21   ar
   101    18    20   ar
   102    21    20   ar
