@<TRIPOS>MOLECULE
tmp/6en4C00.pdb
 138 132 0 0 0
SMALL
GASTEIGER

@<TRIPOS>ATOM
      1  N        -60.1250   -3.8170   11.5970 N.3   604  LEU604     -0.1231
      2  CA       -58.9670   -4.0130   12.4600 C.3   604  LEU604      0.1693
      3  C        -58.8940   -5.4380   12.9910 C.2   604  LEU604      0.2592
      4  O        -57.8060   -5.9010   13.3490 O.2   604  LEU604     -0.2718
      5  CB       -59.0060   -3.0250   13.6270 C.3   604  LEU604      0.0284
      6  CG       -58.7440   -1.5550   13.2980 C.3   604  LEU604      0.0019
      7  CD1      -59.0460   -0.6700   14.4950 C.3   604  LEU604      0.0001
      8  CD2      -57.3090   -1.3730   12.8610 C.3   604  LEU604      0.0001
      9  N        -60.0270   -6.1380   13.0470 N.am  605  LYS605     -0.1966
     10  CA       -60.0920   -7.5200   13.4990 C.3   605  LYS605      0.1728
     11  C        -59.9950   -8.5150   12.3460 C.2   605  LYS605      0.2616
     12  O        -60.3160   -9.6940   12.5290 O.2   605  LYS605     -0.2715
     13  CB       -61.3930   -7.7500   14.2770 C.3   605  LYS605      0.0311
     14  CG       -61.3600   -8.9040   15.2700 C.3   605  LYS605      0.0038
     15  CD       -62.7420   -9.1600   15.8480 C.3   605  LYS605      0.0206
     16  CE       -63.2900   -7.9250   16.5430 C.3   605  LYS605      0.1093
     17  NZ       -64.6270   -8.1750   17.1480 N.3   605  LYS605     -0.1314
     18  N        -59.5630   -8.0670   11.1690 N.am  606  ALA606     -0.1977
     19  CA       -59.5310   -8.9350   10.0010 C.3   606  ALA606      0.1597
     20  C        -58.5980  -10.1190   10.2250 C.2   606  ALA606      0.2287
     21  O        -57.6440  -10.0530   11.0040 O.2   606  ALA606     -0.2864
     22  CB       -59.0910   -8.1520    8.7670 C.3   606  ALA606      0.0319
     23  N        -53.3020  -10.4370    7.8850 N.3   609  LYS609     -0.1245
     24  CA       -52.4910   -9.3940    8.5060 C.3   609  LYS609      0.1561
     25  C        -52.3550   -8.1740    7.6020 C.2   609  LYS609      0.2260
     26  O        -52.3420   -7.0350    8.0850 O.2   609  LYS609     -0.2867
     27  CB       -51.1130   -9.9500    8.8670 C.3   609  LYS609      0.0271
     28  CG       -50.1900   -8.9480    9.5400 C.3   609  LYS609      0.0035
     29  CD       -48.7820   -9.5020    9.6900 C.3   609  LYS609      0.0206
     30  CE       -48.1220   -9.7140    8.3370 C.3   609  LYS609      0.1093
     31  NZ       -46.7870  -10.3600    8.4700 N.3   609  LYS609     -0.1314
     32  N        -55.1480   -5.8560    8.0680 N.3   612  ARG612     -0.1231
     33  CA       -55.0050   -5.1380    9.3310 C.3   612  ARG612      0.1694
     34  C        -54.0430   -3.9660    9.1810 C.2   612  ARG612      0.2591
     35  O        -54.3230   -2.8530    9.6410 O.2   612  ARG612     -0.2718
     36  CB       -54.5250   -6.0830   10.4340 C.3   612  ARG612      0.0321
     37  CG       -55.5770   -7.0430   10.9500 C.3   612  ARG612      0.0489
     38  CD       -55.1070   -7.7020   12.2350 C.3   612  ARG612      0.2205
     39  NE       -53.9400   -8.5580   12.0510 N.pl3 612  ARG612     -0.0865
     40  CZ       -54.0050   -9.8560   11.7760 C.cat 612  ARG612      0.5346
     41  NH1      -52.8930  -10.5620   11.6300 N.pl3 612  ARG612      0.1354
     42  NH2      -55.1850  -10.4500   11.6600 N.pl3 612  ARG612      0.1354
     43  N        -52.9010   -4.2000    8.5310 N.am  613  ARG613     -0.1980
     44  CA       -51.9270   -3.1310    8.3340 C.3   613  ARG613      0.1597
     45  C        -52.5220   -1.9920    7.5120 C.2   613  ARG613      0.2287
     46  O        -52.4060   -0.8160    7.8840 O.2   613  ARG613     -0.2864
     47  CB       -50.6680   -3.6920    7.6690 C.3   613  ARG613      0.0334
     48  CG       -50.0380   -2.7740    6.6360 C.3   613  ARG613      0.0492
     49  CD       -48.6830   -3.2850    6.2000 C.3   613  ARG613      0.2205
     50  NE       -47.6050   -2.6470    6.9500 N.pl3 613  ARG613     -0.0865
     51  CZ       -46.8160   -3.2840    7.8060 C.cat 613  ARG613      0.5346
     52  NH1      -46.9890   -4.5800    8.0250 N.pl3 613  ARG613      0.1354
     53  NH2      -45.8580   -2.6260    8.4430 N.pl3 613  ARG613      0.1354
     54  N        -55.1060   -0.0500    9.5830 N.3   616  VAL616     -0.1231
     55  CA       -54.4280    0.8030   10.5590 C.3   616  VAL616      0.1692
     56  C        -53.8910    2.0600    9.8850 C.2   616  VAL616      0.2592
     57  O        -54.0980    3.1830   10.3630 O.2   616  VAL616     -0.2718
     58  CB       -53.3000    0.0250   11.2640 C.3   616  VAL616      0.0266
     59  CG1      -52.3640    0.9780   11.9950 C.3   616  VAL616      0.0020
     60  CG2      -53.8700   -0.9990   12.2290 C.3   616  VAL616      0.0020
     61  N        -53.1970    1.8870    8.7570 N.am  617  ASN617     -0.1974
     62  CA       -52.5310    3.0160    8.1150 C.3   617  ASN617      0.1688
     63  C        -53.5410    4.0440    7.6140 C.2   617  ASN617      0.2292
     64  O        -53.4120    5.2460    7.8890 O.2   617  ASN617     -0.2864
     65  CB       -51.6520    2.5120    6.9700 C.3   617  ASN617      0.1181
     66  CG       -50.2410    2.1840    7.4230 C.2   617  ASN617      0.2629
     67  OD1      -49.8340    2.5370    8.5310 O.2   617  ASN617     -0.2716
     68  ND2      -49.4890    1.4980    6.5690 N.am  617  ASN617     -0.0877
     69  N        -65.0090   -4.2520   21.6040 N.3   647  ARG647     -0.1231
     70  CA       -64.3440   -3.0290   22.0350 C.3   647  ARG647      0.1694
     71  C        -62.8650   -2.9970   21.6860 C.2   647  ARG647      0.2592
     72  O        -62.2710   -1.9140   21.6840 O.2   647  ARG647     -0.2718
     73  CB       -64.4790   -2.8460   23.5490 C.3   647  ARG647      0.0321
     74  CG       -64.2130   -4.1150   24.3240 C.3   647  ARG647      0.0489
     75  CD       -63.6310   -3.8380   25.6990 C.3   647  ARG647      0.2205
     76  NE       -62.1790   -3.9860   25.6960 N.pl3 647  ARG647     -0.0865
     77  CZ       -61.5480   -5.1480   25.8340 C.cat 647  ARG647      0.5346
     78  NH1      -62.2420   -6.2680   25.9870 N.pl3 647  ARG647      0.1354
     79  NH2      -60.2230   -5.1930   25.8160 N.pl3 647  ARG647      0.1354
     80  N        -62.2560   -4.1530   21.4090 N.am  648  VAL648     -0.1966
     81  CA       -60.8160   -4.2000   21.1640 C.3   648  VAL648      0.1727
     82  C        -60.4520   -3.3790   19.9320 C.2   648  VAL648      0.2616
     83  O        -59.4310   -2.6770   19.9140 O.2   648  VAL648     -0.2715
     84  CB       -60.3430   -5.6640   21.0500 C.3   648  VAL648      0.0290
     85  CG1      -60.9670   -6.3590   19.8430 C.3   648  VAL648      0.0023
     86  CG2      -58.8280   -5.7230   20.9760 C.3   648  VAL648      0.0023
     87  N        -61.2920   -3.4270   18.8970 N.am  649  CYS649     -0.1968
     88  CA       -61.0340   -2.6390   17.6980 C.3   649  CYS649      0.1712
     89  C        -61.1430   -1.1470   17.9890 C.2   649  CYS649      0.2296
     90  O        -60.3730   -0.3450   17.4460 O.2   649  CYS649     -0.2864
     91  CB       -62.0000   -3.0550   16.5920 C.3   649  CYS649      0.0983
     92  SG       -61.5090   -4.5230   15.6690 S.3   649  CYS649     -0.0798
     93  N        -60.4240    0.1540   20.9010 N.3   651  THR651     -0.1203
     94  CA       -59.2010    0.4520   21.6390 C.3   651  THR651      0.1994
     95  C        -58.0430    0.7000   20.6810 C.2   651  THR651      0.2617
     96  O        -57.2920    1.6760   20.8270 O.2   651  THR651     -0.2717
     97  CB       -58.8740   -0.6970   22.5960 C.3   651  THR651      0.1784
     98  OG1      -59.9020   -0.8040   23.5890 O.3   651  THR651     -0.2211
     99  CG2      -57.5360   -0.4630   23.2800 C.3   651  THR651      0.0376
    100  N        -57.8900   -0.1750   19.6830 N.am  652  VAL652     -0.1979
    101  CA       -56.8630    0.0280   18.6660 C.3   652  VAL652      0.1595
    102  C        -57.0690    1.3630   17.9610 C.2   652  VAL652      0.2287
    103  O        -56.1050    2.0820   17.6680 O.2   652  VAL652     -0.2864
    104  CB       -56.8560   -1.1460   17.6690 C.3   652  VAL652      0.0276
    105  CG1      -55.8410   -0.9020   16.5620 C.3   652  VAL652      0.0022
    106  CG2      -56.5580   -2.4480   18.3890 C.3   652  VAL652      0.0022
    107  N        -52.9110   -0.4620   26.1760 N.3   691  PHE691     -0.1241
    108  CA       -52.6080   -0.5630   24.7520 C.3   691  PHE691      0.1605
    109  C        -52.1540    0.7710   24.1750 C.2   691  PHE691      0.2264
    110  O        -51.3460    0.7980   23.2380 O.2   691  PHE691     -0.2867
    111  CB       -53.8140   -1.0840   23.9740 C.3   691  PHE691      0.0534
    112  CG       -53.5340   -1.2990   22.5160 C.ar  691  PHE691     -0.0203
    113  CD1      -52.6960   -2.3220   22.1060 C.ar  691  PHE691     -0.0042
    114  CD2      -54.0900   -0.4710   21.5580 C.ar  691  PHE691     -0.0042
    115  CE1      -52.4270   -2.5220   20.7660 C.ar  691  PHE691     -0.0003
    116  CE2      -53.8230   -0.6650   20.2150 C.ar  691  PHE691     -0.0003
    117  CZ       -52.9920   -1.6930   19.8190 C.ar  691  PHE691     -0.0000
    118  N        -48.4220    1.1580   25.2510 N.3   694  GLU694     -0.1231
    119  CA       -47.6280    0.1600   24.5400 C.3   694  GLU694      0.1699
    120  C        -47.5100    0.4990   23.0600 C.2   694  GLU694      0.2592
    121  O        -46.4710    0.2360   22.4430 O.2   694  GLU694     -0.2718
    122  CB       -48.2330   -1.2330   24.7130 C.3   694  GLU694      0.0402
    123  CG       -47.3890   -2.3390   24.0920 C.3   694  GLU694      0.1161
    124  CD       -48.0130   -3.7120   24.2350 C.2   694  GLU694      0.3649
    125  OE1      -49.2010   -3.7920   24.6090 O.co2 694  GLU694     -0.2457
    126  OE2      -47.3120   -4.7130   23.9740 O.co2 694  GLU694     -0.2457
    127  N        -48.5520    1.0970   22.4790 N.am  695  TYR695     -0.1976
    128  CA       -48.5310    1.4220   21.0580 C.3   695  TYR695      0.1639
    129  C        -47.6860    2.6600   20.7770 C.2   695  TYR695      0.2290
    130  O        -46.8620    2.6590   19.8560 O.2   695  TYR695     -0.2864
    131  CB       -49.9590    1.6190   20.5460 C.3   695  TYR695      0.0560
    132  CG       -50.0440    1.9000   19.0630 C.ar  695  TYR695     -0.0198
    133  CD1      -49.9740    0.8690   18.1360 C.ar  695  TYR695     -0.0009
    134  CD2      -50.1970    3.1960   18.5900 C.ar  695  TYR695     -0.0009
    135  CE1      -50.0540    1.1220   16.7790 C.ar  695  TYR695      0.0417
    136  CE2      -50.2760    3.4570   17.2370 C.ar  695  TYR695      0.0417
    137  CZ       -50.2040    2.4180   16.3360 C.ar  695  TYR695      0.1957
    138  OH       -50.2830    2.6790   14.9870 O.3   695  TYR695     -0.2866
@<TRIPOS>BOND
     1    49    48    1
     2    49    50    1
     3    68    66   am
     4    48    47    1
     5    50    51    2
     6    65    66    1
     7    65    62    1
     8    66    67    2
     9    45    46    2
    10    45    44    1
    11    25    26    2
    12    25    24    1
    13    63    64    2
    14    63    62    1
    15    47    44    1
    16    51    52    1
    17    51    53    1
    18    23    24    1
    19    32    33    1
    20    62    61    1
    21    44    43    1
    22    30    31    1
    23    30    29    1
    24    24    27    1
    25    43    34   am
    26    61    56   am
    27    22    19    1
    28    27    28    1
    29    34    33    1
    30    34    35    2
    31    33    36    1
    32    28    29    1
    33    54    55    1
    34    56    57    2
    35    56    55    1
    36    19    20    1
    37    19    18    1
    38    20    21    2
    39    36    37    1
    40    55    58    1
    41    37    38    1
    42    18    11   am
    43    58    59    1
    44    58    60    1
    45     1     2    1
    46    41    40    1
    47    42    40    1
    48    40    39    2
    49    39    38    1
    50    11    12    2
    51    11    10    1
    52     2     3    1
    53     2     5    1
    54     8     6    1
    55     3     9   am
    56     3     4    2
    57     9    10    1
    58     6     5    1
    59     6     7    1
    60    10    13    1
    61    13    14    1
    62   138   137    1
    63    14    15    1
    64    92    91    1
    65    15    16    1
    66   137   135   ar
    67   137   136   ar
    68    16    17    1
    69   105   104    1
    70    91    88    1
    71   135   133   ar
    72   136   134   ar
    73    90    89    2
    74   103   102    2
    75   104   106    1
    76   104   101    1
    77    88    89    1
    78    88    87    1
    79   102   101    1
    80   133   132   ar
    81   134   132   ar
    82   101   100    1
    83    87    82   am
    84   132   131    1
    85   100    95   am
    86   117   116   ar
    87   117   115   ar
    88    85    84    1
    89   130   129    2
    90    83    82    2
    91    82    81    1
    92   116   114   ar
    93   131   128    1
    94    95    96    2
    95    95    94    1
    96   115   113   ar
    97   129   128    1
    98    93    94    1
    99    86    84    1
   100    84    81    1
   101   128   127    1
   102    81    80    1
   103    80    71   am
   104   114   112   ar
   105    69    70    1
   106    94    97    1
   107    72    71    2
   108    71    70    1
   109    70    73    1
   110   113   112   ar
   111   121   120    2
   112   127   120   am
   113   112   111    1
   114    97    99    1
   115    97    98    1
   116   120   119    1
   117   110   109    2
   118    73    74    1
   119   126   124   ar
   120   111   108    1
   121   123   124    1
   122   123   122    1
   123   109   108    1
   124   124   125   ar
   125    74    75    1
   126   119   122    1
   127   119   118    1
   128   108   107    1
   129    76    75    1
   130    76    77    2
   131    79    77    1
   132    77    78    1
