@<TRIPOS>MOLECULE
tmp/6en5D07.pdb
 100 98 0 0 0
SMALL
GASTEIGER

@<TRIPOS>ATOM
      1  N         26.0340   14.3800   68.8990 N.3   283  GLN283     -0.1231
      2  CA        26.5910   13.2070   68.2420 C.3   283  GLN283      0.1698
      3  C         27.9430   12.7880   68.7950 C.2   283  GLN283      0.2593
      4  O         28.4690   11.7480   68.3740 O.2   283  GLN283     -0.2718
      5  CB        26.7070   13.4630   66.7330 C.3   283  GLN283      0.0381
      6  CG        25.3580   13.6400   66.0430 C.3   283  GLN283      0.0905
      7  CD        25.4920   13.9300   64.5430 C.2   283  GLN283      0.2608
      8  OE1       26.5970   14.1480   64.0310 O.2   283  GLN283     -0.2717
      9  NE2       24.3670   13.8850   63.8290 N.am  283  GLN283     -0.0878
     10  N         28.5140   13.5550   69.7160 N.am  284  GLY284     -0.1942
     11  CA        29.7780   13.1830   70.3270 C.3   284  GLY284      0.2014
     12  C         31.0250   13.4680   69.5170 C.2   284  GLY284      0.2638
     13  O         32.0310   12.7670   69.6830 O.2   284  GLY284     -0.2714
     14  N         30.9940   14.4720   68.6380 N.am  285  TRP285     -0.1973
     15  CA        32.1980   14.8570   67.9130 C.3   285  TRP285      0.1640
     16  C         33.2780   15.2900   68.8940 C.2   285  TRP285      0.2290
     17  O         32.9970   15.9150   69.9230 O.2   285  TRP285     -0.2864
     18  CB        31.9120   16.0100   66.9360 C.3   285  TRP285      0.0576
     19  CG        31.0990   15.6620   65.7290 C.ar  285  TRP285      0.0006
     20  CD1       29.8360   15.1040   65.7170 C.ar  285  TRP285      0.0946
     21  CD2       31.4450   15.8840   64.3510 C.ar  285  TRP285      0.0152
     22  NE1       29.3910   14.9680   64.4210 N.ar  285  TRP285     -0.2442
     23  CE2       30.3580   15.4320   63.5660 C.ar  285  TRP285      0.0810
     24  CE3       32.5700   16.4140   63.7040 C.ar  285  TRP285      0.0012
     25  CZ2       30.3670   15.4870   62.1750 C.ar  285  TRP285      0.0191
     26  CZ3       32.5690   16.4840   62.3080 C.ar  285  TRP285      0.0001
     27  CH2       31.4750   16.0180   61.5630 C.ar  285  TRP285      0.0015
     28  N         39.6070   15.0550   67.1520 N.3   288  THR288     -0.1203
     29  CA        40.1300   14.1520   66.1310 C.3   288  THR288      0.1994
     30  C         39.1280   13.9220   65.0010 C.2   288  THR288      0.2617
     31  O         39.5260   13.8260   63.8350 O.2   288  THR288     -0.2717
     32  CB        40.5500   12.8170   66.7570 C.3   288  THR288      0.1784
     33  OG1       41.1610   12.0050   65.7450 O.3   288  THR288     -0.2211
     34  CG2       39.3540   12.0810   67.3450 C.3   288  THR288      0.0376
     35  N         37.8270   13.8320   65.3150 N.am  289  HIS289     -0.1975
     36  CA        36.8270   13.6260   64.2550 C.3   289  HIS289      0.1656
     37  C         36.7710   14.8200   63.3190 C.2   289  HIS289      0.2291
     38  O         36.5830   14.6660   62.1040 O.2   289  HIS289     -0.2864
     39  CB        35.4080   13.4080   64.8050 C.3   289  HIS289      0.0771
     40  CG        35.2770   12.3070   65.8070 C.ar  289  HIS289      0.0820
     41  ND1       35.2620   12.5280   67.1650 N.ar  289  HIS289     -0.2267
     42  CD2       35.1260   10.9720   65.6450 C.ar  289  HIS289      0.1154
     43  CE1       35.1140   11.3790   67.8000 C.ar  289  HIS289      0.1986
     44  NE2       35.0330   10.4170   66.9000 N.ar  289  HIS289     -0.2212
     45  N         39.6060   14.5030   60.9180 N.3   292  ARG292     -0.1231
     46  CA        39.4220   13.4100   59.9510 C.3   292  ARG292      0.1694
     47  C         38.3820   13.7640   58.8830 C.2   292  ARG292      0.2591
     48  O         38.5370   13.4020   57.7080 O.2   292  ARG292     -0.2718
     49  CB        39.0330   12.1210   60.6860 C.3   292  ARG292      0.0321
     50  CG        40.1830   11.4530   61.4830 C.3   292  ARG292      0.0489
     51  CD        41.2250   10.7850   60.5600 C.3   292  ARG292      0.2205
     52  NE        42.3010   10.1450   61.3070 N.pl3 292  ARG292     -0.0865
     53  CZ        43.3700    9.5840   60.7480 C.cat 292  ARG292      0.5346
     54  NH1       43.5160    9.5740   59.4220 N.pl3 292  ARG292      0.1354
     55  NH2       44.2970    9.0310   61.5150 N.pl3 292  ARG292      0.1354
     56  N         37.3150   14.4750   59.2620 N.am  293  VAL293     -0.1980
     57  CA        36.3180   14.8910   58.2820 C.3   293  VAL293      0.1595
     58  C         36.8930   15.9320   57.3230 C.2   293  VAL293      0.2287
     59  O         36.6020   15.9170   56.1210 O.2   293  VAL293     -0.2864
     60  CB        35.0560   15.3990   59.0060 C.3   293  VAL293      0.0276
     61  CG1       34.1150   16.0580   58.0310 C.3   293  VAL293      0.0022
     62  CG2       34.3490   14.2230   59.7070 C.3   293  VAL293      0.0022
     63  N         39.1070   14.0700   54.8470 N.3   296  GLU296     -0.1245
     64  CA        38.4080   13.2970   53.8210 C.3   296  GLU296      0.1567
     65  C         37.8850   14.1850   52.6940 C.2   296  GLU296      0.2260
     66  O         37.7750   13.7100   51.5610 O.2   296  GLU296     -0.2867
     67  CB        37.2930   12.4660   54.4500 C.3   296  GLU296      0.0388
     68  CG        36.8080   11.2750   53.5330 C.3   296  GLU296      0.1160
     69  CD        35.7630   11.6770   52.4840 C.2   296  GLU296      0.3649
     70  OE1       34.9180   12.5230   52.8270 O.co2 296  GLU296     -0.2457
     71  OE2       35.7730   11.1350   51.3340 O.co2 296  GLU296     -0.2457
     72  N         24.7160   16.0910   53.8290 N.3   404  LYS404     -0.1231
     73  CA        25.4920   14.9100   53.4290 C.3   404  LYS404      0.1693
     74  C         26.3160   14.3230   54.5730 C.2   404  LYS404      0.2591
     75  O         26.5580   13.1070   54.6030 O.2   404  LYS404     -0.2718
     76  CB        26.4460   15.2490   52.2800 C.3   404  LYS404      0.0285
     77  CG        25.7870   15.6620   50.9830 C.3   404  LYS404      0.0035
     78  CD        26.8360   16.0850   49.9410 C.3   404  LYS404      0.0206
     79  CE        26.1760   16.5770   48.6610 C.3   404  LYS404      0.1093
     80  NZ        27.1750   17.1120   47.6940 N.3   404  LYS404     -0.1314
     81  N         26.8190   15.1490   55.4810 N.am  405  ILE405     -0.1980
     82  CA        27.6710   14.6530   56.5560 C.3   405  ILE405      0.1595
     83  C         26.9040   14.5450   57.8770 C.2   405  ILE405      0.2287
     84  O         27.5110   14.4510   58.9390 O.2   405  ILE405     -0.2864
     85  CB        28.9610   15.4860   56.6960 C.3   405  ILE405      0.0276
     86  CG1       28.6730   16.9390   57.0440 C.3   405  ILE405      0.0022
     87  CG2       29.7800   15.3910   55.3950 C.3   405  ILE405      0.0022
     88  CD1       29.9810   17.7450   57.4030 C.3   405  ILE405      0.0001
     89  N         32.7630   18.9590   46.6240 N.3   528  TYR528     -0.1241
     90  CA        33.0600   17.6270   47.1720 C.3   528  TYR528      0.1605
     91  C         33.0570   16.5560   46.0830 C.2   528  TYR528      0.2264
     92  O         32.1400   16.4900   45.2700 O.2   528  TYR528     -0.2867
     93  CB        32.0220   17.2850   48.2460 C.3   528  TYR528      0.0534
     94  CG        32.2170   15.9940   49.0360 C.ar  528  TYR528     -0.0201
     95  CD1       33.3470   15.7790   49.8130 C.ar  528  TYR528     -0.0009
     96  CD2       31.2200   15.0220   49.0580 C.ar  528  TYR528     -0.0009
     97  CE1       33.5030   14.6120   50.5580 C.ar  528  TYR528      0.0417
     98  CE2       31.3590   13.8650   49.7850 C.ar  528  TYR528      0.0417
     99  CZ        32.4950   13.6590   50.5400 C.ar  528  TYR528      0.1957
    100  OH        32.6160   12.5050   51.2740 O.3   528  TYR528     -0.2866
@<TRIPOS>BOND
     1    92    91    2
     2    91    90    1
     3    89    90    1
     4    90    93    1
     5    80    79    1
     6    93    94    1
     7    79    78    1
     8    94    96   ar
     9    94    95   ar
    10    96    98   ar
    11    98    99   ar
    12    95    97   ar
    13    78    77    1
    14    99    97   ar
    15    99   100    1
    16    77    76    1
    17    71    69   ar
    18    66    65    2
    19    76    73    1
    20    69    70   ar
    21    69    68    1
    22    65    64    1
    23    73    72    1
    24    73    74    1
    25    68    67    1
    26    64    67    1
    27    64    63    1
    28    74    75    2
    29    74    81   am
    30    87    85    1
    31    81    82    1
    32    59    58    2
    33    82    85    1
    34    82    83    1
    35    85    86    1
    36    86    88    1
    37    58    57    1
    38    48    47    2
    39    83    84    2
    40    61    60    1
    41    57    60    1
    42    57    56    1
    43    47    56   am
    44    47    46    1
    45    60    62    1
    46    54    53    1
    47    46    49    1
    48    46    45    1
    49    51    52    1
    50    51    50    1
    51    49    50    1
    52    53    52    2
    53    53    55    1
    54    27    25   ar
    55    27    26   ar
    56    38    37    2
    57    25    23   ar
    58    26    24   ar
    59    37    36    1
    60    23    21   ar
    61    23    22   ar
    62    24    21   ar
    63     9     7   am
    64    31    30    2
    65     8     7    2
    66    36    39    1
    67    36    35    1
    68    21    19   ar
    69    22    20   ar
    70     7     6    1
    71    39    40    1
    72    30    35   am
    73    30    29    1
    74    42    40   ar
    75    42    44   ar
    76    20    19   ar
    77    19    18    1
    78    33    32    1
    79    40    41   ar
    80     6     5    1
    81    29    32    1
    82    29    28    1
    83     5     2    1
    84    32    34    1
    85    44    43   ar
    86    18    15    1
    87    41    43   ar
    88    15    14    1
    89    15    16    1
    90     2     3    1
    91     2     1    1
    92     4     3    2
    93    14    12   am
    94     3    10   am
    95    16    17    2
    96    12    13    2
    97    12    11    1
    98    10    11    1
