@<TRIPOS>MOLECULE
tmp/6en5D00.pdb
 215 211 0 0 0
SMALL
GASTEIGER

@<TRIPOS>ATOM
      1  N         35.9880   41.2410   64.7800 N.3   256  GLN256     -0.1245
      2  CA        36.5230   41.0500   63.4380 C.3   256  GLN256      0.1566
      3  C         35.6520   40.1740   62.5620 C.2   256  GLN256      0.2260
      4  O         35.7230   40.2820   61.3340 O.2   256  GLN256     -0.2867
      5  CB        37.9370   40.4540   63.5060 C.3   256  GLN256      0.0367
      6  CG        38.0120   38.9560   63.9190 C.3   256  GLN256      0.0905
      7  CD        39.4730   38.4660   64.0410 C.2   256  GLN256      0.2608
      8  OE1       40.2930   39.0460   64.7850 O.2   256  GLN256     -0.2717
      9  NE2       39.7940   37.4050   63.3200 N.am  256  GLN256     -0.0878
     10  N         46.7120   29.9590   70.0490 N.3   328  HIS328     -0.1226
     11  CA        46.2930   30.4730   68.7420 C.3   328  HIS328      0.1752
     12  C         46.6520   29.4680   67.6570 C.2   328  HIS328      0.2596
     13  O         47.8130   29.0740   67.5220 O.2   328  HIS328     -0.2718
     14  CB        46.9520   31.8380   68.4590 C.3   328  HIS328      0.0759
     15  CG        46.3930   32.5420   67.2550 C.ar  328  HIS328      0.0818
     16  ND1       45.5190   33.6070   67.3420 N.ar  328  HIS328     -0.2268
     17  CD2       46.5710   32.3150   65.9320 C.ar  328  HIS328      0.1154
     18  CE1       45.1930   34.0100   66.1270 C.ar  328  HIS328      0.1986
     19  NE2       45.8160   33.2430   65.2540 N.ar  328  HIS328     -0.2212
     20  N         45.6530   29.0420   66.8830 N.am  329  ALA329     -0.1966
     21  CA        45.8370   27.9300   65.9520 C.3   329  ALA329      0.1728
     22  C         46.9090   28.2340   64.9000 C.2   329  ALA329      0.2617
     23  O         46.9540   29.3380   64.3440 O.2   329  ALA329     -0.2715
     24  CB        44.4960   27.6110   65.2680 C.3   329  ALA329      0.0334
     25  N         47.7600   27.2450   64.5920 N.am  330  SER330     -0.1936
     26  CA        48.7870   27.4640   63.5720 C.3   330  SER330      0.2055
     27  C         49.2400   26.1530   62.9210 C.2   330  SER330      0.2642
     28  O         49.1310   25.0700   63.5080 O.2   330  SER330     -0.2714
     29  CB        49.9860   28.2140   64.1700 C.3   330  SER330      0.2130
     30  OG        50.4890   27.5290   65.3070 O.3   330  SER330     -0.2179
     31  N         49.7560   26.2860   61.6880 N.am  331  ALA331     -0.1977
     32  CA        50.2680   25.2070   60.8450 C.3   331  ALA331      0.1597
     33  C         51.7850   25.3150   60.6770 C.2   331  ALA331      0.2287
     34  O         52.3360   26.4210   60.5780 O.2   331  ALA331     -0.2864
     35  CB        49.6030   25.2500   59.4620 C.3   331  ALA331      0.0319
     36  N         37.9360   26.7280   61.2330 N.3   355  THR355     -0.1218
     37  CA        39.3580   26.9480   61.5330 C.3   355  THR355      0.1862
     38  C         40.1950   25.7000   61.2390 C.2   355  THR355      0.2287
     39  O         41.3410   25.8100   60.7770 O.2   355  THR355     -0.2866
     40  CB        39.5420   27.3790   62.9950 C.3   355  THR355      0.1770
     41  OG1       38.8100   28.5830   63.2290 O.3   355  THR355     -0.2211
     42  CG2       41.0250   27.6250   63.3260 C.3   355  THR355      0.0375
     43  N         40.8000   25.7600   57.5890 N.3   358  HIS358     -0.1226
     44  CA        41.7960   26.8160   57.3170 C.3   358  HIS358      0.1752
     45  C         43.2310   26.3170   57.5440 C.2   358  HIS358      0.2595
     46  O         44.1010   26.4670   56.6760 O.2   358  HIS358     -0.2718
     47  CB        41.5020   28.0530   58.1680 C.3   358  HIS358      0.0759
     48  CG        42.4940   29.1670   57.9480 C.ar  358  HIS358      0.0818
     49  ND1       42.3000   30.1630   57.0130 N.ar  358  HIS358     -0.2268
     50  CD2       43.7180   29.3910   58.4880 C.ar  358  HIS358      0.1154
     51  CE1       43.3500   30.9660   57.0020 C.ar  358  HIS358      0.1986
     52  NE2       44.2240   30.5180   57.8880 N.ar  358  HIS358     -0.2212
     53  N         43.4930   25.7280   58.7140 N.am  359  GLU359     -0.1979
     54  CA        44.8240   25.2260   59.0400 C.3   359  GLU359      0.1602
     55  C         45.2400   24.0510   58.1510 C.2   359  GLU359      0.2287
     56  O         46.4120   23.9560   57.7470 O.2   359  GLU359     -0.2864
     57  CB        44.8860   24.8280   60.5160 C.3   359  GLU359      0.0415
     58  CG        44.5910   25.9630   61.4840 C.3   359  GLU359      0.1163
     59  CD        45.5500   27.1380   61.3550 C.2   359  GLU359      0.3649
     60  OE1       46.7220   26.9290   60.9690 O.co2 359  GLU359     -0.2457
     61  OE2       45.0940   28.2740   61.5800 O.co2 359  GLU359     -0.2457
     62  N         46.7520   25.0890   54.8670 N.3   362  HIS362     -0.1241
     63  CA        48.1860   25.3780   54.9420 C.3   362  HIS362      0.1621
     64  C         49.0050   24.0920   54.8060 C.2   362  HIS362      0.2264
     65  O         49.9860   24.0440   54.0430 O.2   362  HIS362     -0.2867
     66  CB        48.5330   26.0890   56.2670 C.3   362  HIS362      0.0745
     67  CG        48.0700   27.5170   56.3620 C.ar  362  HIS362      0.0817
     68  ND1       48.3040   28.4470   55.3740 N.ar  362  HIS362     -0.2268
     69  CD2       47.3970   28.1780   57.3440 C.ar  362  HIS362      0.1154
     70  CE1       47.7860   29.6120   55.7290 C.ar  362  HIS362      0.1986
     71  NE2       47.2510   29.4830   56.9300 N.ar  362  HIS362     -0.2212
     72  N         51.9190   22.7100   51.9910 N.3   366  TYR366     -0.1241
     73  CA        53.2470   22.1960   52.3320 C.3   366  TYR366      0.1605
     74  C         53.4990   20.8310   51.6890 C.2   366  TYR366      0.2264
     75  O         54.6150   20.5490   51.2200 O.2   366  TYR366     -0.2867
     76  CB        53.4320   22.0690   53.8510 C.3   366  TYR366      0.0534
     77  CG        53.1330   23.2860   54.7370 C.ar  366  TYR366     -0.0201
     78  CD1       53.2410   24.6000   54.2730 C.ar  366  TYR366     -0.0009
     79  CD2       52.7810   23.1010   56.0740 C.ar  366  TYR366     -0.0009
     80  CE1       52.9670   25.7080   55.1320 C.ar  366  TYR366      0.0417
     81  CE2       52.5100   24.1750   56.9270 C.ar  366  TYR366      0.0417
     82  CZ        52.6060   25.4760   56.4570 C.ar  366  TYR366      0.1957
     83  OH        52.3090   26.5150   57.3280 O.3   366  TYR366     -0.2866
     84  N         56.8110   28.4260   49.3490 N.3   378  ARG378     -0.1245
     85  CA        55.8660   29.4240   49.8370 C.3   378  ARG378      0.1563
     86  C         54.6730   29.4610   48.8940 C.2   378  ARG378      0.2260
     87  O         54.6850   28.8500   47.8260 O.2   378  ARG378     -0.2867
     88  CB        56.4710   30.8400   49.8990 C.3   378  ARG378      0.0307
     89  CG        57.9720   30.9330   50.1340 C.3   378  ARG378      0.0489
     90  CD        58.3600   30.6520   51.5800 C.3   378  ARG378      0.2205
     91  NE        57.5470   31.3820   52.5560 N.pl3 378  ARG378     -0.0865
     92  CZ        56.5740   30.8420   53.2900 C.cat 378  ARG378      0.5346
     93  NH1       56.2710   29.5620   53.1790 N.pl3 378  ARG378      0.1354
     94  NH2       55.9070   31.5910   54.1520 N.pl3 378  ARG378      0.1354
     95  N         48.1850   31.4000   50.2480 N.3   385  HIS385     -0.1226
     96  CA        48.2860   30.4370   51.3510 C.3   385  HIS385      0.1752
     97  C         47.0770   30.5290   52.2730 C.2   385  HIS385      0.2595
     98  O         46.5770   29.5100   52.7690 O.2   385  HIS385     -0.2718
     99  CB        49.5680   30.6830   52.1580 C.3   385  HIS385      0.0759
    100  CG        50.4180   29.4630   52.3500 C.ar  385  HIS385      0.0818
    101  ND1       49.9570   28.3170   52.9650 N.ar  385  HIS385     -0.2268
    102  CD2       51.7140   29.2200   52.0240 C.ar  385  HIS385      0.1154
    103  CE1       50.9300   27.4200   53.0080 C.ar  385  HIS385      0.1986
    104  NE2       52.0020   27.9380   52.4320 N.ar  385  HIS385     -0.2212
    105  N         46.6030   31.7450   52.5300 N.am  386  GLU386     -0.1979
    106  CA        45.4440   31.9330   53.4040 C.3   386  GLU386      0.1602
    107  C         44.1300   31.4630   52.7850 C.2   386  GLU386      0.2287
    108  O         43.1760   31.1990   53.5280 O.2   386  GLU386     -0.2864
    109  CB        45.3200   33.4000   53.8050 C.3   386  GLU386      0.0415
    110  CG        46.5090   33.9120   54.5950 C.3   386  GLU386      0.1163
    111  CD        46.8350   33.0020   55.7660 C.2   386  GLU386      0.3649
    112  OE1       45.8990   32.3720   56.3160 O.co2 386  GLU386     -0.2457
    113  OE2       48.0300   32.8520   56.0820 O.co2 386  GLU386     -0.2457
    114  N         39.9820   28.0410   53.2810 N.3   390  ASP390     -0.1239
    115  CA        38.7160   28.7810   53.2520 C.3   390  ASP390      0.1674
    116  C         37.8580   28.3850   52.0360 C.2   390  ASP390      0.2266
    117  O         36.6170   28.3400   52.1280 O.2   390  ASP390     -0.2867
    118  CB        38.9700   30.2890   53.2510 C.3   390  ASP390      0.1410
    119  CG        39.4010   30.8460   54.6350 C.2   390  ASP390      0.3668
    120  OD1       39.8600   30.0740   55.5100 O.co2 390  ASP390     -0.2456
    121  OD2       39.2560   32.0790   54.8560 O.co2 390  ASP390     -0.2456
    122  N         34.4840   41.0360   58.2200 N.3   432  PHE432     -0.1241
    123  CA        35.9400   40.9660   58.3750 C.3   432  PHE432      0.1605
    124  C         36.6670   41.9620   57.4740 C.2   432  PHE432      0.2264
    125  O         37.7560   42.4570   57.8260 O.2   432  PHE432     -0.2867
    126  CB        36.4120   39.5380   58.0840 C.3   432  PHE432      0.0534
    127  CG        37.8990   39.3540   58.2520 C.ar  432  PHE432     -0.0203
    128  CD1       38.4340   39.0980   59.5060 C.ar  432  PHE432     -0.0042
    129  CD2       38.7480   39.4450   57.1650 C.ar  432  PHE432     -0.0042
    130  CE1       39.8070   38.9610   59.6790 C.ar  432  PHE432     -0.0003
    131  CE2       40.1140   39.2880   57.3160 C.ar  432  PHE432     -0.0003
    132  CZ        40.6500   39.0470   58.5830 C.ar  432  PHE432     -0.0000
    133  N         45.9270   42.1270   70.0050 N.3   486  LYS486     -0.1231
    134  CA        45.6030   41.2620   68.8680 C.3   486  LYS486      0.1693
    135  C         46.8350   40.4330   68.5130 C.2   486  LYS486      0.2592
    136  O         47.8950   41.0070   68.2410 O.2   486  LYS486     -0.2718
    137  CB        45.1550   42.1070   67.6590 C.3   486  LYS486      0.0285
    138  CG        45.0070   41.3340   66.3590 C.3   486  LYS486      0.0035
    139  CD        43.8850   40.2880   66.3940 C.3   486  LYS486      0.0206
    140  CE        43.8430   39.4250   65.1300 C.3   486  LYS486      0.1093
    141  NZ        42.9240   38.2270   65.2830 N.3   486  LYS486     -0.1314
    142  N         46.6690   39.0990   68.4480 N.am  487  PHE487     -0.1962
    143  CA        47.7840   38.1370   68.3230 C.3   487  PHE487      0.1771
    144  C         48.8900   38.5630   67.3640 C.2   487  PHE487      0.2619
    145  O         50.0750   38.5430   67.7250 O.2   487  PHE487     -0.2715
    146  CB        47.2510   36.7460   67.8850 C.3   487  PHE487      0.0574
    147  CG        48.3530   35.6930   67.6630 C.ar  487  PHE487     -0.0200
    148  CD1       48.8210   34.9120   68.7150 C.ar  487  PHE487     -0.0042
    149  CD2       48.8950   35.4880   66.4060 C.ar  487  PHE487     -0.0042
    150  CE1       49.8220   33.9740   68.5120 C.ar  487  PHE487     -0.0003
    151  CE2       49.8930   34.5560   66.2010 C.ar  487  PHE487     -0.0003
    152  CZ        50.3490   33.7900   67.2530 C.ar  487  PHE487     -0.0000
    153  N         48.5340   38.9350   66.1240 N.am  488  HIS488     -0.1973
    154  CA        49.5220   39.1130   65.0710 C.3   488  HIS488      0.1656
    155  C         50.4870   40.2900   65.3210 C.2   488  HIS488      0.2291
    156  O         51.5620   40.3280   64.7200 O.2   488  HIS488     -0.2864
    157  CB        48.8100   39.2940   63.7390 C.3   488  HIS488      0.0771
    158  CG        47.9330   38.1320   63.3740 C.ar  488  HIS488      0.0820
    159  ND1       46.8110   37.7940   64.0980 N.ar  488  HIS488     -0.2267
    160  CD2       48.0100   37.2410   62.3570 C.ar  488  HIS488      0.1154
    161  CE1       46.2370   36.7320   63.5500 C.ar  488  HIS488      0.1986
    162  NE2       46.9460   36.3740   62.4910 N.ar  488  HIS488     -0.2212
    163  N         53.3170   38.8410   62.7330 N.3   493  THR493     -0.1218
    164  CA        52.8280   38.2150   61.5140 C.3   493  THR493      0.1862
    165  C         52.0710   39.2530   60.6950 C.2   493  THR493      0.2287
    166  O         51.1330   39.8630   61.2230 O.2   493  THR493     -0.2866
    167  CB        51.9110   37.0280   61.8460 C.3   493  THR493      0.1770
    168  OG1       52.6320   36.0750   62.6360 O.3   493  THR493     -0.2211
    169  CG2       51.3970   36.3450   60.5650 C.3   493  THR493      0.0375
    170  N         49.3760   41.1040   58.1580 N.3   495  TYR495     -0.1241
    171  CA        47.9210   40.9400   58.1370 C.3   495  TYR495      0.1605
    172  C         47.2510   41.1850   56.7760 C.2   495  TYR495      0.2264
    173  O         46.1590   40.6320   56.5430 O.2   495  TYR495     -0.2867
    174  CB        47.2540   41.8560   59.2010 C.3   495  TYR495      0.0534
    175  CG        46.0570   41.1850   59.8290 C.ar  495  TYR495     -0.0201
    176  CD1       46.2270   40.1330   60.7350 C.ar  495  TYR495     -0.0009
    177  CD2       44.7520   41.5430   59.4820 C.ar  495  TYR495     -0.0009
    178  CE1       45.1170   39.4520   61.2730 C.ar  495  TYR495      0.0417
    179  CE2       43.6500   40.8660   60.0240 C.ar  495  TYR495      0.0417
    180  CZ        43.8370   39.8350   60.9260 C.ar  495  TYR495      0.1957
    181  OH        42.7170   39.1470   61.4330 O.3   495  TYR495     -0.2866
    182  N         47.5670   39.9220   54.0190 N.3   497  ARG497     -0.1231
    183  CA        47.2770   38.6120   53.4430 C.3   497  ARG497      0.1694
    184  C         45.8280   38.1690   53.6490 C.2   497  ARG497      0.2592
    185  O         45.2740   37.4470   52.7950 O.2   497  ARG497     -0.2718
    186  CB        48.2320   37.5540   54.0440 C.3   497  ARG497      0.0321
    187  CG        48.2150   37.4540   55.6040 C.3   497  ARG497      0.0489
    188  CD        49.3410   36.5500   56.1640 C.3   497  ARG497      0.2205
    189  NE        50.6450   37.0370   55.7150 N.pl3 497  ARG497     -0.0865
    190  CZ        51.8220   36.4730   55.9820 C.cat 497  ARG497      0.5346
    191  NH1       51.9210   35.3730   56.7310 N.pl3 497  ARG497      0.1354
    192  NH2       52.9120   37.0280   55.4750 N.pl3 497  ARG497      0.1354
    193  N         45.2160   38.5230   54.7890 N.am  498  TYR498     -0.1976
    194  CA        43.8500   38.0630   55.0720 C.3   498  TYR498      0.1639
    195  C         42.8110   38.8790   54.2990 C.2   498  TYR498      0.2290
    196  O         41.8090   38.3290   53.8310 O.2   498  TYR498     -0.2864
    197  CB        43.5730   38.0910   56.5880 C.3   498  TYR498      0.0560
    198  CG        44.5190   37.2190   57.4110 C.ar  498  TYR498     -0.0198
    199  CD1       44.4840   35.8230   57.3360 C.ar  498  TYR498     -0.0009
    200  CD2       45.4670   37.7940   58.2400 C.ar  498  TYR498     -0.0009
    201  CE1       45.3720   35.0290   58.0860 C.ar  498  TYR498      0.0417
    202  CE2       46.3550   37.0180   58.9880 C.ar  498  TYR498      0.0417
    203  CZ        46.3030   35.6360   58.9100 C.ar  498  TYR498      0.1957
    204  OH        47.1570   34.8700   59.6720 O.3   498  TYR498     -0.2866
    205  N         40.3310   37.0660   51.5620 N.3   502  PHE502     -0.1241
    206  CA        38.8710   37.0680   51.6260 C.3   502  PHE502      0.1605
    207  C         38.2470   37.5180   50.2980 C.2   502  PHE502      0.2264
    208  O         37.0850   37.1900   50.0340 O.2   502  PHE502     -0.2867
    209  CB        38.3890   37.9450   52.8060 C.3   502  PHE502      0.0534
    210  CG        38.3020   37.2010   54.1460 C.ar  502  PHE502     -0.0203
    211  CD1       39.3650   36.4360   54.6080 C.ar  502  PHE502     -0.0042
    212  CD2       37.1560   37.2690   54.9370 C.ar  502  PHE502     -0.0042
    213  CE1       39.2930   35.7590   55.8420 C.ar  502  PHE502     -0.0003
    214  CE2       37.0830   36.5930   56.1800 C.ar  502  PHE502     -0.0003
    215  CZ        38.1500   35.8370   56.6210 C.ar  502  PHE502     -0.0000
@<TRIPOS>BOND
     1    87    86    2
     2    86    85    1
     3    84    85    1
     4    85    88    1
     5    88    89    1
     6   208   207    2
     7    89    90    1
     8    95    96    1
     9   207   206    1
    10    75    74    2
    11    96    99    1
    12    96    97    1
    13   205   206    1
    14    90    91    1
    15   206   209    1
    16    74    73    1
    17    72    73    1
    18   102   100   ar
    19   102   104   ar
    20   116   117    2
    21   116   115    1
    22    99   100    1
    23    97   105   am
    24    97    98    2
    25    73    76    1
    26   100   101   ar
    27   104   103   ar
    28   105   106    1
    29    91    92    2
    30   107   106    1
    31   107   108    2
    32   185   184    2
    33   209   210    1
    34   101   103   ar
    35    93    92    1
    36   118   115    1
    37   118   119    1
    38   115   114    1
    39    92    94    1
    40   106   109    1
    41   183   184    1
    42   183   182    1
    43   183   186    1
    44   184   193   am
    45   109   110    1
    46   196   195    2
    47    76    77    1
    48    65    64    2
    49   186   187    1
    50   210   211   ar
    51   210   212   ar
    52    78    77   ar
    53    78    80   ar
    54   195   194    1
    55   110   111    1
    56   211   213   ar
    57   119   121   ar
    58   119   120   ar
    59    77    79   ar
    60   193   194    1
    61    64    63    1
    62    62    63    1
    63   212   214   ar
    64    63    66    1
    65   194   197    1
    66    80    82   ar
    67    68    70   ar
    68    68    67   ar
    69   192   190    1
    70   187   188    1
    71   189   190    2
    72   189   188    1
    73    70    71   ar
    74   111   113   ar
    75   111   112   ar
    76   213   215   ar
    77   190   191    1
    78    79    81   ar
    79   214   215   ar
    80    66    67    1
    81    67    69   ar
    82    82    81   ar
    83    82    83    1
    84   173   172    2
    85   197   198    1
    86    46    45    2
    87   172   171    1
    88    71    69   ar
    89    51    49   ar
    90    51    52   ar
    91    49    48   ar
    92   129   131   ar
    93   129   127   ar
    94   131   132   ar
    95    44    45    1
    96    44    43    1
    97    44    47    1
    98   199   198   ar
    99   199   201   ar
   100   198   200   ar
   101   124   125    2
   102   124   123    1
   103    45    53   am
   104    56    55    2
   105    52    50   ar
   106    48    47    1
   107    48    50   ar
   108   126   127    1
   109   126   123    1
   110   201   203   ar
   111   171   170    1
   112   171   174    1
   113    55    54    1
   114   122   123    1
   115   200   202   ar
   116   127   128   ar
   117   132   130   ar
   118    53    54    1
   119   203   202   ar
   120   203   204    1
   121    54    57    1
   122   174   175    1
   123    35    32    1
   124   177   175   ar
   125   177   179   ar
   126   128   130   ar
   127   175   176   ar
   128   179   180   ar
   129    57    58    1
   130   169   167    1
   131    34    33    2
   132    33    32    1
   133   165   166    2
   134   165   164    1
   135   176   178   ar
   136    39    38    2
   137    32    31    1
   138   180   178   ar
   139   180   181    1
   140    60    59   ar
   141    36    37    1
   142    38    37    1
   143     4     3    2
   144    59    58    1
   145    59    61   ar
   146   164   167    1
   147   164   163    1
   148    37    40    1
   149    31    27   am
   150   167   168    1
   151   160   162   ar
   152   160   158   ar
   153   162   161   ar
   154     3     2    1
   155    27    28    2
   156    27    26    1
   157    40    41    1
   158    40    42    1
   159     9     7   am
   160   158   157    1
   161   158   159   ar
   162     2     5    1
   163     2     1    1
   164     5     6    1
   165   161   159   ar
   166    26    29    1
   167    26    25    1
   168   157   154    1
   169     6     7    1
   170     7     8    2
   171    29    30    1
   172    23    22    2
   173    25    22   am
   174   156   155    2
   175    22    21    1
   176   154   155    1
   177   154   153    1
   178   140   141    1
   179   140   139    1
   180    19    17   ar
   181    19    18   ar
   182    24    21    1
   183    17    15   ar
   184    21    20    1
   185   153   144   am
   186    18    16   ar
   187   151   149   ar
   188   151   152   ar
   189   138   139    1
   190   138   137    1
   191   149   147   ar
   192    20    12   am
   193   152   150   ar
   194    15    16   ar
   195    15    14    1
   196   144   145    2
   197   144   143    1
   198    13    12    2
   199    12    11    1
   200   137   134    1
   201   147   146    1
   202   147   148   ar
   203   146   143    1
   204   136   135    2
   205   143   142    1
   206   142   135   am
   207    14    11    1
   208   150   148   ar
   209   135   134    1
   210    11    10    1
   211   134   133    1
