@<TRIPOS>MOLECULE
tmp/6en5B09.pdb
 102 98 0 0 0
SMALL
GASTEIGER

@<TRIPOS>ATOM
      1  N        -24.1720  -12.3810    1.4970 N.3   224  PHE224     -0.1241
      2  CA       -25.1710  -13.4030    1.8340 C.3   224  PHE224      0.1605
      3  C        -24.8340  -14.0670    3.1710 C.2   224  PHE224      0.2264
      4  O        -25.7000  -14.2350    4.0400 O.2   224  PHE224     -0.2867
      5  CB       -25.2360  -14.4310    0.6870 C.3   224  PHE224      0.0534
      6  CG       -26.2730  -15.5240    0.8620 C.ar  224  PHE224     -0.0203
      7  CD1      -27.5930  -15.2860    0.5190 C.ar  224  PHE224     -0.0042
      8  CD2      -25.9280  -16.7790    1.3120 C.ar  224  PHE224     -0.0042
      9  CE1      -28.5580  -16.2910    0.6550 C.ar  224  PHE224     -0.0003
     10  CE2      -26.8980  -17.7810    1.4600 C.ar  224  PHE224     -0.0003
     11  CZ       -28.1980  -17.5260    1.1250 C.ar  224  PHE224     -0.0000
     12  N        -25.4820  -11.7640    6.1550 N.3   227  ARG227     -0.1231
     13  CA       -26.9020  -11.7840    6.4940 C.3   227  ARG227      0.1694
     14  C        -27.2530  -13.0300    7.3070 C.2   227  ARG227      0.2591
     15  O        -27.9730  -12.9470    8.3060 O.2   227  ARG227     -0.2718
     16  CB       -27.7330  -11.7180    5.2100 C.3   227  ARG227      0.0321
     17  CG       -29.2480  -11.8280    5.3890 C.3   227  ARG227      0.0489
     18  CD       -29.8280  -10.6880    6.2160 C.3   227  ARG227      0.2205
     19  NE       -29.7150   -9.3910    5.5560 N.pl3 227  ARG227     -0.0865
     20  CZ       -30.2860   -8.2740    6.0110 C.cat 227  ARG227      0.5346
     21  NH1      -31.0120   -8.3110    7.1230 N.pl3 227  ARG227      0.1354
     22  NH2      -30.1370   -7.1210    5.3580 N.pl3 227  ARG227      0.1354
     23  N        -26.7450  -14.1920    6.8970 N.am  228  ALA228     -0.1980
     24  CA       -27.0240  -15.4270    7.6230 C.3   228  ALA228      0.1597
     25  C        -26.5240  -15.3450    9.0580 C.2   228  ALA228      0.2287
     26  O        -27.2010  -15.7950    9.9930 O.2   228  ALA228     -0.2864
     27  CB       -26.3770  -16.6170    6.9040 C.3   228  ALA228      0.0319
     28  N        -28.7740  -13.1090   11.3550 N.3   231  ARG231     -0.1231
     29  CA       -29.9780  -13.7900   11.8170 C.3   231  ARG231      0.1694
     30  C        -29.7280  -14.6720   13.0380 C.2   231  ARG231      0.2591
     31  O        -30.6950  -15.0700   13.7010 O.2   231  ARG231     -0.2718
     32  CB       -30.5560  -14.6230   10.6660 C.3   231  ARG231      0.0321
     33  CG       -31.0910  -13.7770    9.5110 C.3   231  ARG231      0.0489
     34  CD       -31.5060  -14.5990    8.3170 C.3   231  ARG231      0.2205
     35  NE       -32.3760  -15.7310    8.6370 N.pl3 231  ARG231     -0.0865
     36  CZ       -32.5010  -16.8140    7.8690 C.cat 231  ARG231      0.5346
     37  NH1      -31.8080  -16.9100    6.7500 N.pl3 231  ARG231      0.1354
     38  NH2      -33.3110  -17.8060    8.2130 N.pl3 231  ARG231      0.1354
     39  N        -28.4720  -14.9960   13.3460 N.am  232  ARG232     -0.1980
     40  CA       -28.1380  -15.8580   14.4780 C.3   232  ARG232      0.1597
     41  C        -27.4770  -15.1190   15.6320 C.2   232  ARG232      0.2287
     42  O        -27.8450  -15.3310   16.7900 O.2   232  ARG232     -0.2864
     43  CB       -27.2400  -17.0010   13.9870 C.3   232  ARG232      0.0334
     44  CG       -27.8830  -17.6980   12.7970 C.3   232  ARG232      0.0492
     45  CD       -27.6820  -19.1870   12.7710 C.3   232  ARG232      0.2205
     46  NE       -28.4550  -19.7790   11.6810 N.pl3 232  ARG232     -0.0865
     47  CZ       -28.6860  -21.0820   11.5520 C.cat 232  ARG232      0.5346
     48  NH1      -29.4050  -21.5210   10.5310 N.pl3 232  ARG232      0.1354
     49  NH2      -28.2030  -21.9490   12.4440 N.pl3 232  ARG232      0.1354
     50  N        -25.3230  -23.0710    8.7840 N.3   263  MET263     -0.1230
     51  CA       -26.0100  -21.8130    9.0190 C.3   263  MET263      0.1702
     52  C        -26.3660  -21.0670    7.7400 C.2   263  MET263      0.2592
     53  O        -27.1240  -20.0920    7.8020 O.2   263  MET263     -0.2718
     54  CB       -25.1560  -20.9160    9.9160 C.3   263  MET263      0.0401
     55  CG       -24.9840  -21.4940   11.3320 C.3   263  MET263      0.0596
     56  SD       -24.2950  -20.3300   12.5170 S.3   263  MET263     -0.1393
     57  CE       -22.6570  -20.1970   11.8570 C.3   263  MET263      0.0692
     58  N        -25.8420  -21.4720    6.5860 N.am  264  VAL264     -0.1966
     59  CA       -26.0820  -20.7330    5.3500 C.3   264  VAL264      0.1727
     60  C        -26.8270  -21.5520    4.2960 C.2   264  VAL264      0.2616
     61  O        -27.3290  -20.9600    3.3260 O.2   264  VAL264     -0.2715
     62  CB       -24.7590  -20.2000    4.7510 C.3   264  VAL264      0.0290
     63  CG1      -23.9360  -19.4240    5.8070 C.3   264  VAL264      0.0023
     64  CG2      -23.9520  -21.3090    4.2040 C.3   264  VAL264      0.0023
     65  N        -26.9890  -22.8640    4.4820 N.am  265  VAL265     -0.1964
     66  CA       -27.5850  -23.7430    3.4630 C.3   265  VAL265      0.1712
     67  C        -28.9410  -23.1950    3.0300 C.2   265  VAL265      0.2458
     68  O        -29.8340  -23.0030    3.8680 O.2   265  VAL265     -0.2730
     69  CB       -27.6870  -25.2020    3.9540 C.3   265  VAL265      0.0289
     70  CG1      -28.3070  -25.2920    5.3220 C.3   265  VAL265      0.0023
     71  CG2      -28.4690  -26.0820    2.9490 C.3   265  VAL265      0.0023
     72  N        -29.1270  -22.9090    1.7350 N.am  266  PRO266     -0.2727
     73  CA       -30.3910  -22.2880    1.3040 C.3   266  PRO266      0.1402
     74  C        -31.6180  -23.1850    1.4100 C.2   266  PRO266      0.2269
     75  O        -32.7070  -22.6860    1.7240 O.2   266  PRO266     -0.2865
     76  CB       -30.0960  -21.8690   -0.1420 C.3   266  PRO266      0.0296
     77  CG       -28.8840  -22.5680   -0.5450 C.3   266  PRO266      0.0237
     78  CD       -28.0980  -22.8620    0.6830 C.3   266  PRO266      0.0939
     79  N        -32.6600  -26.4240    3.2740 N.3   268  PRO268     -0.2116
     80  CA       -32.3120  -27.4840    4.2450 C.3   268  PRO268      0.1372
     81  C        -33.1310  -28.7740    4.1140 C.2   268  PRO268      0.2244
     82  O        -32.7610  -29.7810    4.7390 O.2   268  PRO268     -0.2868
     83  CB       -32.5680  -26.8220    5.6100 C.3   268  PRO268      0.0268
     84  CG       -32.7810  -25.3760    5.3710 C.3   268  PRO268      0.0207
     85  CD       -33.0590  -25.1560    3.9140 C.3   268  PRO268      0.0892
     86  N        -30.5430  -12.9500   -5.0160 N.3   580  GLN580     -0.1245
     87  CA       -30.9690  -12.9740   -3.6200 C.3   580  GLN580      0.1566
     88  C        -30.5110  -11.7220   -2.8700 C.2   580  GLN580      0.2260
     89  O        -31.2790  -11.1540   -2.0820 O.2   580  GLN580     -0.2867
     90  CB       -30.4750  -14.2530   -2.9340 C.3   580  GLN580      0.0367
     91  CG       -31.0790  -15.5670   -3.4880 C.3   580  GLN580      0.0905
     92  CD       -32.5940  -15.6340   -3.3230 C.2   580  GLN580      0.2608
     93  OE1      -33.3300  -15.8220   -4.2950 O.2   580  GLN580     -0.2717
     94  NE2      -33.0620  -15.4540   -2.0930 N.am  580  GLN580     -0.0878
     95  N        -32.9910   -8.9180   -1.1040 N.3   584  ASN584     -0.1240
     96  CA       -32.8920   -8.7120    0.3370 C.3   584  ASN584      0.1653
     97  C        -32.3890   -7.3230    0.7190 C.2   584  ASN584      0.2266
     98  O        -32.2230   -7.0500    1.9110 O.2   584  ASN584     -0.2867
     99  CB       -31.9750   -9.7790    0.9490 C.3   584  ASN584      0.1155
    100  CG       -32.5150  -11.1930    0.7530 C.2   584  ASN584      0.2627
    101  OD1      -33.7090  -11.3820    0.5260 O.2   584  ASN584     -0.2716
    102  ND2      -31.6360  -12.1880    0.8320 N.am  584  ASN584     -0.0877
@<TRIPOS>BOND
     1    86    87    1
     2    93    92    2
     3    87    90    1
     4    87    88    1
     5    91    92    1
     6    91    90    1
     7    92    94   am
     8    88    89    2
     9    95    96    1
    10    77    76    1
    11    77    78    1
    12    76    73    1
    13    96    97    1
    14    96    99    1
    15     7     9   ar
    16     7     6   ar
    17   101   100    2
    18     9    11   ar
    19    78    72    1
    20     5     6    1
    21     5     2    1
    22    97    98    2
    23   100   102   am
    24   100    99    1
    25     6     8   ar
    26    11    10   ar
    27    73    74    1
    28    73    72    1
    29     8    10   ar
    30    74    75    2
    31     1     2    1
    32    72    67   am
    33     2     3    1
    34    71    69    1
    35    67    66    1
    36    67    68    2
    37     3     4    2
    38    79    85    1
    39    79    80    1
    40    61    60    2
    41    66    69    1
    42    66    65    1
    43    85    84    1
    44    69    70    1
    45    81    80    1
    46    81    82    2
    47    64    62    1
    48    80    83    1
    49    60    65   am
    50    60    59    1
    51    62    59    1
    52    62    63    1
    53    16    17    1
    54    16    13    1
    55    59    58    1
    56    22    20    1
    57    84    83    1
    58    17    18    1
    59    19    20    2
    60    19    18    1
    61    20    21    1
    62    12    13    1
    63    13    14    1
    64    58    52   am
    65    37    36    1
    66    23    14   am
    67    23    24    1
    68    27    24    1
    69    14    15    2
    70    24    25    1
    71    52    53    2
    72    52    51    1
    73    36    38    1
    74    36    35    2
    75    34    35    1
    76    34    33    1
    77    50    51    1
    78    51    54    1
    79    25    26    2
    80    33    32    1
    81    54    55    1
    82    48    47    1
    83    32    29    1
    84    55    56    1
    85    28    29    1
    86    47    46    2
    87    47    49    1
    88    46    45    1
    89    29    30    1
    90    57    56    1
    91    45    44    1
    92    44    43    1
    93    30    39   am
    94    30    31    2
    95    39    40    1
    96    43    40    1
    97    40    41    1
    98    41    42    2
