@<TRIPOS>MOLECULE
tmp/6en5D05.pdb
 80 76 0 0 0
SMALL
GASTEIGER

@<TRIPOS>ATOM
      1  N         62.6460   25.4530   63.5770 N.3    36  VAL36      -0.1245
      2  CA        61.2150   25.1430   63.7280 C.3    36  VAL36       0.1561
      3  C         60.9900   24.2150   64.9160 C.2    36  VAL36       0.2260
      4  O         60.0420   24.3950   65.6970 O.2    36  VAL36      -0.2867
      5  CB        60.6540   24.5390   62.4300 C.3    36  VAL36       0.0252
      6  CG1       59.1650   24.1890   62.5880 C.3    36  VAL36       0.0019
      7  CG2       60.8330   25.5070   61.2550 C.3    36  VAL36       0.0019
      8  N         61.1620   26.2230   68.0510 N.3    39  SER39      -0.1217
      9  CA        59.9370   27.0130   68.1750 C.3    39  SER39       0.1889
     10  C         58.7490   26.1460   68.5990 C.2    39  SER39       0.2288
     11  O         57.9200   26.5810   69.4090 O.2    39  SER39      -0.2866
     12  CB        59.6360   27.7440   66.8600 C.3    39  SER39       0.2089
     13  OG        60.5470   28.8200   66.6240 O.3    39  SER39      -0.2183
     14  N         56.4050   26.8470   71.9110 N.3    43  ASP43      -0.1239
     15  CA        54.9900   27.2030   71.7670 C.3    43  ASP43       0.1674
     16  C         54.0450   26.1440   72.3580 C.2    43  ASP43       0.2266
     17  O         52.8810   26.4700   72.6660 O.2    43  ASP43      -0.2867
     18  CB        54.6490   27.4340   70.2720 C.3    43  ASP43       0.1410
     19  CG        55.2180   28.7360   69.7020 C.2    43  ASP43       0.3668
     20  OD1       55.9990   29.4440   70.3870 O.co2  43  ASP43      -0.2456
     21  OD2       54.8790   29.0470   68.5270 O.co2  43  ASP43      -0.2456
     22  N         47.7600   27.2450   64.5920 N.3   330  SER330     -0.1202
     23  CA        48.7870   27.4640   63.5720 C.3   330  SER330      0.2020
     24  C         49.2400   26.1530   62.9210 C.2   330  SER330      0.2619
     25  O         49.1310   25.0700   63.5080 O.2   330  SER330     -0.2717
     26  CB        49.9860   28.2140   64.1700 C.3   330  SER330      0.2103
     27  OG        50.4890   27.5290   65.3070 O.3   330  SER330     -0.2182
     28  N         49.7560   26.2860   61.6880 N.am  331  ALA331     -0.1965
     29  CA        50.2680   25.2070   60.8450 C.3   331  ALA331      0.1728
     30  C         51.7850   25.3150   60.6770 C.2   331  ALA331      0.2616
     31  O         52.3360   26.4210   60.5780 O.2   331  ALA331     -0.2715
     32  CB        49.6030   25.2500   59.4620 C.3   331  ALA331      0.0334
     33  N         52.4510   24.1520   60.5990 N.am  332  TRP332     -0.1960
     34  CA        53.9050   24.0560   60.7750 C.3   332  TRP332      0.1771
     35  C         54.5560   23.1730   59.6990 C.2   332  TRP332      0.2619
     36  O         54.2640   21.9770   59.6050 O.2   332  TRP332     -0.2715
     37  CB        54.2300   23.5120   62.1750 C.3   332  TRP332      0.0590
     38  CG        53.8180   24.4070   63.3290 C.ar  332  TRP332      0.0006
     39  CD1       52.5450   24.7480   63.7160 C.ar  332  TRP332      0.0946
     40  CD2       54.7040   25.0810   64.2360 C.ar  332  TRP332      0.0152
     41  NE1       52.5960   25.5830   64.8140 N.ar  332  TRP332     -0.2442
     42  CE2       53.9120   25.8040   65.1440 C.ar  332  TRP332      0.0810
     43  CE3       56.0940   25.1170   64.3730 C.ar  332  TRP332      0.0012
     44  CZ2       54.4660   26.5660   66.1750 C.ar  332  TRP332      0.0191
     45  CZ3       56.6390   25.8630   65.3850 C.ar  332  TRP332      0.0001
     46  CH2       55.8260   26.5810   66.2780 C.ar  332  TRP332      0.0015
     47  N         55.4540   23.7650   58.9130 N.am  333  ASP333     -0.1971
     48  CA        56.3460   23.0620   57.9820 C.3   333  ASP333      0.1709
     49  C         57.7340   23.0070   58.6120 C.2   333  ASP333      0.2293
     50  O         58.3120   24.0570   58.9190 O.2   333  ASP333     -0.2864
     51  CB        56.3710   23.8130   56.6400 C.3   333  ASP333      0.1436
     52  CG        57.0970   23.0660   55.5000 C.2   333  ASP333      0.3671
     53  OD1       57.8000   22.0620   55.7480 O.co2 333  ASP333     -0.2456
     54  OD2       56.9400   23.5170   54.3210 O.co2 333  ASP333     -0.2456
     55  N         46.6690   39.0990   68.4480 N.3   487  PHE487     -0.1241
     56  CA        47.7840   38.1370   68.3230 C.3   487  PHE487      0.1605
     57  C         48.8900   38.5630   67.3640 C.2   487  PHE487      0.2264
     58  O         50.0750   38.5430   67.7250 O.2   487  PHE487     -0.2867
     59  CB        47.2510   36.7460   67.8850 C.3   487  PHE487      0.0534
     60  CG        48.3530   35.6930   67.6630 C.ar  487  PHE487     -0.0203
     61  CD1       48.8210   34.9120   68.7150 C.ar  487  PHE487     -0.0042
     62  CD2       48.8950   35.4880   66.4060 C.ar  487  PHE487     -0.0042
     63  CE1       49.8220   33.9740   68.5120 C.ar  487  PHE487     -0.0003
     64  CE2       49.8930   34.5560   66.2010 C.ar  487  PHE487     -0.0003
     65  CZ        50.3490   33.7900   67.2530 C.ar  487  PHE487     -0.0000
     66  N         53.1810   38.8930   67.8640 N.3   491  ASN491     -0.1240
     67  CA        53.8030   37.7390   67.2200 C.3   491  ASN491      0.1653
     68  C         54.3250   38.0630   65.8050 C.2   491  ASN491      0.2266
     69  O         54.7940   37.1630   65.1060 O.2   491  ASN491     -0.2867
     70  CB        52.8140   36.5470   67.2560 C.3   491  ASN491      0.1155
     71  CG        52.6160   36.0230   68.7010 C.2   491  ASN491      0.2627
     72  OD1       53.4150   35.2140   69.1930 O.2   491  ASN491     -0.2716
     73  ND2       51.6090   36.5400   69.3980 N.am  491  ASN491     -0.0877
     74  N         53.3170   38.8410   62.7330 N.3   493  THR493     -0.1218
     75  CA        52.8280   38.2150   61.5140 C.3   493  THR493      0.1862
     76  C         52.0710   39.2530   60.6950 C.2   493  THR493      0.2287
     77  O         51.1330   39.8630   61.2230 O.2   493  THR493     -0.2866
     78  CB        51.9110   37.0280   61.8460 C.3   493  THR493      0.1770
     79  OG1       52.6320   36.0750   62.6360 O.3   493  THR493     -0.2211
     80  CG2       51.3970   36.3450   60.5650 C.3   493  THR493      0.0375
@<TRIPOS>BOND
     1    54    52   ar
     2    52    53   ar
     3    52    51    1
     4    51    48    1
     5    48    49    1
     6    48    47    1
     7    49    50    2
     8    47    35   am
     9    32    29    1
    10    36    35    2
    11    35    34    1
    12    80    78    1
    13    31    30    2
    14    33    30   am
    15    33    34    1
    16    30    29    1
    17    76    77    2
    18    76    75    1
    19    34    37    1
    20    29    28    1
    21     7     5    1
    22    75    78    1
    23    75    74    1
    24    28    24   am
    25    78    79    1
    26    37    38    1
    27     5     6    1
    28     5     2    1
    29    24    25    2
    30    24    23    1
    31    38    39   ar
    32    38    40   ar
    33    23    26    1
    34    23    22    1
    35     1     2    1
    36    39    41   ar
    37     2     3    1
    38    26    27    1
    39    40    43   ar
    40    40    42   ar
    41    43    45   ar
    42    41    42   ar
    43     3     4    2
    44    69    68    2
    45    42    44   ar
    46    45    46   ar
    47    68    67    1
    48    44    46   ar
    49    64    62   ar
    50    64    65   ar
    51    62    60   ar
    52    13    12    1
    53    12     9    1
    54    67    70    1
    55    67    66    1
    56    65    63   ar
    57    70    71    1
    58    57    58    2
    59    57    56    1
    60    60    59    1
    61    60    61   ar
    62    59    56    1
    63     8     9    1
    64     9    10    1
    65    56    55    1
    66    63    61   ar
    67    21    19   ar
    68    10    11    2
    69    71    72    2
    70    71    73   am
    71    19    18    1
    72    19    20   ar
    73    18    15    1
    74    15    14    1
    75    15    16    1
    76    16    17    2
