@<TRIPOS>MOLECULE
tmp/6en5C07.pdb
 77 71 0 0 0
SMALL
GASTEIGER

@<TRIPOS>ATOM
      1  N         17.5030   -8.2970   44.5520 N.3    42  HIS42      -0.1241
      2  CA        16.7280   -9.2790   45.3220 C.3    42  HIS42       0.1621
      3  C         17.1820   -9.3420   46.7840 C.2    42  HIS42       0.2264
      4  O         16.3540   -9.3190   47.7060 O.2    42  HIS42      -0.2867
      5  CB        16.8510  -10.6690   44.6860 C.3    42  HIS42       0.0745
      6  CG        16.2610  -11.7690   45.5170 C.ar   42  HIS42       0.0817
      7  ND1       16.9640  -12.4030   46.5230 N.ar   42  HIS42      -0.2268
      8  CD2       15.0390  -12.3560   45.4830 C.ar   42  HIS42       0.1154
      9  CE1       16.1950  -13.3260   47.0790 C.ar   42  HIS42       0.1986
     10  NE2       15.0240  -13.3210   46.4650 N.ar   42  HIS42      -0.2212
     11  N         13.6250   -8.5280   49.1970 N.3    46  ILE46      -0.1231
     12  CA        13.1410   -9.8490   48.8000 C.3    46  ILE46       0.1692
     13  C         11.6670   -9.7570   48.4040 C.2    46  ILE46       0.2593
     14  O         10.8070   -9.4990   49.2490 O.2    46  ILE46      -0.2718
     15  CB        13.3490  -10.8810   49.9080 C.3    46  ILE46       0.0266
     16  CG1       14.8270  -11.0400   50.2590 C.3    46  ILE46       0.0019
     17  CG2       12.8140  -12.2320   49.4490 C.3    46  ILE46       0.0020
     18  CD1       15.0060  -11.7830   51.5540 C.3    46  ILE46       0.0001
     19  N         11.3680   -9.9900   47.1240 N.am   47  THR47      -0.1939
     20  CA         9.9970  -10.0210   46.6160 C.3    47  THR47       0.2028
     21  C          9.9080  -11.0730   45.5160 C.2    47  THR47       0.2642
     22  O         10.9110  -11.4530   44.9050 O.2    47  THR47      -0.2714
     23  CB         9.5410   -8.6710   46.0340 C.3    47  THR47       0.1808
     24  OG1       10.2520   -8.4090   44.8210 O.3    47  THR47      -0.2208
     25  CG2        9.7740   -7.5290   47.0140 C.3    47  THR47       0.0379
     26  N          8.6850  -11.5170   45.2280 N.am   48  ALA48      -0.1977
     27  CA         8.5140  -12.4860   44.1500 C.3    48  ALA48       0.1597
     28  C          8.9640  -11.9030   42.8180 C.2    48  ALA48       0.2287
     29  O          9.5670  -12.6020   41.9940 O.2    48  ALA48      -0.2864
     30  CB         7.0510  -12.9470   44.0770 C.3    48  ALA48       0.0319
     31  N         12.7640  -11.9030   42.6280 N.3    51  ALA51      -0.1245
     32  CA        13.2280  -13.2680   42.3910 C.3    51  ALA51       0.1562
     33  C         13.0640  -13.6480   40.9230 C.2    51  ALA51       0.2260
     34  O         13.9630  -14.2530   40.3180 O.2    51  ALA51      -0.2867
     35  CB        12.4610  -14.2450   43.2830 C.3    51  ALA51       0.0290
     36  N         16.4100  -19.5310   44.4490 N.3   116  SER116     -0.1202
     37  CA        15.6130  -18.4120   44.9830 C.3   116  SER116      0.2020
     38  C         14.7830  -18.8330   46.1890 C.2   116  SER116      0.2618
     39  O         14.7050  -18.1110   47.1880 O.2   116  SER116     -0.2717
     40  CB        14.6620  -17.8270   43.9250 C.3   116  SER116      0.2103
     41  OG        15.3390  -17.3550   42.8030 O.3   116  SER116     -0.2182
     42  N         14.1140  -19.9830   46.1070 N.am  117  GLN117     -0.1979
     43  CA        13.1770  -20.3370   47.1740 C.3   117  GLN117      0.1601
     44  C         13.9040  -20.7720   48.4450 C.2   117  GLN117      0.2287
     45  O         13.4440  -20.4840   49.5590 O.2   117  GLN117     -0.2864
     46  CB        12.2250  -21.4360   46.6870 C.3   117  GLN117      0.0394
     47  CG        11.2510  -20.9520   45.5960 C.3   117  GLN117      0.0908
     48  CD        10.4560  -19.6840   45.9870 C.2   117  GLN117      0.2608
     49  OE1        9.8910  -19.5790   47.0840 O.2   117  GLN117     -0.2717
     50  NE2       10.4210  -18.7190   45.0800 N.am  117  GLN117     -0.0878
     51  N         14.9580  -17.5220   50.0960 N.3   120  ARG120     -0.1245
     52  CA        13.8270  -16.8590   50.7420 C.3   120  ARG120      0.1563
     53  C         13.4820  -17.5170   52.0700 C.2   120  ARG120      0.2260
     54  O         13.2240  -16.8320   53.0680 O.2   120  ARG120     -0.2867
     55  CB        12.6130  -16.8830   49.8180 C.3   120  ARG120      0.0307
     56  CG        11.3670  -16.2480   50.4530 C.3   120  ARG120      0.0489
     57  CD        10.1150  -16.4460   49.6310 C.3   120  ARG120      0.2205
     58  NE         9.8230  -17.8590   49.3700 N.pl3 120  ARG120     -0.0865
     59  CZ         9.3280  -18.7080   50.2710 C.cat 120  ARG120      0.5346
     60  NH1        9.0670  -18.3070   51.5130 N.pl3 120  ARG120      0.1354
     61  NH2        9.0940  -19.9690   49.9290 N.pl3 120  ARG120      0.1354
     62  N         13.8130  -15.2590   55.5510 N.3   124  THR124     -0.1218
     63  CA        12.5600  -14.7320   56.0960 C.3   124  THR124      0.1862
     64  C         11.9800  -15.5750   57.2270 C.2   124  THR124      0.2287
     65  O         10.8990  -15.2470   57.7240 O.2   124  THR124     -0.2866
     66  CB        11.4920  -14.5760   55.0000 C.3   124  THR124      0.1770
     67  OG1       11.0470  -15.8630   54.5260 O.3   124  THR124     -0.2211
     68  CG2       12.0120  -13.7370   53.8430 C.3   124  THR124      0.0375
     69  N         11.9980   -6.8470   53.6730 N.3   323  GLU323     -0.1245
     70  CA        12.6870   -8.1050   53.9410 C.3   323  GLU323      0.1567
     71  C         14.0070   -8.1210   53.1710 C.2   323  GLU323      0.2260
     72  O         14.0280   -7.8470   51.9690 O.2   323  GLU323     -0.2867
     73  CB        11.8260   -9.3050   53.5470 C.3   323  GLU323      0.0388
     74  CG        10.5230   -9.4540   54.3380 C.3   323  GLU323      0.1160
     75  CD        10.5440  -10.6040   55.3480 C.2   323  GLU323      0.3649
     76  OE1        9.6140  -11.4270   55.2730 O.co2 323  GLU323     -0.2457
     77  OE2       11.4780  -10.7130   56.1900 O.co2 323  GLU323     -0.2457
@<TRIPOS>BOND
     1    34    33    2
     2    33    32    1
     3    29    28    2
     4    32    31    1
     5    32    35    1
     6    41    40    1
     7    28    27    1
     8    40    37    1
     9    30    27    1
    10    27    26    1
    11    36    37    1
    12     1     2    1
    13     5     2    1
    14     5     6    1
    15    24    23    1
    16    22    21    2
    17    37    38    1
    18    50    48   am
    19    26    21   am
    20     2     3    1
    21     8     6   ar
    22     8    10   ar
    23    21    20    1
    24     6     7   ar
    25    47    48    1
    26    47    46    1
    27    48    49    2
    28    23    20    1
    29    23    25    1
    30    42    38   am
    31    42    43    1
    32    38    39    2
    33    10     9   ar
    34     7     9   ar
    35    20    19    1
    36    46    43    1
    37     3     4    2
    38    19    13   am
    39    43    44    1
    40    13    12    1
    41    13    14    2
    42    44    45    2
    43    12    11    1
    44    12    15    1
    45    58    57    1
    46    58    59    2
    47    17    15    1
    48    57    56    1
    49    55    56    1
    50    55    52    1
    51    15    16    1
    52    61    59    1
    53    51    52    1
    54    16    18    1
    55    59    60    1
    56    52    53    1
    57    72    71    2
    58    53    54    2
    59    71    70    1
    60    73    70    1
    61    73    74    1
    62    69    70    1
    63    68    66    1
    64    74    75    1
    65    67    66    1
    66    66    63    1
    67    76    75   ar
    68    75    77   ar
    69    62    63    1
    70    63    64    1
    71    64    65    2
