@<TRIPOS>MOLECULE
tmp/6en5A10.pdb
 132 131 0 0 0
SMALL
GASTEIGER

@<TRIPOS>ATOM
      1  N          0.1160   47.9540   16.1710 N.3   281  GLN281     -0.1231
      2  CA         0.5950   49.0290   15.3000 C.3   281  GLN281      0.1698
      3  C         -0.3890   49.4110   14.1990 C.2   281  GLN281      0.2593
      4  O         -0.1200   50.3620   13.4530 O.2   281  GLN281     -0.2718
      5  CB         1.9600   48.6550   14.6740 C.3   281  GLN281      0.0381
      6  CG         3.1220   48.5760   15.6690 C.3   281  GLN281      0.0905
      7  CD         4.4450   48.1480   15.0280 C.2   281  GLN281      0.2608
      8  OE1        4.4860   47.7760   13.8540 O.2   281  GLN281     -0.2717
      9  NE2        5.5360   48.2160   15.7970 N.am  281  GLN281     -0.0878
     10  N         -1.5090   48.7140   14.0620 N.am  282  GLY282     -0.1942
     11  CA        -2.5040   49.0830   13.0610 C.3   282  GLY282      0.2014
     12  C         -2.2150   48.6530   11.6350 C.2   282  GLY282      0.2639
     13  O         -2.7190   49.2830   10.6940 O.2   282  GLY282     -0.2714
     14  N         -1.4370   47.5840   11.4390 N.am  283  TRP283     -0.1959
     15  CA        -1.2120   47.0630   10.0910 C.3   283  TRP283      0.1771
     16  C         -2.5300   46.6470    9.4430 C.2   283  TRP283      0.2619
     17  O         -3.4340   46.1270   10.1080 O.2   283  TRP283     -0.2715
     18  CB        -0.2630   45.8570   10.1230 C.3   283  TRP283      0.0590
     19  CG         1.1660   46.1590   10.4280 C.ar  283  TRP283      0.0006
     20  CD1        1.6650   46.7790   11.5460 C.ar  283  TRP283      0.0946
     21  CD2        2.3110   45.8170    9.6240 C.ar  283  TRP283      0.0152
     22  NE1        3.0320   46.8540   11.4780 N.ar  283  TRP283     -0.2442
     23  CE2        3.4560   46.2810   10.3080 C.ar  283  TRP283      0.0810
     24  CE3        2.4760   45.1770    8.3890 C.ar  283  TRP283      0.0012
     25  CZ2        4.7510   46.1070    9.8120 C.ar  283  TRP283      0.0191
     26  CZ3        3.7730   45.0100    7.8910 C.ar  283  TRP283      0.0001
     27  CH2        4.8860   45.4840    8.6010 C.ar  283  TRP283      0.0015
     28  N         -2.6300   46.8660    8.1300 N.am  284  GLN284     -0.1977
     29  CA        -3.7470   46.4040    7.3080 C.3   284  GLN284      0.1601
     30  C         -3.2070   45.6620    6.0840 C.2   284  GLN284      0.2287
     31  O         -1.9970   45.6280    5.8330 O.2   284  GLN284     -0.2864
     32  CB        -4.6380   47.5850    6.8870 C.3   284  GLN284      0.0394
     33  CG        -5.2050   48.3550    8.0790 C.3   284  GLN284      0.0908
     34  CD        -6.0310   49.5650    7.6710 C.2   284  GLN284      0.2608
     35  OE1       -5.8550   50.1190    6.5850 O.2   284  GLN284     -0.2717
     36  NE2       -6.9500   49.9710    8.5410 N.am  284  GLN284     -0.0878
     37  N         -3.0880   46.3900    2.9580 N.3   286  THR286     -0.1203
     38  CA        -2.2500   47.1770    2.0560 C.3   286  THR286      0.1994
     39  C         -0.8170   47.2930    2.5640 C.2   286  THR286      0.2617
     40  O          0.1310   47.2120    1.7720 O.2   286  THR286     -0.2717
     41  CB        -2.8480   48.5700    1.8490 C.3   286  THR286      0.1784
     42  OG1       -4.1870   48.4490    1.3550 O.3   286  THR286     -0.2211
     43  CG2       -2.0320   49.3240    0.8340 C.3   286  THR286      0.0376
     44  N         -0.6300   47.4870    3.8720 N.am  287  HIS287     -0.1975
     45  CA         0.7240   47.5990    4.3950 C.3   287  HIS287      0.1656
     46  C          1.4780   46.2940    4.2030 C.2   287  HIS287      0.2291
     47  O          2.6740   46.2980    3.8920 O.2   287  HIS287     -0.2864
     48  CB         0.7160   47.9630    5.8820 C.3   287  HIS287      0.0771
     49  CG        -0.0750   49.1850    6.2120 C.ar  287  HIS287      0.0820
     50  ND1       -1.3900   49.1290    6.6160 N.ar  287  HIS287     -0.2267
     51  CD2        0.2700   50.4970    6.2320 C.ar  287  HIS287      0.1154
     52  CE1       -1.8290   50.3520    6.8550 C.ar  287  HIS287      0.1986
     53  NE2       -0.8410   51.2020    6.6310 N.ar  287  HIS287     -0.2212
     54  N          2.6110   46.0630    0.5730 N.3   290  ARG290     -0.1231
     55  CA         3.6790   47.0160    0.2460 C.3   290  ARG290      0.1694
     56  C          4.9990   46.6280    0.9020 C.2   290  ARG290      0.2591
     57  O          6.0760   46.8390    0.3230 O.2   290  ARG290     -0.2718
     58  CB         3.2650   48.4320    0.6580 C.3   290  ARG290      0.0321
     59  CG         2.2170   49.0550   -0.2630 C.3   290  ARG290      0.0489
     60  CD         2.7780   49.4600   -1.6190 C.3   290  ARG290      0.2205
     61  NE         1.7600   50.1160   -2.4420 N.pl3 290  ARG290     -0.0865
     62  CZ         1.9440   50.4960   -3.7030 C.cat 290  ARG290      0.5346
     63  NH1        3.1040   50.2870   -4.3000 N.pl3 290  ARG290      0.1354
     64  NH2        0.9690   51.0900   -4.3670 N.pl3 290  ARG290      0.1354
     65  N          4.9490   46.0760    2.1160 N.am  291  VAL291     -0.1980
     66  CA         6.1860   45.6430    2.7560 C.3   291  VAL291      0.1595
     67  C          6.7800   44.4430    2.0180 C.2   291  VAL291      0.2287
     68  O          8.0030   44.3280    1.8880 O.2   291  VAL291     -0.2864
     69  CB         5.9550   45.3630    4.2530 C.3   291  VAL291      0.0276
     70  CG1        7.1560   44.6790    4.8620 C.3   291  VAL291      0.0022
     71  CG2        5.6830   46.6910    4.9950 C.3   291  VAL291      0.0022
     72  N          8.4830   45.7150   -1.1360 N.3   294  GLU294     -0.1245
     73  CA         9.7580   46.4030   -0.9270 C.3   294  GLU294      0.1567
     74  C         10.9040   45.4130   -0.7250 C.2   294  GLU294      0.2260
     75  O         12.0470   45.7240   -1.0840 O.2   294  GLU294     -0.2867
     76  CB         9.6640   47.3780    0.2530 C.3   294  GLU294      0.0388
     77  CG        10.7980   48.4630    0.2570 C.3   294  GLU294      0.1160
     78  CD        12.0950   47.9940    0.9000 C.2   294  GLU294      0.3649
     79  OE1       12.0080   47.2530    1.9110 O.co2 294  GLU294     -0.2457
     80  OE2       13.2070   48.3720    0.4170 O.co2 294  GLU294     -0.2457
     81  N         -2.2860   46.7960   -8.5390 N.3   309  TRP309     -0.1227
     82  CA        -2.9450   47.5120   -7.4440 C.3   309  TRP309      0.1737
     83  C         -4.3750   47.8950   -7.8060 C.2   309  TRP309      0.2595
     84  O         -5.2580   47.9180   -6.9340 O.2   309  TRP309     -0.2718
     85  CB        -2.1290   48.7640   -7.0580 C.3   309  TRP309      0.0564
     86  CG        -0.7320   48.4410   -6.6160 C.ar  309  TRP309      0.0003
     87  CD1        0.4080   48.6230   -7.3290 C.ar  309  TRP309      0.0946
     88  CD2       -0.3330   47.8300   -5.3730 C.ar  309  TRP309      0.0152
     89  NE1        1.4900   48.1930   -6.6110 N.ar  309  TRP309     -0.2442
     90  CE2        1.0600   47.6920   -5.4090 C.ar  309  TRP309      0.0810
     91  CE3       -1.0280   47.3910   -4.2360 C.ar  309  TRP309      0.0012
     92  CZ2        1.7830   47.1300   -4.3600 C.ar  309  TRP309      0.0191
     93  CZ3       -0.3080   46.8380   -3.1900 C.ar  309  TRP309      0.0001
     94  CH2        1.0850   46.7190   -3.2580 C.ar  309  TRP309      0.0015
     95  N         -4.6330   48.2050   -9.0730 N.am  310  GLU310     -0.1979
     96  CA        -5.9790   48.6030   -9.4650 C.3   310  GLU310      0.1602
     97  C         -6.9230   47.4060   -9.5480 C.2   310  GLU310      0.2287
     98  O         -8.1260   47.5490   -9.2730 O.2   310  GLU310     -0.2864
     99  CB        -5.9370   49.3290  -10.8160 C.3   310  GLU310      0.0415
    100  CG        -5.2290   50.6940  -10.7880 C.3   310  GLU310      0.1163
    101  CD        -5.7950   51.6310   -9.7300 C.2   310  GLU310      0.3649
    102  OE1       -7.0340   51.8110   -9.6980 O.co2 310  GLU310     -0.2457
    103  OE2       -5.0030   52.1870   -8.9340 O.co2 310  GLU310     -0.2457
    104  N         14.4720   44.8770   12.0610 N.3   402  LYS402     -0.1231
    105  CA        14.6850   45.9340   11.0730 C.3   402  LYS402      0.1693
    106  C         13.3820   46.6040   10.6440 C.2   402  LYS402      0.2591
    107  O         13.3810   47.8050   10.3490 O.2   402  LYS402     -0.2718
    108  CB        15.3930   45.3850    9.8260 C.3   402  LYS402      0.0285
    109  CG        16.8090   44.8620   10.0180 C.3   402  LYS402      0.0035
    110  CD        17.3100   44.2510    8.6940 C.3   402  LYS402      0.0206
    111  CE        18.7090   43.6490    8.7770 C.3   402  LYS402      0.1093
    112  NZ        19.0760   42.9670    7.4870 N.3   402  LYS402     -0.1314
    113  N         12.2770   45.8590   10.5720 N.am  403  ILE403     -0.1980
    114  CA        11.0100   46.4070   10.1050 C.3   403  ILE403      0.1595
    115  C         10.0690   46.7340   11.2700 C.2   403  ILE403      0.2287
    116  O          8.8730   46.9290   11.0610 O.2   403  ILE403     -0.2864
    117  CB        10.3280   45.4830    9.0730 C.3   403  ILE403      0.0276
    118  CG1        9.9580   44.1090    9.6600 C.3   403  ILE403      0.0022
    119  CG2       11.2380   45.3160    7.8400 C.3   403  ILE403      0.0022
    120  CD1        9.0860   43.2630    8.7220 C.3   403  ILE403      0.0001
    121  N         18.0010   40.4060    2.3930 N.3   526  TYR526     -0.1241
    122  CA        17.4970   41.7530    2.1410 C.3   526  TYR526      0.1605
    123  C         18.6160   42.6590    1.6250 C.2   526  TYR526      0.2264
    124  O         19.7140   42.6530    2.1660 O.2   526  TYR526     -0.2867
    125  CB        16.9270   42.2990    3.4490 C.3   526  TYR526      0.0534
    126  CG        16.2040   43.6420    3.4150 C.ar  526  TYR526     -0.0201
    127  CD1       15.0470   43.8290    2.6720 C.ar  526  TYR526     -0.0009
    128  CD2       16.6570   44.7030    4.1920 C.ar  526  TYR526     -0.0009
    129  CE1       14.3740   45.0440    2.6800 C.ar  526  TYR526      0.0417
    130  CE2       15.9890   45.9220    4.2070 C.ar  526  TYR526      0.0417
    131  CZ        14.8570   46.0890    3.4490 C.ar  526  TYR526      0.1957
    132  OH        14.1990   47.2990    3.4680 O.3   526  TYR526     -0.2866
@<TRIPOS>BOND
     1    99   100    1
     2    99    96    1
     3   100   101    1
     4   101   102   ar
     5   101   103   ar
     6    97    96    1
     7    97    98    2
     8    96    95    1
     9    95    83   am
    10    81    82    1
    11    83    82    1
    12    83    84    2
    13    82    85    1
    14    87    86   ar
    15    87    89   ar
    16    85    86    1
    17    86    88   ar
    18    89    90   ar
    19    90    88   ar
    20    90    92   ar
    21    88    91   ar
    22    64    62    1
    23    92    94   ar
    24    63    62    1
    25    91    93   ar
    26    62    61    2
    27    94    93   ar
    28    61    60    1
    29    60    59    1
    30    72    73    1
    31    75    74    2
    32    73    74    1
    33    73    76    1
    34    59    58    1
    35    55    54    1
    36    55    58    1
    37    55    56    1
    38    76    77    1
    39    77    78    1
    40    57    56    2
    41    80    78   ar
    42    43    41    1
    43    78    79   ar
    44    56    65   am
    45    42    41    1
    46   123   122    1
    47   123   124    2
    48    40    39    2
    49    41    38    1
    50    68    67    2
    51    67    66    1
    52    38    39    1
    53    38    37    1
    54    65    66    1
    55   122   121    1
    56   122   125    1
    57    39    44   am
    58   127   129   ar
    59   127   126   ar
    60   129   131   ar
    61    66    69    1
    62   126   125    1
    63   126   128   ar
    64   131   132    1
    65   131   130   ar
    66    44    45    1
    67    47    46    2
    68   128   130   ar
    69    46    45    1
    70    69    70    1
    71    69    71    1
    72    45    48    1
    73    31    30    2
    74    48    49    1
    75    30    29    1
    76    49    51   ar
    77    49    50   ar
    78    51    53   ar
    79    35    34    2
    80    50    52   ar
    81    53    52   ar
    82    32    29    1
    83    32    33    1
    84    29    28    1
    85   112   111    1
    86    34    33    1
    87    34    36   am
    88   119   117    1
    89    26    24   ar
    90    26    27   ar
    91    28    16   am
    92    24    21   ar
    93    27    25   ar
    94   110   111    1
    95   110   109    1
    96   120   118    1
    97   117   118    1
    98   117   114    1
    99    16    15    1
   100    16    17    2
   101    21    23   ar
   102    21    19   ar
   103    25    23   ar
   104   108   109    1
   105   108   105    1
   106    15    18    1
   107    15    14    1
   108   114   113    1
   109   114   115    1
   110    18    19    1
   111    23    22   ar
   112   107   106    2
   113    19    20   ar
   114   113   106   am
   115   106   105    1
   116    13    12    2
   117   116   115    2
   118   105   104    1
   119    14    12   am
   120    22    20   ar
   121    12    11    1
   122    11    10    1
   123     4     3    2
   124     8     7    2
   125    10     3   am
   126     3     2    1
   127     5     2    1
   128     5     6    1
   129     7     6    1
   130     7     9   am
   131     2     1    1
