@<TRIPOS>MOLECULE
tmp/6en6B02.pdb
 104 103 0 0 0
SMALL
GASTEIGER

@<TRIPOS>ATOM
      1  N        -24.3590  -12.2890    1.5290 N.3   222  PHE222     -0.1241
      2  CA       -25.3420  -13.3260    1.8510 C.3   222  PHE222      0.1605
      3  C        -25.0460  -13.9670    3.2070 C.2   222  PHE222      0.2264
      4  O        -25.9470  -14.1610    4.0380 O.2   222  PHE222     -0.2867
      5  CB       -25.3500  -14.3760    0.7390 C.3   222  PHE222      0.0534
      6  CG       -26.4070  -15.4490    0.8960 C.ar  222  PHE222     -0.0203
      7  CD1      -27.7190  -15.1740    0.5470 C.ar  222  PHE222     -0.0042
      8  CD2      -26.0900  -16.7060    1.3460 C.ar  222  PHE222     -0.0042
      9  CE1      -28.6990  -16.1380    0.6670 C.ar  222  PHE222     -0.0003
     10  CE2      -27.1080  -17.6910    1.4870 C.ar  222  PHE222     -0.0003
     11  CZ       -28.3790  -17.3940    1.1280 C.ar  222  PHE222     -0.0000
     12  N        -25.6890  -11.6660    6.2100 N.3   225  ARG225     -0.1231
     13  CA       -27.1070  -11.6810    6.5460 C.3   225  ARG225      0.1694
     14  C        -27.4630  -12.9110    7.3990 C.2   225  ARG225      0.2591
     15  O        -28.1910  -12.7900    8.3910 O.2   225  ARG225     -0.2718
     16  CB       -27.9470  -11.6300    5.2610 C.3   225  ARG225      0.0321
     17  CG       -29.4630  -11.7340    5.4720 C.3   225  ARG225      0.0489
     18  CD       -30.0550  -10.5770    6.2920 C.3   225  ARG225      0.2205
     19  NE       -29.9030   -9.3020    5.5990 N.pl3 225  ARG225     -0.0865
     20  CZ       -30.4600   -8.1520    5.9950 C.cat 225  ARG225      0.5346
     21  NH1      -31.2180   -8.1120    7.0820 N.pl3 225  ARG225      0.1354
     22  NH2      -30.2640   -7.0320    5.3020 N.pl3 225  ARG225      0.1354
     23  N        -26.9540  -14.1010    7.0260 N.am  226  ALA226     -0.1980
     24  CA       -27.2220  -15.3210    7.7850 C.3   226  ALA226      0.1597
     25  C        -26.7070  -15.2210    9.2160 C.2   226  ALA226      0.2287
     26  O        -27.4030  -15.6220   10.1560 O.2   226  ALA226     -0.2864
     27  CB       -26.5850  -16.5370    7.0840 C.3   226  ALA226      0.0319
     28  N        -28.9730  -13.0710   11.4630 N.3   229  ARG229     -0.1231
     29  CA       -30.1670  -13.7320   11.9760 C.3   229  ARG229      0.1694
     30  C        -29.8760  -14.6260   13.1770 C.2   229  ARG229      0.2591
     31  O        -30.8090  -14.9370   13.9230 O.2   229  ARG229     -0.2718
     32  CB       -30.8450  -14.5260   10.8430 C.3   229  ARG229      0.0321
     33  CG       -31.3910  -13.5860    9.7450 C.3   229  ARG229      0.0489
     34  CD       -31.6060  -14.3000    8.4500 C.3   229  ARG229      0.2205
     35  NE       -32.3320  -15.5390    8.6850 N.pl3 229  ARG229     -0.0865
     36  CZ       -32.5080  -16.4840    7.7720 C.cat 229  ARG229      0.5346
     37  NH1      -31.9890  -16.3290    6.5630 N.pl3 229  ARG229      0.1354
     38  NH2      -33.1960  -17.5810    8.0640 N.pl3 229  ARG229      0.1354
     39  N        -28.6140  -15.0320   13.3870 N.am  230  ARG230     -0.1980
     40  CA       -28.1780  -15.8180   14.5440 C.3   230  ARG230      0.1597
     41  C        -27.7210  -14.9610   15.7080 C.2   230  ARG230      0.2287
     42  O        -28.1570  -15.1680   16.8470 O.2   230  ARG230     -0.2864
     43  CB       -26.9850  -16.7090   14.1920 C.3   230  ARG230      0.0334
     44  CG       -27.2920  -18.1290   14.0840 C.3   230  ARG230      0.0492
     45  CD       -27.8970  -18.3070   12.7650 C.3   230  ARG230      0.2205
     46  NE       -28.2730  -19.6730   12.5030 N.pl3 230  ARG230     -0.0865
     47  CZ       -28.7330  -20.0430   11.3220 C.cat 230  ARG230      0.5346
     48  NH1      -28.8250  -19.1230   10.3520 N.pl3 230  ARG230      0.1354
     49  NH2      -29.0850  -21.3070   11.1200 N.pl3 230  ARG230      0.1354
     50  N        -25.5860  -22.9630    8.8440 N.3   261  MET261     -0.1230
     51  CA       -26.2890  -21.7020    9.0570 C.3   261  MET261      0.1702
     52  C        -26.6670  -20.9780    7.7650 C.2   261  MET261      0.2592
     53  O        -27.4290  -20.0090    7.8320 O.2   261  MET261     -0.2718
     54  CB       -25.4230  -20.7580    9.9250 C.3   261  MET261      0.0401
     55  CG       -25.2500  -21.2550   11.3770 C.3   261  MET261      0.0596
     56  SD       -24.4560  -20.0880   12.5190 S.3   261  MET261     -0.1393
     57  CE       -22.8030  -20.1910   11.9210 C.3   261  MET261      0.0692
     58  N        -26.1560  -21.4170    6.6120 N.am  262  VAL262     -0.1966
     59  CA       -26.2770  -20.6930    5.3500 C.3   262  VAL262      0.1727
     60  C        -27.0650  -21.4560    4.2880 C.2   262  VAL262      0.2616
     61  O        -27.5490  -20.8360    3.3260 O.2   262  VAL262     -0.2715
     62  CB       -24.8570  -20.3880    4.8170 C.3   262  VAL262      0.0290
     63  CG1      -24.8810  -19.7690    3.4370 C.3   262  VAL262      0.0023
     64  CG2      -24.1100  -19.5080    5.8250 C.3   262  VAL262      0.0023
     65  N        -27.2740  -22.7530    4.4570 N.am  263  VAL263     -0.1964
     66  CA       -27.8910  -23.6230    3.4560 C.3   263  VAL263      0.1712
     67  C        -29.2620  -23.1100    3.0160 C.2   263  VAL263      0.2458
     68  O        -30.1760  -22.9800    3.8420 O.2   263  VAL263     -0.2730
     69  CB       -27.9690  -25.0630    3.9790 C.3   263  VAL263      0.0289
     70  CG1      -28.6120  -25.1150    5.3470 C.3   263  VAL263      0.0023
     71  CG2      -28.7260  -25.9750    2.9950 C.3   263  VAL263      0.0023
     72  N        -29.4650  -22.8560    1.7170 N.am  264  PRO264     -0.2716
     73  CA       -30.7510  -22.2760    1.2840 C.3   264  PRO264      0.1536
     74  C        -31.9430  -23.2110    1.3650 C.2   264  PRO264      0.2598
     75  O        -33.0380  -22.7550    1.7100 O.2   264  PRO264     -0.2715
     76  CB       -30.4720  -21.8410   -0.1610 C.3   264  PRO264      0.0310
     77  CG       -29.2100  -22.4570   -0.5520 C.3   264  PRO264      0.0237
     78  CD       -28.4250  -22.7530    0.6780 C.3   264  PRO264      0.0939
     79  N        -31.7930  -24.4900    1.0560 N.am  265  PHE265     -0.1961
     80  CA       -32.9310  -25.4210    0.9520 C.3   265  PHE265      0.1756
     81  C        -32.6770  -26.6390    1.8400 C.2   265  PHE265      0.2461
     82  O        -32.2400  -27.7010    1.3790 O.2   265  PHE265     -0.2730
     83  CB       -33.1800  -25.7890   -0.5140 C.3   265  PHE265      0.0574
     84  CG       -33.4160  -24.5900   -1.3680 C.ar  265  PHE265     -0.0200
     85  CD1      -34.6060  -23.8680   -1.2600 C.ar  265  PHE265     -0.0042
     86  CD2      -32.4330  -24.1210   -2.2200 C.ar  265  PHE265     -0.0042
     87  CE1      -34.8020  -22.7230   -2.0140 C.ar  265  PHE265     -0.0003
     88  CE2      -32.6330  -22.9860   -2.9760 C.ar  265  PHE265     -0.0003
     89  CZ       -33.8220  -22.2800   -2.8760 C.ar  265  PHE265     -0.0000
     90  N        -32.9040  -26.4920    3.1540 N.am  266  PRO266     -0.2727
     91  CA       -32.5940  -27.5760    4.0980 C.3   266  PRO266      0.1402
     92  C        -33.4620  -28.8420    4.0270 C.2   266  PRO266      0.2269
     93  O        -33.0740  -29.8210    4.6700 O.2   266  PRO266     -0.2865
     94  CB       -32.7000  -26.8960    5.4790 C.3   266  PRO266      0.0296
     95  CG       -33.3710  -25.5960    5.2680 C.3   266  PRO266      0.0237
     96  CD       -33.2780  -25.2290    3.8290 C.3   266  PRO266      0.0939
     97  N        -33.1830   -8.7810   -1.0170 N.3   582  ASN582     -0.1240
     98  CA       -33.1020   -8.5230    0.4110 C.3   582  ASN582      0.1653
     99  C        -32.6070   -7.1150    0.7230 C.2   582  ASN582      0.2266
    100  O        -32.4380   -6.7720    1.9000 O.2   582  ASN582     -0.2867
    101  CB       -32.1890   -9.5580    1.0950 C.3   582  ASN582      0.1155
    102  CG       -32.7050  -11.0110    0.9510 C.2   582  ASN582      0.2627
    103  OD1      -31.9080  -11.9630    0.8820 O.2   582  ASN582     -0.2716
    104  ND2      -34.0120  -11.1670    0.7740 N.am  582  ASN582     -0.0877
@<TRIPOS>BOND
     1    88    89   ar
     2    88    86   ar
     3    89    87   ar
     4    86    84   ar
     5    87    85   ar
     6    84    85   ar
     7    84    83    1
     8    97    98    1
     9    77    76    1
    10    77    78    1
    11    83    80    1
    12    76    73    1
    13    98    99    1
    14    98   101    1
    15     7     9   ar
    16     7     6   ar
    17     9    11   ar
    18    78    72    1
    19    99   100    2
    20     5     6    1
    21     5     2    1
    22   104   102   am
    23   103   102    2
    24     6     8   ar
    25   102   101    1
    26    80    79    1
    27    80    81    1
    28    79    74   am
    29    11    10   ar
    30    73    74    1
    31    73    72    1
    32     8    10   ar
    33    74    75    2
    34    82    81    2
    35     1     2    1
    36    72    67   am
    37    81    90   am
    38     2     3    1
    39    71    69    1
    40    67    66    1
    41    67    68    2
    42    90    96    1
    43    90    91    1
    44     3     4    2
    45    61    60    2
    46    63    62    1
    47    66    69    1
    48    66    65    1
    49    96    95    1
    50    69    70    1
    51    92    91    1
    52    92    93    2
    53    91    94    1
    54    60    65   am
    55    60    59    1
    56    62    59    1
    57    62    64    1
    58    16    17    1
    59    16    13    1
    60    95    94    1
    61    22    20    1
    62    59    58    1
    63    17    18    1
    64    19    20    2
    65    19    18    1
    66    20    21    1
    67    12    13    1
    68    13    14    1
    69    37    36    1
    70    58    52   am
    71    23    14   am
    72    23    24    1
    73    27    24    1
    74    14    15    2
    75    52    53    2
    76    52    51    1
    77    36    38    1
    78    36    35    2
    79    24    25    1
    80    34    35    1
    81    34    33    1
    82    50    51    1
    83    51    54    1
    84    25    26    2
    85    33    32    1
    86    54    55    1
    87    48    47    1
    88    32    29    1
    89    49    47    1
    90    47    46    2
    91    55    56    1
    92    28    29    1
    93    57    56    1
    94    29    30    1
    95    46    45    1
    96    45    44    1
    97    30    39   am
    98    30    31    2
    99    39    40    1
   100    44    43    1
   101    43    40    1
   102    40    41    1
   103    41    42    2
