@<TRIPOS>MOLECULE
tmp/6en6B00.pdb
 77 75 0 0 0
SMALL
GASTEIGER

@<TRIPOS>ATOM
      1  N         16.6340   -8.1820   -5.7410 N.3   186  THR186     -0.1218
      2  CA        16.4490   -6.9730   -4.9390 C.3   186  THR186      0.1862
      3  C         16.0030   -7.2920   -3.5050 C.2   186  THR186      0.2287
      4  O         16.3180   -6.5270   -2.5800 O.2   186  THR186     -0.2866
      5  CB        15.4560   -6.0470   -5.6590 C.3   186  THR186      0.1770
      6  OG1       15.4130   -4.7740   -5.0140 O.3   186  THR186     -0.2211
      7  CG2       14.0700   -6.6400   -5.7010 C.3   186  THR186      0.0375
      8  N         11.2700  -11.0350   -4.6110 N.3   190  ALA190     -0.1245
      9  CA        11.5960  -11.0770   -6.0350 C.3   190  ALA190      0.1562
     10  C         12.1060  -12.4530   -6.4370 C.2   190  ALA190      0.2260
     11  O         11.8120  -12.9370   -7.5420 O.2   190  ALA190     -0.2867
     12  CB        12.6370  -10.0000   -6.3680 C.3   190  ALA190      0.0290
     13  N          8.9510  -14.7900   -6.5430 N.3   193  ARG193     -0.1231
     14  CA         8.1320  -14.5300   -7.7290 C.3   193  ARG193      0.1694
     15  C          8.8140  -15.0090   -9.0180 C.2   193  ARG193      0.2592
     16  O          8.1230  -15.3030  -10.0050 O.2   193  ARG193     -0.2718
     17  CB         7.8090  -13.0310   -7.8450 C.3   193  ARG193      0.0321
     18  CG         6.8960  -12.4780   -6.7600 C.3   193  ARG193      0.0489
     19  CD         6.5040  -11.0290   -6.9510 C.3   193  ARG193      0.2205
     20  NE         7.6190  -10.0630   -7.0090 N.pl3 193  ARG193     -0.0865
     21  CZ         8.1670   -9.4430   -5.9620 C.cat 193  ARG193      0.5346
     22  NH1        7.7500   -9.6870   -4.7110 N.pl3 193  ARG193      0.1354
     23  NH2        9.1500   -8.5670   -6.1850 N.pl3 193  ARG193      0.1354
     24  N         10.1550  -15.0990   -9.0360 N.am  194  SER194     -0.1952
     25  CA        10.8720  -15.5260  -10.2540 C.3   194  SER194      0.1924
     26  C         10.5440  -16.9630  -10.6770 C.2   194  SER194      0.2314
     27  O         10.7610  -17.3220  -11.8460 O.2   194  SER194     -0.2863
     28  CB        12.3990  -15.3960  -10.0580 C.3   194  SER194      0.2116
     29  OG        12.9630  -16.5070   -9.3540 O.3   194  SER194     -0.2180
     30  N          7.6410  -15.1760  -15.5150 N.3   198  SER198     -0.1203
     31  CA         6.7100  -14.2640  -16.1550 C.3   198  SER198      0.2005
     32  C          6.9700  -12.8230  -15.7510 C.2   198  SER198      0.2461
     33  O          6.7600  -12.4720  -14.5850 O.2   198  SER198     -0.2732
     34  CB         5.2800  -14.6280  -15.7920 C.3   198  SER198      0.2103
     35  OG         4.4300  -13.6010  -16.2580 O.3   198  SER198     -0.2182
     36  N          7.3900  -11.9450  -16.6700 N.am  199  PRO199     -0.2717
     37  CA         7.6180  -10.5430  -16.2860 C.3   199  PRO199      0.1536
     38  C          6.3460   -9.7880  -15.8970 C.2   199  PRO199      0.2599
     39  O          6.4580   -8.6910  -15.3310 O.2   199  PRO199     -0.2715
     40  CB         8.2800   -9.9390  -17.5370 C.3   199  PRO199      0.0310
     41  CG         7.8480  -10.7820  -18.6400 C.3   199  PRO199      0.0237
     42  CD         7.7370  -12.1790  -18.0840 C.3   199  PRO199      0.0939
     43  N          5.1550  -10.3210  -16.1870 N.am  200  THR200     -0.1937
     44  CA         3.9060   -9.6450  -15.8630 C.3   200  THR200      0.2028
     45  C          3.1250  -10.3080  -14.7150 C.2   200  THR200      0.2642
     46  O          1.9450  -10.0100  -14.5500 O.2   200  THR200     -0.2714
     47  CB         3.0180   -9.5680  -17.1090 C.3   200  THR200      0.1808
     48  OG1        2.8440  -10.8750  -17.6880 O.3   200  THR200     -0.2208
     49  CG2        3.6310   -8.6140  -18.1390 C.3   200  THR200      0.0379
     50  N          3.7800  -11.1250  -13.8810 N.am  201  PHE201     -0.1959
     51  CA         3.0890  -11.9510  -12.8750 C.3   201  PHE201      0.1771
     52  C          2.1230  -11.1400  -12.0140 C.2   201  PHE201      0.2619
     53  O          0.9400  -11.4890  -11.9130 O.2   201  PHE201     -0.2715
     54  CB         4.1200  -12.6760  -11.9940 C.3   201  PHE201      0.0574
     55  CG         3.5470  -13.7170  -11.0370 C.ar  201  PHE201     -0.0200
     56  CD1        2.6410  -14.6600  -11.4570 C.ar  201  PHE201     -0.0042
     57  CD2        3.9930  -13.7680   -9.7110 C.ar  201  PHE201     -0.0042
     58  CE1        2.1550  -15.6310  -10.5830 C.ar  201  PHE201     -0.0003
     59  CE2        3.5130  -14.7290   -8.8360 C.ar  201  PHE201     -0.0003
     60  CZ         2.5910  -15.6640   -9.2810 C.ar  201  PHE201     -0.0000
     61  N          2.5950  -10.0440  -11.3950 N.am  202  GLU202     -0.1963
     62  CA         1.7640   -9.3320  -10.4220 C.3   202  GLU202      0.1733
     63  C          0.5780   -8.6470  -11.0940 C.2   202  GLU202      0.2616
     64  O         -0.5160   -8.6080  -10.5230 O.2   202  GLU202     -0.2715
     65  CB         2.5880   -8.2970   -9.6460 C.3   202  GLU202      0.0429
     66  CG         3.6650   -8.8800   -8.7590 C.3   202  GLU202      0.1163
     67  CD         4.3590   -7.8290   -7.9260 C.2   202  GLU202      0.3649
     68  OE1        3.6860   -7.2410   -7.0310 O.co2 202  GLU202     -0.2457
     69  OE2        5.5750   -7.5940   -8.1730 O.co2 202  GLU202     -0.2457
     70  N          0.7840   -8.0690  -12.2930 N.am  203  ASP203     -0.1971
     71  CA        -0.3240   -7.4570  -13.0300 C.3   203  ASP203      0.1709
     72  C         -1.3350   -8.5030  -13.4740 C.2   203  ASP203      0.2293
     73  O         -2.5450   -8.2300  -13.5220 O.2   203  ASP203     -0.2864
     74  CB         0.1710   -6.7010  -14.2710 C.3   203  ASP203      0.1436
     75  CG         0.8730   -5.4090  -13.9510 C.2   203  ASP203      0.3671
     76  OD1        0.7470   -4.8830  -12.8260 O.co2 203  ASP203     -0.2456
     77  OD2        1.5310   -4.8840  -14.8750 O.co2 203  ASP203     -0.2456
@<TRIPOS>BOND
     1    41    42    1
     2    41    40    1
     3    49    47    1
     4    42    36    1
     5    48    47    1
     6    40    37    1
     7    47    44    1
     8    36    37    1
     9    36    32   am
    10    37    38    1
    11    35    34    1
    12    43    38   am
    13    43    44    1
    14    31    34    1
    15    31    32    1
    16    31    30    1
    17    38    39    2
    18    44    45    1
    19    32    33    2
    20    77    75   ar
    21    45    46    2
    22    45    50   am
    23    74    75    1
    24    74    71    1
    25    75    76   ar
    26    50    51    1
    27    73    72    2
    28    72    71    1
    29    71    70    1
    30    51    52    1
    31    51    54    1
    32    70    63   am
    33    52    53    2
    34    52    61   am
    35    54    55    1
    36    27    26    2
    37    56    55   ar
    38    56    58   ar
    39    61    62    1
    40    63    64    2
    41    63    62    1
    42    55    57   ar
    43    26    25    1
    44    58    60   ar
    45    62    65    1
    46    25    28    1
    47    25    24    1
    48    28    29    1
    49    16    15    2
    50    57    59   ar
    51    65    66    1
    52    60    59   ar
    53    24    15   am
    54    15    14    1
    55    66    67    1
    56    69    67   ar
    57    67    68   ar
    58    17    14    1
    59    17    18    1
    60    14    13    1
    61    11    10    2
    62    20    19    1
    63    20    21    2
    64    19    18    1
    65    10     9    1
    66    12     9    1
    67    23    21    1
    68     9     8    1
    69    21    22    1
    70     1     2    1
    71     7     5    1
    72     5     6    1
    73     5     2    1
    74     2     3    1
    75     3     4    2
