@<TRIPOS>MOLECULE
tmp/6en6D01.pdb
 74 71 0 0 0
SMALL
GASTEIGER

@<TRIPOS>ATOM
      1  N         34.6300   14.9600   68.7390 N.3   285  GLN285     -0.1245
      2  CA        35.7960   15.4610   69.4520 C.3   285  GLN285      0.1566
      3  C         36.7850   16.0310   68.4320 C.2   285  GLN285      0.2260
      4  O         36.6030   15.9020   67.2200 O.2   285  GLN285     -0.2867
      5  CB        36.4660   14.3770   70.3080 C.3   285  GLN285      0.0367
      6  CG        35.5170   13.6230   71.3110 C.3   285  GLN285      0.0905
      7  CD        35.1930   14.4550   72.5580 C.2   285  GLN285      0.2608
      8  OE1       35.8730   15.4420   72.8620 O.2   285  GLN285     -0.2717
      9  NE2       34.1730   14.0320   73.3080 N.am  285  GLN285     -0.0878
     10  N         44.5720   19.3680   71.1140 N.3   316  GLU316     -0.1231
     11  CA        43.7880   19.7990   72.2710 C.3   316  GLU316      0.1699
     12  C         44.6780   20.5320   73.2760 C.2   316  GLU316      0.2592
     13  O         45.8690   20.2500   73.3830 O.2   316  GLU316     -0.2718
     14  CB        43.1000   18.5960   72.9920 C.3   316  GLU316      0.0402
     15  CG        42.0060   17.8840   72.1700 C.3   316  GLU316      0.1161
     16  CD        41.4000   16.6500   72.8930 C.2   316  GLU316      0.3649
     17  OE1       42.0190   16.1710   73.8670 O.co2 316  GLU316     -0.2457
     18  OE2       40.3030   16.1710   72.5050 O.co2 316  GLU316     -0.2457
     19  N         44.0830   21.4640   74.0280 N.am  317  LYS317     -0.1966
     20  CA        44.8090   22.1640   75.0820 C.3   317  LYS317      0.1713
     21  C         45.3130   21.1780   76.1370 C.2   317  LYS317      0.2458
     22  O         44.5450   20.3150   76.5790 O.2   317  LYS317     -0.2730
     23  CB        43.9210   23.2200   75.7470 C.3   317  LYS317      0.0311
     24  CG        44.7150   24.1690   76.6720 C.3   317  LYS317      0.0038
     25  CD        43.8820   25.3440   77.1460 C.3   317  LYS317      0.0206
     26  CE        44.6650   26.2320   78.1210 C.3   317  LYS317      0.1093
     27  NZ        43.8370   27.3210   78.6860 N.3   317  LYS317     -0.1314
     28  N         46.5950   21.2290   76.5340 N.am  318  PRO318     -0.2716
     29  CA        47.0770   20.2670   77.5370 C.3   318  PRO318      0.1536
     30  C         46.3610   20.4100   78.8760 C.2   318  PRO318      0.2598
     31  O         46.1700   21.5080   79.3880 O.2   318  PRO318     -0.2715
     32  CB        48.5680   20.5910   77.6600 C.3   318  PRO318      0.0310
     33  CG        48.9200   21.2260   76.3250 C.3   318  PRO318      0.0237
     34  CD        47.7110   22.0000   75.9400 C.3   318  PRO318      0.0939
     35  N         46.0250   19.2740   79.4660 N.am  319  ALA319     -0.1978
     36  CA        45.3020   19.2470   80.7260 C.3   319  ALA319      0.1597
     37  C         46.2260   19.2570   81.9290 C.2   319  ALA319      0.2287
     38  O         45.7360   19.2730   83.0610 O.2   319  ALA319     -0.2864
     39  CB        44.3870   18.0230   80.7780 C.3   319  ALA319      0.0319
     40  N         47.7960   21.7300   82.6360 N.3   321  GLY321     -0.1225
     41  CA        47.8000   23.1430   82.9520 C.3   321  GLY321      0.1811
     42  C         49.0650   23.8980   82.6070 C.2   321  GLY321      0.2280
     43  O         49.1180   25.1040   82.8730 O.2   321  GLY321     -0.2866
     44  N         44.2780   24.5420   70.2490 N.3   344  CYS344     -0.1221
     45  CA        43.5060   24.2060   71.4460 C.3   344  CYS344      0.1808
     46  C         42.0340   24.0490   71.0490 C.2   344  CYS344      0.2602
     47  O         41.1720   24.8600   71.4020 O.2   344  CYS344     -0.2717
     48  CB        43.7020   25.2830   72.5200 C.3   344  CYS344      0.0970
     49  SG        45.4190   25.3980   73.1920 S.3   344  CYS344     -0.0800
     50  N         41.7740   22.9840   70.2690 N.am  345  THR345     -0.1939
     51  CA        40.5210   22.8240   69.5280 C.3   345  THR345      0.2028
     52  C         39.3300   22.7170   70.4850 C.2   345  THR345      0.2642
     53  O         39.3960   22.0200   71.5000 O.2   345  THR345     -0.2714
     54  CB        40.5780   21.5740   68.6180 C.3   345  THR345      0.1808
     55  OG1       41.7410   21.5830   67.7690 O.3   345  THR345     -0.2208
     56  CG2       39.3620   21.4770   67.7270 C.3   345  THR345      0.0379
     57  N         38.2610   23.4410   70.1800 N.am  346  ARG346     -0.1963
     58  CA        36.9720   23.2910   70.8630 C.3   346  ARG346      0.1729
     59  C         35.9490   22.7610   69.8640 C.2   346  ARG346      0.2616
     60  O         36.0950   22.9480   68.6500 O.2   346  ARG346     -0.2715
     61  CB        36.4710   24.6230   71.4670 C.3   346  ARG346      0.0348
     62  CG        37.3530   25.1920   72.5700 C.3   346  ARG346      0.0492
     63  CD        37.0920   26.6920   72.8730 C.3   346  ARG346      0.2205
     64  NE        37.5630   27.5600   71.7910 N.pl3 346  ARG346     -0.0865
     65  CZ        36.7810   28.2730   70.9890 C.cat 346  ARG346      0.5346
     66  NH1       35.4530   28.2710   71.1330 N.pl3 346  ARG346      0.1354
     67  NH2       37.3230   28.9850   70.0450 N.pl3 346  ARG346      0.1354
     68  N         34.9330   22.0560   70.3680 N.am  347  VAL347     -0.1977
     69  CA        33.9360   21.4210   69.4950 C.3   347  VAL347      0.1596
     70  C         32.8380   22.4510   69.2340 C.2   347  VAL347      0.2287
     71  O         31.8150   22.5010   69.9350 O.2   347  VAL347     -0.2864
     72  CB        33.3880   20.1300   70.0920 C.3   347  VAL347      0.0276
     73  CG1       32.3540   19.5070   69.1500 C.3   347  VAL347      0.0022
     74  CG2       34.5230   19.1370   70.3750 C.3   347  VAL347      0.0022
@<TRIPOS>BOND
     1     4     3    2
     2    56    54    1
     3    55    54    1
     4     3     2    1
     5    54    51    1
     6    60    59    2
     7     1     2    1
     8    73    72    1
     9    70    69    1
    10    70    71    2
    11     2     5    1
    12    69    72    1
    13    69    68    1
    14    51    50    1
    15    51    52    1
    16    59    68   am
    17    59    58    1
    18    67    65    1
    19    72    74    1
    20    57    52   am
    21    57    58    1
    22    44    45    1
    23    50    46   am
    24     5     6    1
    25    52    53    2
    26    58    61    1
    27    65    66    1
    28    65    64    2
    29    46    47    2
    30    46    45    1
    31    10    11    1
    32     6     7    1
    33    45    48    1
    34    61    62    1
    35    64    63    1
    36    15    16    1
    37    15    14    1
    38    11    14    1
    39    11    12    1
    40    18    16   ar
    41    48    49    1
    42     7     8    2
    43     7     9   am
    44    62    63    1
    45    16    17   ar
    46    12    13    2
    47    12    19   am
    48    19    20    1
    49    20    23    1
    50    20    21    1
    51    23    24    1
    52    34    33    1
    53    34    28    1
    54    21    28   am
    55    21    22    2
    56    33    32    1
    57    28    29    1
    58    24    25    1
    59    25    26    1
    60    29    32    1
    61    29    30    1
    62    26    27    1
    63    30    31    2
    64    30    35   am
    65    35    36    1
    66    36    39    1
    67    36    37    1
    68    37    38    2
    69    42    43    2
    70    42    41    1
    71    40    41    1
