@<TRIPOS>MOLECULE
tmp/6en6A07.pdb
 77 71 0 0 0
SMALL
GASTEIGER

@<TRIPOS>ATOM
      1  N        -15.9790   35.1880  -11.8670 N.3    42  HIS42      -0.1241
      2  CA       -16.6820   34.2260  -11.0160 C.3    42  HIS42       0.1621
      3  C        -16.0890   34.1610   -9.6100 C.2    42  HIS42       0.2264
      4  O        -16.8280   34.2180   -8.6150 O.2    42  HIS42      -0.2867
      5  CB       -16.6390   32.8350  -11.6620 C.3    42  HIS42       0.0745
      6  CG       -17.1030   31.7250  -10.7640 C.ar   42  HIS42       0.0817
      7  ND1      -16.2480   31.0420   -9.9240 N.ar   42  HIS42      -0.2268
      8  CD2      -18.3280   31.1610  -10.5950 C.ar   42  HIS42       0.1154
      9  CE1      -16.9280   30.1100   -9.2710 C.ar   42  HIS42       0.1986
     10  NE2      -18.1880   30.1580   -9.6650 N.ar   42  HIS42      -0.2212
     11  N        -19.2630   34.9530   -6.8840 N.3    46  ILE46      -0.1231
     12  CA       -19.8710   33.6970   -7.2310 C.3    46  ILE46       0.1692
     13  C        -21.3820   33.7790   -7.4360 C.2    46  ILE46       0.2593
     14  O        -22.0910   34.0060   -6.5050 O.2    46  ILE46      -0.2718
     15  CB       -19.5330   32.6020   -6.2130 C.3    46  ILE46       0.0266
     16  CG1      -18.0130   32.4250   -6.1070 C.3    46  ILE46       0.0019
     17  CG2      -20.1830   31.3000   -6.5960 C.3    46  ILE46       0.0020
     18  CD1      -17.5510   31.4240   -5.0850 C.3    46  ILE46       0.0001
     19  N        -21.8240   33.5990   -8.6770 N.am   47  THR47      -0.1939
     20  CA       -23.2410   33.6150   -9.0410 C.3    47  THR47       0.2028
     21  C        -23.4860   32.6010  -10.1500 C.2    47  THR47       0.2642
     22  O        -22.5790   32.2240  -10.8920 O.2    47  THR47      -0.2714
     23  CB       -23.7140   34.9870   -9.5460 C.3    47  THR47       0.1808
     24  OG1      -23.1970   35.2230  -10.8670 O.3    47  THR47      -0.2208
     25  CG2      -23.2690   36.1130   -8.6060 C.3    47  THR47       0.0379
     26  N        -24.7400   32.1750  -10.2940 N.am   48  ALA48      -0.1977
     27  CA       -25.0450   31.2180  -11.3540 C.3    48  ALA48       0.1597
     28  C        -24.7050   31.7910  -12.7340 C.2    48  ALA48       0.2287
     29  O        -24.2300   31.0640  -13.6200 O.2    48  ALA48      -0.2864
     30  CB       -26.5080   30.7910  -11.2710 C.3    48  ALA48       0.0319
     31  N        -20.9550   31.6820  -13.3600 N.3    51  ALA51      -0.1245
     32  CA       -20.5800   30.2990  -13.6580 C.3    51  ALA51       0.1562
     33  C        -20.9500   29.9030  -15.0920 C.2    51  ALA51       0.2260
     34  O        -20.1720   29.2190  -15.7800 O.2    51  ALA51      -0.2867
     35  CB       -21.2200   29.3450  -12.6460 C.3    51  ALA51       0.0290
     36  N        -17.1930   23.6990  -12.1430 N.3   116  SER116     -0.1202
     37  CA       -17.9100   24.8470  -11.5790 C.3   116  SER116      0.2020
     38  C        -18.6440   24.4570  -10.2890 C.2   116  SER116      0.2618
     39  O        -18.5140   25.1230   -9.2560 O.2   116  SER116     -0.2717
     40  CB       -18.8730   25.3930  -12.6440 C.3   116  SER116      0.2103
     41  OG       -19.5060   26.5840  -12.2370 O.3   116  SER116     -0.2182
     42  N        -19.3910   23.3500  -10.3110 N.am  117  GLN117     -0.1979
     43  CA       -20.1880   23.0170   -9.1340 C.3   117  GLN117      0.1601
     44  C        -19.3190   22.5460   -7.9690 C.2   117  GLN117      0.2287
     45  O        -19.6350   22.8410   -6.8090 O.2   117  GLN117     -0.2864
     46  CB       -21.2530   21.9670   -9.4780 C.3   117  GLN117      0.0394
     47  CG       -22.3780   22.4980  -10.3820 C.3   117  GLN117      0.0908
     48  CD       -22.9880   23.8240   -9.8890 C.2   117  GLN117      0.2608
     49  OE1      -23.4640   23.9280   -8.7560 O.2   117  GLN117     -0.2717
     50  NE2      -22.9520   24.8400  -10.7420 N.am  117  GLN117     -0.0878
     51  N        -17.9850   25.7020   -6.3770 N.3   120  ARG120     -0.1245
     52  CA       -19.0480   26.3560   -5.6160 C.3   120  ARG120      0.1563
     53  C        -19.2740   25.6790   -4.2620 C.2   120  ARG120      0.2260
     54  O        -19.3110   26.3480   -3.2270 O.2   120  ARG120     -0.2867
     55  CB       -20.3530   26.3760   -6.4290 C.3   120  ARG120      0.0307
     56  CG       -21.5000   27.1180   -5.6950 C.3   120  ARG120      0.0489
     57  CD       -22.8560   26.9280   -6.3090 C.3   120  ARG120      0.2205
     58  NE       -23.1160   25.5120   -6.5920 N.pl3 120  ARG120     -0.0865
     59  CZ       -23.5060   24.6070   -5.6870 C.cat 120  ARG120      0.5346
     60  NH1      -23.6900   24.9470   -4.4160 N.pl3 120  ARG120      0.1354
     61  NH2      -23.6970   23.3380   -6.0540 N.pl3 120  ARG120      0.1354
     62  N        -18.5390   27.9580   -0.8060 N.3   124  THR124     -0.1218
     63  CA       -19.7190   28.5210   -0.1410 C.3   124  THR124      0.1862
     64  C        -20.1740   27.7060    1.0700 C.2   124  THR124      0.2287
     65  O        -21.1220   28.1150    1.7540 O.2   124  THR124     -0.2866
     66  CB       -20.9130   28.6620   -1.1160 C.3   124  THR124      0.1770
     67  OG1      -21.3770   27.3750   -1.5430 O.3   124  THR124     -0.2211
     68  CG2      -20.5470   29.4720   -2.3560 C.3   124  THR124      0.0375
     69  N        -20.3760   36.5580   -2.2280 N.3   322  GLU322     -0.1245
     70  CA       -19.6870   35.2890   -2.0610 C.3   322  GLU322      0.1567
     71  C        -18.4680   35.2860   -2.9730 C.2   322  GLU322      0.2260
     72  O        -18.5660   35.6830   -4.1440 O.2   322  GLU322     -0.2867
     73  CB       -20.6050   34.1100   -2.3760 C.3   322  GLU322      0.0388
     74  CG       -21.8130   34.0270   -1.4500 C.3   322  GLU322      0.1160
     75  CD       -21.7530   32.8510   -0.5060 C.2   322  GLU322      0.3649
     76  OE1      -20.6820   32.5780    0.1200 O.co2 322  GLU322     -0.2457
     77  OE2      -22.8110   32.1930   -0.4000 O.co2 322  GLU322     -0.2457
@<TRIPOS>BOND
     1    34    33    2
     2    33    32    1
     3    32    31    1
     4    32    35    1
     5    29    28    2
     6    28    27    1
     7    40    41    1
     8    40    37    1
     9    36    37    1
    10     1     2    1
    11     5     2    1
    12     5     6    1
    13    37    38    1
    14    27    30    1
    15    27    26    1
    16     2     3    1
    17    22    21    2
    18    24    23    1
    19     6     8   ar
    20     6     7   ar
    21    50    48   am
    22     8    10   ar
    23    47    48    1
    24    47    46    1
    25    42    38   am
    26    42    43    1
    27    26    21   am
    28    38    39    2
    29    21    20    1
    30     7     9   ar
    31    48    49    2
    32    10     9   ar
    33     3     4    2
    34    23    20    1
    35    23    25    1
    36    46    43    1
    37    43    44    1
    38    20    19    1
    39    19    13   am
    40    44    45    2
    41    13    12    1
    42    13    14    2
    43    12    11    1
    44    12    15    1
    45    17    15    1
    46    58    57    1
    47    58    59    2
    48    55    56    1
    49    55    52    1
    50    51    52    1
    51    57    56    1
    52    15    16    1
    53    16    18    1
    54    61    59    1
    55    59    60    1
    56    52    53    1
    57    53    54    2
    58    72    71    2
    59    71    70    1
    60    73    70    1
    61    73    74    1
    62    68    66    1
    63    69    70    1
    64    67    66    1
    65    74    75    1
    66    66    63    1
    67    62    63    1
    68    75    77   ar
    69    75    76   ar
    70    63    64    1
    71    64    65    2
