@<TRIPOS>MOLECULE
tmp/6en8E00.pdb
 141 133 0 0 0
SMALL
GASTEIGER

@<TRIPOS>ATOM
      1  N        -13.9520  -16.4510  -10.1230 N.3    67  ARG67      -0.1231
      2  CA       -13.7820  -17.3280   -8.9610 C.3    67  ARG67       0.1694
      3  C        -15.0120  -18.2040   -8.7140 C.2    67  ARG67       0.2592
      4  O        -14.8480  -19.3770   -8.3790 O.2    67  ARG67      -0.2718
      5  CB       -13.4360  -16.5280   -7.6920 C.3    67  ARG67       0.0321
      6  CG       -11.9900  -16.0430   -7.6370 C.3    67  ARG67       0.0489
      7  CD       -11.6350  -15.4820   -6.2740 C.3    67  ARG67       0.2205
      8  NE       -10.9760  -14.1780   -6.3760 N.pl3  67  ARG67      -0.0865
      9  CZ       -10.5560  -13.4610   -5.3370 C.cat  67  ARG67       0.5346
     10  NH1      -10.7120  -13.9180   -4.0990 N.pl3  67  ARG67       0.1354
     11  NH2       -9.9760  -12.2830   -5.5270 N.pl3  67  ARG67       0.1354
     12  N        -16.2320  -17.6470   -8.8930 N.am   68  ASN68      -0.1974
     13  CA       -17.4880  -18.3760   -8.6870 C.3    68  ASN68       0.1688
     14  C        -17.8190  -19.3500   -9.8190 C.2    68  ASN68       0.2292
     15  O        -18.5870  -20.2900   -9.5990 O.2    68  ASN68      -0.2864
     16  CB       -18.6480  -17.4300   -8.4010 C.3    68  ASN68       0.1181
     17  CG       -18.6830  -16.9740   -6.9620 C.2    68  ASN68       0.2629
     18  OD1      -18.7700  -17.7810   -6.0260 O.2    68  ASN68      -0.2716
     19  ND2      -18.6200  -15.6700   -6.7490 N.am   68  ASN68      -0.0877
     20  N        -15.1410  -20.8500  -11.5600 N.3    69  ARG69      -0.1231
     21  CA       -14.0520  -21.7970  -11.3070 C.3    69  ARG69       0.1694
     22  C        -14.4540  -22.8100  -10.2250 C.2    69  ARG69       0.2592
     23  O        -14.1900  -24.0000  -10.3910 O.2    69  ARG69      -0.2718
     24  CB       -12.7600  -21.0630  -10.9180 C.3    69  ARG69       0.0321
     25  CG       -11.9660  -20.5180  -12.1000 C.3    69  ARG69       0.0489
     26  CD       -10.5170  -20.2510  -11.7300 C.3    69  ARG69       0.2205
     27  NE       -10.3750  -19.1430  -10.7840 N.pl3  69  ARG69      -0.0865
     28  CZ        -9.3760  -19.0170   -9.9160 C.cat  69  ARG69       0.5346
     29  NH1       -8.4210  -19.9380   -9.8520 N.pl3  69  ARG69       0.1354
     30  NH2       -9.3300  -17.9770   -9.0960 N.pl3  69  ARG69       0.1354
     31  N        -15.1280  -22.3390   -9.1480 N.am   70  TYR70      -0.1976
     32  CA       -15.6470  -23.1700   -8.0580 C.3    70  TYR70       0.1639
     33  C        -16.7930  -24.0560   -8.5670 C.2    70  TYR70       0.2290
     34  O        -16.8500  -25.2270   -8.1960 O.2    70  TYR70      -0.2864
     35  CB       -16.1070  -22.2990   -6.8690 C.3    70  TYR70       0.0560
     36  CG       -17.1210  -22.9590   -5.9520 C.ar   70  TYR70      -0.0198
     37  CD1      -16.7200  -23.8620   -4.9710 C.ar   70  TYR70      -0.0009
     38  CD2      -18.4800  -22.6730   -6.0610 C.ar   70  TYR70      -0.0009
     39  CE1      -17.6470  -24.4670   -4.1210 C.ar   70  TYR70       0.0417
     40  CE2      -19.4170  -23.2800   -5.2250 C.ar   70  TYR70       0.0417
     41  CZ       -18.9950  -24.1740   -4.2530 C.ar   70  TYR70       0.1957
     42  OH       -19.9130  -24.7700   -3.4190 O.3    70  TYR70      -0.2866
     43  N        -17.2670  -25.1670  -11.5970 N.3    72  LEU72      -0.1231
     44  CA       -16.6790  -26.1920  -12.4600 C.3    72  LEU72       0.1693
     45  C        -15.7870  -27.1790  -11.6760 C.2    72  LEU72       0.2591
     46  O        -15.7660  -28.3640  -12.0140 O.2    72  LEU72      -0.2718
     47  CB       -15.9430  -25.5840  -13.6750 C.3    72  LEU72       0.0284
     48  CG       -16.7860  -24.7990  -14.7060 C.3    72  LEU72       0.0019
     49  CD1      -15.9030  -24.1990  -15.7750 C.3    72  LEU72       0.0001
     50  CD2      -17.8500  -25.6740  -15.3710 C.3    72  LEU72       0.0001
     51  N        -15.0910  -26.7020  -10.6160 N.am   73  LYS73      -0.1980
     52  CA       -14.2430  -27.5200   -9.7350 C.3    73  LYS73       0.1596
     53  C        -15.1100  -28.5380   -8.9530 C.2    73  LYS73       0.2287
     54  O        -14.6600  -29.6600   -8.7210 O.2    73  LYS73      -0.2864
     55  CB       -13.4470  -26.6130   -8.7730 C.3    73  LYS73       0.0298
     56  CG       -12.4480  -27.3180   -7.8630 C.3    73  LYS73       0.0038
     57  CD       -12.3700  -26.6110   -6.5150 C.3    73  LYS73       0.0206
     58  CE       -11.5110  -27.3490   -5.5190 C.3    73  LYS73       0.1093
     59  NZ       -11.3990  -26.6080   -4.2370 N.3    73  LYS73      -0.1314
     60  N        -16.1880  -31.6920  -11.1170 N.3    76  THR76      -0.1218
     61  CA       -15.0490  -32.4000  -11.7270 C.3    76  THR76       0.1862
     62  C        -14.1320  -33.1780  -10.7500 C.2    76  THR76       0.2287
     63  O        -13.3680  -34.0340  -11.2080 O.2    76  THR76      -0.2866
     64  CB       -14.2030  -31.4480  -12.5920 C.3    76  THR76       0.1770
     65  OG1      -13.8360  -30.2920  -11.8350 O.3    76  THR76      -0.2211
     66  CG2      -14.9000  -31.0530  -13.8910 C.3    76  THR76       0.0375
     67  N         -9.6610  -37.6770  -16.7690 N.3    82  ARG82      -0.1245
     68  CA        -9.6800  -36.4550  -17.5850 C.3    82  ARG82       0.1563
     69  C        -10.6350  -36.4640  -18.7950 C.2    82  ARG82       0.2260
     70  O        -11.1930  -35.4100  -19.1020 O.2    82  ARG82      -0.2867
     71  CB        -8.2600  -36.0660  -18.0380 C.3    82  ARG82       0.0307
     72  CG        -8.0820  -34.5740  -18.3630 C.3    82  ARG82       0.0489
     73  CD        -8.1330  -33.6750  -17.1330 C.3    82  ARG82       0.2205
     74  NE        -8.0630  -32.2560  -17.4850 N.pl3  82  ARG82      -0.0865
     75  CZ        -8.2110  -31.2580  -16.6190 C.cat  82  ARG82       0.5346
     76  NH1       -8.4450  -31.5110  -15.3380 N.pl3  82  ARG82       0.1354
     77  NH2       -8.1280  -30.0000  -17.0280 N.pl3  82  ARG82       0.1354
     78  N        -13.7710  -35.6070  -17.4230 N.3    85  VAL85      -0.1231
     79  CA       -13.6290  -34.2780  -16.8010 C.3    85  VAL85       0.1692
     80  C        -14.0670  -33.1830  -17.7860 C.2    85  VAL85       0.2591
     81  O        -14.8930  -32.3350  -17.4380 O.2    85  VAL85      -0.2718
     82  CB       -12.2090  -34.0470  -16.1940 C.3    85  VAL85       0.0266
     83  CG1      -11.9480  -32.5770  -15.8670 C.3    85  VAL85       0.0020
     84  CG2      -11.9960  -34.9130  -14.9570 C.3    85  VAL85       0.0020
     85  N        -13.5490  -33.2440  -19.0250 N.am   86  GLU86      -0.1979
     86  CA       -13.8720  -32.3050  -20.1020 C.3    86  GLU86       0.1602
     87  C        -15.2820  -32.5670  -20.6600 C.2    86  GLU86       0.2287
     88  O        -15.8410  -31.6930  -21.3230 O.2    86  GLU86      -0.2864
     89  CB       -12.8200  -32.3670  -21.2340 C.3    86  GLU86       0.0415
     90  CG       -11.3640  -32.4370  -20.7900 C.3    86  GLU86       0.1163
     91  CD       -10.8240  -31.2330  -20.0450 C.2    86  GLU86       0.3649
     92  OE1      -10.5730  -30.1930  -20.6950 O.co2  86  GLU86      -0.2457
     93  OE2      -10.6260  -31.3390  -18.8130 O.co2  86  GLU86      -0.2457
     94  N        -17.4270  -30.7960  -17.8480 N.3    89  GLY89      -0.1225
     95  CA       -16.8000  -29.4900  -17.6410 C.3    89  GLY89       0.1811
     96  C        -17.2970  -28.4830  -18.6590 C.2    89  GLY89       0.2280
     97  O        -17.5180  -27.3150  -18.3350 O.2    89  GLY89      -0.2866
     98  N         -5.9440  -16.4900  -16.2770 N.3   121  LYS121     -0.1231
     99  CA        -6.0170  -17.1470  -14.9660 C.3   121  LYS121      0.1693
    100  C         -6.7040  -18.5070  -15.1430 C.2   121  LYS121      0.2591
    101  O         -6.2510  -19.4960  -14.5590 O.2   121  LYS121     -0.2718
    102  CB        -6.7500  -16.2640  -13.9260 C.3   121  LYS121      0.0285
    103  CG        -6.9820  -16.9010  -12.5380 C.3   121  LYS121      0.0035
    104  CD        -5.8170  -16.7210  -11.5550 C.3   121  LYS121      0.0206
    105  CE        -6.1400  -17.3010  -10.1940 C.3   121  LYS121      0.1093
    106  NZ        -5.1040  -16.9770   -9.1760 N.3   121  LYS121     -0.1314
    107  N         -7.7730  -18.5560  -15.9750 N.am  122  LEU122     -0.1980
    108  CA        -8.5110  -19.7840  -16.2740 C.3   122  LEU122      0.1596
    109  C         -7.6250  -20.7850  -17.0210 C.2   122  LEU122      0.2287
    110  O         -7.7140  -21.9820  -16.7540 O.2   122  LEU122     -0.2864
    111  CB        -9.7930  -19.4830  -17.0710 C.3   122  LEU122      0.0297
    112  CG       -10.8010  -20.6310  -17.2060 C.3   122  LEU122      0.0022
    113  CD1      -11.4830  -20.9280  -15.8840 C.3   122  LEU122      0.0001
    114  CD2      -11.8370  -20.3260  -18.2630 C.3   122  LEU122      0.0001
    115  N         -4.9290  -22.3380  -14.6060 N.3   125  ARG125     -0.1231
    116  CA        -5.5580  -23.3550  -13.7580 C.3   125  ARG125      0.1694
    117  C         -6.1280  -24.5430  -14.5690 C.2   125  ARG125      0.2592
    118  O         -6.6850  -25.4850  -13.9960 O.2   125  ARG125     -0.2718
    119  CB        -6.6130  -22.7180  -12.8330 C.3   125  ARG125      0.0321
    120  CG        -6.0460  -22.2290  -11.5000 C.3   125  ARG125      0.0489
    121  CD        -6.0070  -23.3350  -10.4590 C.3   125  ARG125      0.2205
    122  NE        -5.1930  -22.9760   -9.2980 N.pl3 125  ARG125     -0.0865
    123  CZ        -3.9260  -23.3420   -9.1280 C.cat 125  ARG125      0.5346
    124  NH1       -3.3110  -24.0800  -10.0440 N.pl3 125  ARG125      0.1354
    125  NH2       -3.2630  -22.9740   -8.0390 N.pl3 125  ARG125      0.1354
    126  N         -5.9590  -24.4950  -15.9010 N.am  126  TYR126     -0.1976
    127  CA        -6.3720  -25.5380  -16.8380 C.3   126  TYR126      0.1639
    128  C         -5.1220  -26.3170  -17.2450 C.2   126  TYR126      0.2290
    129  O         -5.1680  -27.5450  -17.3010 O.2   126  TYR126     -0.2864
    130  CB        -7.0380  -24.9150  -18.0750 C.3   126  TYR126      0.0560
    131  CG        -8.2350  -25.6790  -18.5930 C.ar  126  TYR126     -0.0198
    132  CD1       -9.4890  -25.5270  -18.0110 C.ar  126  TYR126     -0.0009
    133  CD2       -8.1290  -26.5080  -19.7050 C.ar  126  TYR126     -0.0009
    134  CE1      -10.6040  -26.2010  -18.5070 C.ar  126  TYR126      0.0417
    135  CE2       -9.2350  -27.1940  -20.2040 C.ar  126  TYR126      0.0417
    136  CZ       -10.4710  -27.0420  -19.5980 C.ar  126  TYR126      0.1957
    137  OH       -11.5670  -27.7140  -20.0840 O.3   126  TYR126     -0.2866
    138  N         -4.0270  -28.7790  -14.7110 N.3   129  GLY129     -0.1225
    139  CA        -4.9590  -29.8990  -14.8070 C.3   129  GLY129      0.1811
    140  C         -4.7120  -30.8230  -15.9860 C.2   129  GLY129      0.2280
    141  O         -5.1240  -31.9850  -15.9490 O.2   129  GLY129     -0.2866
@<TRIPOS>BOND
     1    88    87    2
     2    89    90    1
     3    89    86    1
     4    90    91    1
     5    92    91   ar
     6    87    86    1
     7   135   133   ar
     8   135   136   ar
     9    86    85    1
    10   137   136    1
    11    91    93   ar
    12   133   131   ar
    13   136   134   ar
    14    70    69    2
    15    85    80   am
    16    69    68    1
    17    96    97    2
    18    96    95    1
    19   131   130    1
    20   131   132   ar
    21   134   132   ar
    22    72    71    1
    23    72    73    1
    24   114   112    1
    25   130   127    1
    26    71    68    1
    27    94    95    1
    28    80    81    2
    29    80    79    1
    30    68    67    1
    31    74    73    1
    32    74    75    2
    33    78    79    1
    34   129   128    2
    35   128   127    1
    36   112   111    1
    37   112   113    1
    38   111   108    1
    39    77    75    1
    40   109   110    2
    41   109   108    1
    42   127   126    1
    43    79    82    1
    44    75    76    1
    45    98    99    1
    46   108   107    1
    47    82    83    1
    48    82    84    1
    49   140   141    2
    50   140   139    1
    51   107   100   am
    52   126   117   am
    53    49    48    1
    54    50    48    1
    55   100    99    1
    56   100   101    2
    57    99   102    1
    58   139   138    1
    59    48    47    1
    60   115   116    1
    61   117   118    2
    62   117   116    1
    63   102   103    1
    64    66    64    1
    65   116   119    1
    66    47    44    1
    67   119   120    1
    68    64    65    1
    69    64    61    1
    70   103   104    1
    71    44    45    1
    72    44    43    1
    73    25    26    1
    74    25    24    1
    75    46    45    2
    76    26    27    1
    77    61    60    1
    78    61    62    1
    79    45    51   am
    80    20    21    1
    81   104   105    1
    82   120   121    1
    83    21    24    1
    84    21    22    1
    85    63    62    2
    86    27    28    2
    87    51    52    1
    88   121   122    1
    89    23    22    2
    90    22    31   am
    91   105   106    1
    92     1     2    1
    93   124   123    1
    94    28    29    1
    95    28    30    1
    96    14    15    2
    97    14    13    1
    98    52    53    1
    99    52    55    1
   100   122   123    2
   101    31    32    1
   102   123   125    1
   103     2     3    1
   104     2     5    1
   105    53    54    2
   106    12     3   am
   107    12    13    1
   108    55    56    1
   109     3     4    2
   110    13    16    1
   111    33    34    2
   112    33    32    1
   113    16    17    1
   114    32    35    1
   115    56    57    1
   116     5     6    1
   117     6     7    1
   118    17    19   am
   119    17    18    2
   120    35    36    1
   121    57    58    1
   122     8     7    1
   123     8     9    2
   124    38    36   ar
   125    38    40   ar
   126    36    37   ar
   127    11     9    1
   128    58    59    1
   129     9    10    1
   130    40    41   ar
   131    37    39   ar
   132    41    39   ar
   133    41    42    1
