@<TRIPOS>MOLECULE
tmp/6en8F00.pdb
 98 94 0 0 0
SMALL
GASTEIGER

@<TRIPOS>ATOM
      1  N        -15.3510  -10.9640  -46.4740 N.3    65  ARG65      -0.1245
      2  CA       -15.0960  -11.3460  -47.8690 C.3    65  ARG65       0.1563
      3  C        -13.5950  -11.4960  -48.1190 C.2    65  ARG65       0.2260
      4  O        -13.1780  -12.5230  -48.6480 O.2    65  ARG65      -0.2867
      5  CB       -15.6700  -10.3030  -48.8460 C.3    65  ARG65       0.0307
      6  CG       -17.1740  -10.3720  -49.0600 C.3    65  ARG65       0.0489
      7  CD       -17.6620   -9.1140  -49.7530 C.3    65  ARG65       0.2205
      8  NE       -19.0940   -9.1550  -50.0510 N.pl3  65  ARG65      -0.0865
      9  CZ       -19.6060   -9.3420  -51.2650 C.cat  65  ARG65       0.5346
     10  NH1      -18.8060   -9.5070  -52.3130 N.pl3  65  ARG65       0.1354
     11  NH2      -20.9200   -9.3590  -51.4420 N.pl3  65  ARG65       0.1354
     12  N        -12.3080  -14.7150  -46.0360 N.3    67  ARG67      -0.1231
     13  CA       -12.8180  -15.9650  -46.6070 C.3    67  ARG67       0.1694
     14  C        -12.1890  -16.3080  -47.9690 C.2    67  ARG67       0.2592
     15  O        -11.8750  -17.4760  -48.2120 O.2    67  ARG67      -0.2718
     16  CB       -14.3540  -15.9460  -46.6710 C.3    67  ARG67       0.0321
     17  CG       -15.0220  -16.3140  -45.3460 C.3    67  ARG67       0.0489
     18  CD       -16.3250  -15.5720  -45.0950 C.3    67  ARG67       0.2205
     19  NE       -17.4210  -16.0190  -45.9600 N.pl3  67  ARG67      -0.0865
     20  CZ       -17.8900  -15.3300  -46.9970 C.cat  67  ARG67       0.5346
     21  NH1      -17.3630  -14.1530  -47.3150 N.pl3  67  ARG67       0.1354
     22  NH2      -18.8880  -15.8130  -47.7240 N.pl3  67  ARG67       0.1354
     23  N        -11.9760  -15.2880  -48.8320 N.am   68  TYR68      -0.1976
     24  CA       -11.3370  -15.4220  -50.1490 C.3    68  TYR68       0.1639
     25  C         -9.8550  -15.7650  -49.9740 C.2    68  TYR68       0.2290
     26  O         -9.3270  -16.5610  -50.7520 O.2    68  TYR68      -0.2864
     27  CB       -11.5170  -14.1320  -50.9770 C.3    68  TYR68       0.0560
     28  CG       -10.6720  -14.0330  -52.2300 C.ar   68  TYR68      -0.0198
     29  CD1      -11.0370  -14.7000  -53.3960 C.ar   68  TYR68      -0.0009
     30  CD2       -9.5440  -13.2170  -52.2710 C.ar   68  TYR68      -0.0009
     31  CE1      -10.2700  -14.5990  -54.5580 C.ar   68  TYR68       0.0417
     32  CE2       -8.7730  -13.1050  -53.4280 C.ar   68  TYR68       0.0417
     33  CZ        -9.1430  -13.7930  -54.5720 C.ar   68  TYR68       0.1957
     34  OH        -8.3900  -13.6780  -55.7160 O.3    68  TYR68      -0.2866
     35  N         -8.5550  -17.3610  -47.3500 N.3    70  LEU70      -0.1231
     36  CA        -8.5100  -18.7310  -46.8360 C.3    70  LEU70       0.1693
     37  C         -8.8530  -19.7720  -47.9090 C.2    70  LEU70       0.2591
     38  O         -8.2690  -20.8580  -47.8990 O.2    70  LEU70      -0.2718
     39  CB        -9.3870  -18.9160  -45.5810 C.3    70  LEU70       0.0284
     40  CG        -8.9030  -18.2730  -44.2670 C.3    70  LEU70       0.0019
     41  CD1       -9.8890  -18.5430  -43.1500 C.3    70  LEU70       0.0001
     42  CD2       -7.5160  -18.7790  -43.8490 C.3    70  LEU70       0.0001
     43  N         -9.7750  -19.4360  -48.8440 N.am   71  LYS71      -0.1980
     44  CA       -10.1650  -20.3230  -49.9470 C.3    71  LYS71       0.1596
     45  C         -9.0190  -20.4860  -50.9600 C.2    71  LYS71       0.2287
     46  O         -8.9460  -21.5180  -51.6200 O.2    71  LYS71      -0.2864
     47  CB       -11.4640  -19.8410  -50.6250 C.3    71  LYS71       0.0298
     48  CG       -12.1800  -20.8900  -51.4850 C.3    71  LYS71       0.0038
     49  CD       -12.8250  -22.0150  -50.6720 C.3    71  LYS71       0.0206
     50  CE       -13.3830  -23.0980  -51.5590 C.3    71  LYS71       0.1093
     51  NZ       -14.0060  -24.1900  -50.7690 N.3    71  LYS71      -0.1314
     52  N         -6.7460  -23.3310  -49.7290 N.3    74  THR74      -0.1218
     53  CA        -7.4800  -24.5920  -49.5150 C.3    74  THR74       0.1862
     54  C         -8.1400  -25.1720  -50.7990 C.2    74  THR74       0.2287
     55  O         -9.0930  -25.9530  -50.6960 O.2    74  THR74      -0.2866
     56  CB        -8.5060  -24.4450  -48.3650 C.3    74  THR74       0.1770
     57  OG1       -9.4630  -23.4360  -48.6930 O.3    74  THR74      -0.2211
     58  CG2       -7.8530  -24.1600  -47.0110 C.3    74  THR74       0.0375
     59  N        -22.4500  -15.8570  -41.0650 N.3   119  LYS119     -0.1231
     60  CA       -22.1050  -15.9970  -42.4870 C.3   119  LYS119      0.1693
     61  C        -20.8580  -16.8670  -42.6370 C.2   119  LYS119      0.2591
     62  O        -20.7970  -17.6760  -43.5650 O.2   119  LYS119     -0.2718
     63  CB       -21.9340  -14.6240  -43.1790 C.3   119  LYS119      0.0285
     64  CG       -21.5780  -14.6680  -44.6780 C.3   119  LYS119      0.0035
     65  CD       -22.7090  -15.1770  -45.5810 C.3   119  LYS119      0.0206
     66  CE       -22.2480  -15.3440  -47.0100 C.3   119  LYS119      0.1093
     67  NZ       -23.3170  -15.8980  -47.8790 N.3   119  LYS119     -0.1314
     68  N        -19.8790  -16.7190  -41.7140 N.am  120  LEU120     -0.1980
     69  CA       -18.6590  -17.5310  -41.7020 C.3   120  LEU120      0.1596
     70  C        -19.0300  -18.9860  -41.3940 C.2   120  LEU120      0.2287
     71  O        -18.4960  -19.8940  -42.0320 O.2   120  LEU120     -0.2864
     72  CB       -17.6350  -16.9890  -40.6810 C.3   120  LEU120      0.0297
     73  CG       -16.3110  -17.7550  -40.5130 C.3   120  LEU120      0.0022
     74  CD1      -15.4530  -17.6800  -41.7660 C.3   120  LEU120      0.0001
     75  CD2      -15.5310  -17.2370  -39.3270 C.3   120  LEU120      0.0001
     76  N        -20.7010  -20.9450  -44.4530 N.3   123  ARG123     -0.1231
     77  CA       -19.7310  -21.4480  -45.4330 C.3   123  ARG123      0.1694
     78  C        -18.8270  -22.5350  -44.8250 C.2   123  ARG123      0.2592
     79  O        -18.1100  -23.2250  -45.5530 O.2   123  ARG123     -0.2718
     80  CB       -18.9040  -20.2960  -46.0420 C.3   123  ARG123      0.0321
     81  CG       -19.7280  -19.1190  -46.5850 C.3   123  ARG123      0.0489
     82  CD       -20.5090  -19.4350  -47.8500 C.3   123  ARG123      0.2205
     83  NE       -19.6840  -19.3440  -49.0550 N.pl3 123  ARG123     -0.0865
     84  CZ       -20.1650  -19.3900  -50.2930 C.cat 123  ARG123      0.5346
     85  NH1      -21.4690  -19.5230  -50.5030 N.pl3 123  ARG123      0.1354
     86  NH2      -19.3470  -19.3010  -51.3320 N.pl3 123  ARG123      0.1354
     87  N        -18.8830  -22.6880  -43.4890 N.am  124  TYR124     -0.1976
     88  CA       -18.1470  -23.6910  -42.7180 C.3   124  TYR124      0.1639
     89  C        -19.0750  -24.8780  -42.4090 C.2   124  TYR124      0.2290
     90  O        -18.6170  -25.8640  -41.8390 O.2   124  TYR124     -0.2864
     91  CB       -17.6280  -23.0740  -41.4060 C.3   124  TYR124      0.0560
     92  CG       -16.1500  -23.2730  -41.1430 C.ar  124  TYR124     -0.0198
     93  CD1      -15.2100  -22.3510  -41.5970 C.ar  124  TYR124     -0.0009
     94  CD2      -15.6970  -24.3360  -40.3680 C.ar  124  TYR124     -0.0009
     95  CE1      -13.8500  -22.5070  -41.3240 C.ar  124  TYR124      0.0417
     96  CE2      -14.3390  -24.5050  -40.0930 C.ar  124  TYR124      0.0417
     97  CZ       -13.4190  -23.5850  -40.5690 C.ar  124  TYR124      0.1957
     98  OH       -12.0780  -23.7420  -40.2990 O.3   124  TYR124     -0.2866
@<TRIPOS>BOND
     1    34    33    1
     2    33    31   ar
     3    33    32   ar
     4    31    29   ar
     5    32    30   ar
     6    29    28   ar
     7    10     9    1
     8    30    28   ar
     9    28    27    1
    10    46    45    2
    11    50    51    1
    12    50    49    1
    13    48    49    1
    14    48    47    1
    15    11     9    1
    16    86    84    1
    17     9     8    2
    18    27    24    1
    19    45    44    1
    20    54    55    2
    21    54    53    1
    22    26    25    2
    23    47    44    1
    24    85    84    1
    25    84    83    2
    26    24    25    1
    27    24    23    1
    28     8     7    1
    29    44    43    1
    30     7     6    1
    31    52    53    1
    32    53    56    1
    33     6     5    1
    34    83    82    1
    35     5     2    1
    36    43    37   am
    37    23    14   am
    38    57    56    1
    39     4     3    2
    40    56    58    1
    41    15    14    2
    42     3     2    1
    43    14    13    1
    44    37    38    2
    45    37    36    1
    46    67    66    1
    47     2     1    1
    48    82    81    1
    49    22    20    1
    50    35    36    1
    51    21    20    1
    52    66    65    1
    53    20    19    2
    54    36    39    1
    55    16    13    1
    56    16    17    1
    57    13    12    1
    58    81    80    1
    59    80    77    1
    60    19    18    1
    61    39    40    1
    62    65    64    1
    63    79    78    2
    64    77    78    1
    65    77    76    1
    66    17    18    1
    67    78    87   am
    68    64    63    1
    69    40    42    1
    70    40    41    1
    71    62    61    2
    72    87    88    1
    73    63    60    1
    74    88    89    1
    75    88    91    1
    76    61    60    1
    77    61    68   am
    78    60    59    1
    79    89    90    2
    80    71    70    2
    81    74    73    1
    82    68    69    1
    83    69    70    1
    84    69    72    1
    85    93    95   ar
    86    93    92   ar
    87    91    92    1
    88    95    97   ar
    89    92    94   ar
    90    72    73    1
    91    97    98    1
    92    97    96   ar
    93    73    75    1
    94    94    96   ar
