@<TRIPOS>MOLECULE
tmp/6encA00.pdb
 239 237 0 0 0
SMALL
GASTEIGER

@<TRIPOS>ATOM
      1  N         36.3180   -2.4820   -8.6380 N.3   132  GLN132     -0.1245
      2  CA        35.6890   -1.8790   -7.4740 C.3   132  GLN132      0.1566
      3  C         34.5170   -2.8050   -7.0810 C.2   132  GLN132      0.2260
      4  O         33.4290   -2.7020   -7.6370 O.2   132  GLN132     -0.2867
      5  CB        35.2500   -0.4280   -7.7700 C.3   132  GLN132      0.0367
      6  CG        34.5080    0.2940   -6.6270 C.3   132  GLN132      0.0905
      7  CD        35.2010    0.1650   -5.3060 C.2   132  GLN132      0.2608
      8  OE1       36.3880    0.4750   -5.1660 O.2   132  GLN132     -0.2717
      9  NE2       34.4830   -0.3420   -4.3240 N.am  132  GLN132     -0.0878
     10  N         33.1670   -3.4680   -3.7620 N.3   134  GLN134     -0.1231
     11  CA        32.2410   -3.0340   -2.7160 C.3   134  GLN134      0.1698
     12  C         31.0410   -2.2540   -3.3270 C.2   134  GLN134      0.2592
     13  O         31.2720   -1.3560   -4.1250 O.2   134  GLN134     -0.2718
     14  CB        32.9480   -2.1980   -1.6330 C.3   134  GLN134      0.0381
     15  CG        32.1690   -2.1880   -0.3100 C.3   134  GLN134      0.0905
     16  CD        32.7720   -1.3580    0.7870 C.2   134  GLN134      0.2608
     17  OE1       33.3160   -0.2760    0.5590 O.2   134  GLN134     -0.2717
     18  NE2       32.5660   -1.7970    2.0210 N.am  134  GLN134     -0.0878
     19  N         29.7740   -2.5930   -2.9920 N.am  135  ALA135     -0.1980
     20  CA        29.3410   -3.6410   -2.0590 C.3   135  ALA135      0.1597
     21  C         29.2190   -5.0150   -2.6850 C.2   135  ALA135      0.2287
     22  O         29.7820   -5.9840   -2.1530 O.2   135  ALA135     -0.2864
     23  CB        27.9970   -3.2650   -1.4140 C.3   135  ALA135      0.0319
     24  N         35.4070    6.5620   -5.8490 N.3   265  TYR265     -0.1227
     25  CA        35.4640    6.8540   -4.4170 C.3   265  TYR265      0.1736
     26  C         36.7480    7.5830   -3.9980 C.2   265  TYR265      0.2596
     27  O         37.6470    7.7490   -4.8260 O.2   265  TYR265     -0.2718
     28  CB        35.1930    5.5750   -3.6030 C.3   265  TYR265      0.0548
     29  CG        33.8490    4.9540   -3.9370 C.ar  265  TYR265     -0.0200
     30  CD1       32.6630    5.5300   -3.4910 C.ar  265  TYR265     -0.0009
     31  CD2       33.7600    3.8270   -4.7510 C.ar  265  TYR265     -0.0009
     32  CE1       31.4230    4.9760   -3.8060 C.ar  265  TYR265      0.0417
     33  CE2       32.5220    3.2660   -5.0810 C.ar  265  TYR265      0.0417
     34  CZ        31.3570    3.8450   -4.6020 C.ar  265  TYR265      0.1957
     35  OH        30.1260    3.3150   -4.9000 O.3   265  TYR265     -0.2866
     36  N         36.7840    8.0800   -2.7520 N.am  266  GLY266     -0.1942
     37  CA        37.9610    8.7440   -2.1950 C.3   266  GLY266      0.2014
     38  C         39.0540    7.7200   -1.9390 C.2   266  GLY266      0.2639
     39  O         40.2250    7.8880   -2.3280 O.2   266  GLY266     -0.2714
     40  N         38.6380    6.6160   -1.3480 N.am  267  GLY267     -0.1939
     41  CA        39.5420    5.5020   -1.0850 C.3   267  GLY267      0.2014
     42  C         38.8030    4.1800   -0.9700 C.2   267  GLY267      0.2639
     43  O         37.6110    4.1630   -0.6840 O.2   267  GLY267     -0.2714
     44  N         39.4720    3.0780   -1.2310 N.am  268  MET268     -0.1963
     45  CA        38.8570    1.7660   -1.0590 C.3   268  MET268      0.1736
     46  C         39.9160    0.9580   -0.3240 C.2   268  MET268      0.2616
     47  O         41.0360    0.8410   -0.8100 O.2   268  MET268     -0.2715
     48  CB        38.4310    1.1060   -2.3950 C.3   268  MET268      0.0427
     49  CG        37.8750   -0.3010   -2.2080 C.3   268  MET268      0.0599
     50  SD        36.4140   -0.2120   -1.1340 S.3   268  MET268     -0.1393
     51  CE        36.4970   -1.8830   -0.3530 C.3   268  MET268      0.0692
     52  N         39.5590    0.4400    0.8590 N.am  269  GLU269     -0.1977
     53  CA        40.4410   -0.2740    1.8010 C.3   269  GLU269      0.1602
     54  C         40.8200   -1.6860    1.3870 C.2   269  GLU269      0.2287
     55  O         40.8530   -2.5920    2.2350 O.2   269  GLU269     -0.2864
     56  CB        39.7590   -0.3050    3.1760 C.3   269  GLU269      0.0415
     57  CG        38.4800   -1.1590    3.1890 C.3   269  GLU269      0.1163
     58  CD        37.1790   -0.4240    2.9320 C.2   269  GLU269      0.3649
     59  OE1       37.1940    0.6040    2.2170 O.co2 269  GLU269     -0.2457
     60  OE2       36.1320   -0.9030    3.4220 O.co2 269  GLU269     -0.2457
     61  N         41.7530    7.0820    7.2430 N.3   293  HIS293     -0.1226
     62  CA        40.5200    6.3190    7.1520 C.3   293  HIS293      0.1752
     63  C         40.7780    4.9150    6.5410 C.2   293  HIS293      0.2595
     64  O         40.3130    3.9180    7.0960 O.2   293  HIS293     -0.2718
     65  CB        39.4910    7.0820    6.3020 C.3   293  HIS293      0.0759
     66  CG        38.1680    6.3790    6.2260 C.ar  293  HIS293      0.0818
     67  ND1       37.1430    6.6640    7.1260 N.ar  293  HIS293     -0.2268
     68  CD2       37.7350    5.4490    5.3470 C.ar  293  HIS293      0.1154
     69  CE1       36.1260    5.9060    6.7580 C.ar  293  HIS293      0.1986
     70  NE2       36.4400    5.1420    5.7050 N.ar  293  HIS293     -0.2212
     71  N         41.4800    4.8390    5.3890 N.am  294  GLU294     -0.1979
     72  CA        41.7280    3.5360    4.7490 C.3   294  GLU294      0.1602
     73  C         42.5970    2.6220    5.6170 C.2   294  GLU294      0.2287
     74  O         42.3330    1.4110    5.7100 O.2   294  GLU294     -0.2864
     75  CB        42.3250    3.7140    3.3370 C.3   294  GLU294      0.0415
     76  CG        41.4210    4.4500    2.3510 C.3   294  GLU294      0.1163
     77  CD        39.9310    4.1670    2.4190 C.2   294  GLU294      0.3649
     78  OE1       39.5430    2.9780    2.4110 O.co2 294  GLU294     -0.2457
     79  OE2       39.1480    5.1420    2.4700 O.co2 294  GLU294     -0.2457
     80  N         40.5440    0.9480    8.3540 N.3   297  HIS297     -0.1241
     81  CA        39.7480   -0.1920    7.8650 C.3   297  HIS297      0.1621
     82  C         40.4940   -1.5310    7.9650 C.2   297  HIS297      0.2264
     83  O         39.8480   -2.5780    7.9630 O.2   297  HIS297     -0.2867
     84  CB        39.3190    0.0350    6.4070 C.3   297  HIS297      0.0745
     85  CG        38.0120    0.7370    6.2160 C.ar  297  HIS297      0.0817
     86  ND1       36.8410    0.2500    6.7660 N.ar  297  HIS297     -0.2268
     87  CD2       37.7140    1.7940    5.4320 C.ar  297  HIS297      0.1154
     88  CE1       35.8800    1.0440    6.3280 C.ar  297  HIS297      0.1986
     89  NE2       36.3550    1.9690    5.5080 N.ar  297  HIS297     -0.2212
     90  N         25.0130   -6.0520    4.5020 N.3   309  TRP309     -0.1227
     91  CA        25.0900   -4.6330    4.1660 C.3   309  TRP309      0.1737
     92  C         24.1510   -3.7370    4.9730 C.2   309  TRP309      0.2595
     93  O         24.3890   -2.5380    5.0530 O.2   309  TRP309     -0.2718
     94  CB        25.0030   -4.4220    2.6580 C.3   309  TRP309      0.0564
     95  CG        26.1360   -5.1040    1.9600 C.ar  309  TRP309      0.0003
     96  CD1       26.0700   -6.2520    1.2270 C.ar  309  TRP309      0.0946
     97  CD2       27.5220   -4.7800    2.0800 C.ar  309  TRP309      0.0152
     98  NE1       27.3300   -6.6050    0.7950 N.ar  309  TRP309     -0.2442
     99  CE2       28.2450   -5.7460    1.3440 C.ar  309  TRP309      0.0810
    100  CE3       28.2310   -3.7440    2.7110 C.ar  309  TRP309      0.0012
    101  CZ2       29.6290   -5.6880    1.2010 C.ar  309  TRP309      0.0191
    102  CZ3       29.6100   -3.6960    2.5770 C.ar  309  TRP309      0.0001
    103  CH2       30.2920   -4.6460    1.8180 C.ar  309  TRP309      0.0015
    104  N         23.1550   -4.3320    5.6470 N.am  310  ASP310     -0.1974
    105  CA        22.2520   -3.6140    6.5530 C.3   310  ASP310      0.1709
    106  C         23.0500   -3.0390    7.7580 C.2   310  ASP310      0.2293
    107  O         22.6620   -2.0200    8.3180 O.2   310  ASP310     -0.2864
    108  CB        21.2020   -4.5830    7.0960 C.3   310  ASP310      0.1436
    109  CG        20.1190   -5.0140    6.1140 C.2   310  ASP310      0.3671
    110  OD1       20.1510   -4.5580    4.9500 O.co2 310  ASP310     -0.2456
    111  OD2       19.1980   -5.7410    6.5350 O.co2 310  ASP310     -0.2456
    112  N         26.3320   -2.0610    7.6990 N.3   312  PHE312     -0.1227
    113  CA        27.4630   -1.3310    7.1210 C.3   312  PHE312      0.1736
    114  C         27.9880   -0.2420    8.0470 C.2   312  PHE312      0.2595
    115  O         29.1900   -0.0230    8.0590 O.2   312  PHE312     -0.2718
    116  CB        27.0710   -0.7400    5.7480 C.3   312  PHE312      0.0547
    117  CG        28.1380    0.0480    5.0110 C.ar  312  PHE312     -0.0202
    118  CD1       29.3230   -0.5630    4.6000 C.ar  312  PHE312     -0.0042
    119  CD2       27.9210    1.3760    4.6530 C.ar  312  PHE312     -0.0042
    120  CE1       30.3020    0.1680    3.9140 C.ar  312  PHE312     -0.0003
    121  CE2       28.8850    2.0960    3.9420 C.ar  312  PHE312     -0.0003
    122  CZ        30.0710    1.4890    3.5870 C.ar  312  PHE312     -0.0000
    123  N         27.1220    0.4090    8.8510 N.am  313  TRP313     -0.1976
    124  CA        27.5870    1.4260    9.8200 C.3   313  TRP313      0.1640
    125  C         28.6890    0.8850   10.7430 C.2   313  TRP313      0.2290
    126  O         29.5360    1.6510   11.1860 O.2   313  TRP313     -0.2864
    127  CB        26.4120    1.9880   10.6570 C.3   313  TRP313      0.0576
    128  CG        26.0390    1.1740   11.8640 C.ar  313  TRP313      0.0006
    129  CD1       25.1220    0.1600   11.9210 C.ar  313  TRP313      0.0946
    130  CD2       26.5500    1.3310   13.1930 C.ar  313  TRP313      0.0152
    131  NE1       25.0330   -0.3230   13.2030 N.ar  313  TRP313     -0.2442
    132  CE2       25.9190    0.3590   14.0010 C.ar  313  TRP313      0.0810
    133  CE3       27.5290    2.1680   13.7740 C.ar  313  TRP313      0.0012
    134  CZ2       26.1790    0.2450   15.3790 C.ar  313  TRP313      0.0191
    135  CZ3       27.7930    2.0440   15.1320 C.ar  313  TRP313      0.0001
    136  CH2       27.1380    1.0780   15.9150 C.ar  313  TRP313      0.0015
    137  N         31.8680    1.5280    8.7830 N.3   316  GLU316     -0.1245
    138  CA        32.1800    2.9470    8.6280 C.3   316  GLU316      0.1567
    139  C         32.3060    3.7840    9.8700 C.2   316  GLU316      0.2260
    140  O         33.2180    4.6020    9.9320 O.2   316  GLU316     -0.2867
    141  CB        31.2900    3.6100    7.5720 C.3   316  GLU316      0.0388
    142  CG        31.5010    3.0270    6.1830 C.3   316  GLU316      0.1160
    143  CD        32.9100    2.9180    5.6240 C.2   316  GLU316      0.3649
    144  OE1       33.7950    3.7210    6.0000 O.co2 316  GLU316     -0.2457
    145  OE2       33.1280    2.0120    4.7930 O.co2 316  GLU316     -0.2457
    146  N         16.8660    5.8030    4.4250 N.3   360  PHE360     -0.1241
    147  CA        18.3240    5.7390    4.2410 C.3   360  PHE360      0.1605
    148  C         19.0580    6.5790    5.2850 C.2   360  PHE360      0.2264
    149  O         20.2910    6.5270    5.3320 O.2   360  PHE360     -0.2867
    150  CB        18.7590    6.1360    2.8110 C.3   360  PHE360      0.0534
    151  CG        18.2590    5.3150    1.6340 C.ar  360  PHE360     -0.0203
    152  CD1       17.5330    4.1440    1.8310 C.ar  360  PHE360     -0.0042
    153  CD2       18.5040    5.7240    0.3280 C.ar  360  PHE360     -0.0042
    154  CE1       17.0490    3.4060    0.7420 C.ar  360  PHE360     -0.0003
    155  CE2       18.0390    4.9720   -0.7610 C.ar  360  PHE360     -0.0003
    156  CZ        17.3160    3.8200   -0.5460 C.ar  360  PHE360     -0.0000
    157  N         18.4030    6.1220    8.4950 N.3   362  LYS362     -0.1231
    158  CA        18.4470    5.1860    9.6120 C.3   362  LYS362      0.1693
    159  C         19.8790    4.6570    9.6600 C.2   362  LYS362      0.2591
    160  O         20.5130    4.5140    8.6000 O.2   362  LYS362     -0.2718
    161  CB        17.4960    4.0120    9.3750 C.3   362  LYS362      0.0285
    162  CG        16.0240    4.3900    9.4620 C.3   362  LYS362      0.0035
    163  CD        15.1230    3.1740    9.2500 C.3   362  LYS362      0.0206
    164  CE        13.6590    3.5530    9.3020 C.3   362  LYS362      0.1093
    165  NZ        12.7950    2.3480    9.2220 N.3   362  LYS362     -0.1314
    166  N         20.3950    4.3980   10.8720 N.am  363  LEU363     -0.1980
    167  CA        21.7410    3.8490   11.0580 C.3   363  LEU363      0.1596
    168  C         21.8030    2.4070   10.5520 C.2   363  LEU363      0.2287
    169  O         22.7060    2.0600    9.7870 O.2   363  LEU363     -0.2864
    170  CB        22.1640    3.9510   12.5240 C.3   363  LEU363      0.0297
    171  CG        23.6320    3.6450   12.8150 C.3   363  LEU363      0.0022
    172  CD1       24.5580    4.6590   12.1310 C.3   363  LEU363      0.0001
    173  CD2       23.8900    3.6280   14.3090 C.3   363  LEU363      0.0001
    174  N         19.8930   -0.0470    8.1530 N.3   365  VAL365     -0.1245
    175  CA        18.9470    0.0390    7.0350 C.3   365  VAL365      0.1561
    176  C         18.4450   -1.3280    6.6080 C.2   365  VAL365      0.2260
    177  O         19.1500   -2.3010    6.7700 O.2   365  VAL365     -0.2867
    178  CB        19.5590    0.7960    5.8200 C.3   365  VAL365      0.0252
    179  CG1       19.9390    2.2390    6.1820 C.3   365  VAL365      0.0019
    180  CG2       20.7600    0.0430    5.2560 C.3   365  VAL365      0.0019
    181  N         17.9830   -3.2500    3.4550 N.3   367  LEU367     -0.1245
    182  CA        18.3190   -3.2100    2.0270 C.3   367  LEU367      0.1561
    183  C         17.5690   -4.1880    1.1090 C.2   367  LEU367      0.2260
    184  O         17.9600   -4.3430   -0.0560 O.2   367  LEU367     -0.2867
    185  CB        19.8350   -3.2700    1.8040 C.3   367  LEU367      0.0270
    186  CG        20.6310   -2.0640    2.2990 C.3   367  LEU367      0.0019
    187  CD1       22.1080   -2.3340    2.2610 C.3   367  LEU367      0.0001
    188  CD2       20.3290   -0.8180    1.4840 C.3   367  LEU367      0.0001
    189  N         22.5540   -1.3720   -3.0040 N.3   372  PRO372     -0.2102
    190  CA        23.4200   -0.6640   -2.0330 C.3   372  PRO372      0.1504
    191  C         24.0920    0.6160   -2.5670 C.2   372  PRO372      0.2575
    192  O         24.3120    1.5490   -1.7860 O.2   372  PRO372     -0.2718
    193  CB        24.4390   -1.7410   -1.6050 C.3   372  PRO372      0.0282
    194  CG        23.7480   -3.0380   -1.8680 C.3   372  PRO372      0.0208
    195  CD        22.9550   -2.7920   -3.1290 C.3   372  PRO372      0.0893
    196  N         24.3910    0.6800   -3.8920 N.am  373  ASP373     -0.1974
    197  CA        24.9870    1.8790   -4.5190 C.3   373  ASP373      0.1708
    198  C         24.0660    3.1110   -4.4520 C.2   373  ASP373      0.2293
    199  O         24.5600    4.2240   -4.3590 O.2   373  ASP373     -0.2864
    200  CB        25.3910    1.6090   -5.9750 C.3   373  ASP373      0.1436
    201  CG        26.5860    0.6830   -6.1020 C.2   373  ASP373      0.3671
    202  OD1       27.4060    0.6380   -5.1610 O.co2 373  ASP373     -0.2456
    203  OD2       26.7090    0.0240   -7.1460 O.co2 373  ASP373     -0.2456
    204  N         21.6720    3.4200   -1.9530 N.3   375  ALA375     -0.1231
    205  CA        21.5300    3.7210   -0.5280 C.3   375  ALA375      0.1694
    206  C         22.7630    4.4110    0.0570 C.2   375  ALA375      0.2592
    207  O         22.6630    5.0250    1.1170 O.2   375  ALA375     -0.2718
    208  CB        21.2550    2.4490    0.2390 C.3   375  ALA375      0.0304
    209  N         23.9300    4.2560   -0.5930 N.am  376  TYR376     -0.1976
    210  CA        25.1910    4.8130   -0.1110 C.3   376  TYR376      0.1639
    211  C         25.1600    6.3320    0.1030 C.2   376  TYR376      0.2290
    212  O         24.6770    7.0650   -0.7530 O.2   376  TYR376     -0.2864
    213  CB        26.3720    4.3880   -1.0020 C.3   376  TYR376      0.0560
    214  CG        27.6860    4.9660   -0.5190 C.ar  376  TYR376     -0.0198
    215  CD1       28.3500    4.4190    0.5770 C.ar  376  TYR376     -0.0009
    216  CD2       28.2210    6.1130   -1.1000 C.ar  376  TYR376     -0.0009
    217  CE1       29.5240    4.9810    1.0640 C.ar  376  TYR376      0.0417
    218  CE2       29.4090    6.6680   -0.6400 C.ar  376  TYR376      0.0417
    219  CZ        30.0560    6.1000    0.4450 C.ar  376  TYR376      0.1957
    220  OH        31.2380    6.6200    0.8930 O.3   376  TYR376     -0.2866
    221  N         25.9570    6.3080    7.3390 N.3   380  PRO380     -0.2102
    222  CA        26.6430    5.3050    8.1770 C.3   380  PRO380      0.1504
    223  C         27.9700    5.7920    8.7490 C.2   380  PRO380      0.2575
    224  O         28.3190    5.3900    9.8420 O.2   380  PRO380     -0.2718
    225  CB        26.8610    4.1230    7.2190 C.3   380  PRO380      0.0282
    226  CG        26.7100    4.6740    5.8610 C.3   380  PRO380      0.0208
    227  CD        25.6940    5.7700    5.9840 C.3   380  PRO380      0.0893
    228  N         28.6840    6.6780    8.0360 N.am  381  TYR381     -0.1977
    229  CA        29.9530    7.2330    8.5160 C.3   381  TYR381      0.1639
    230  C         29.7060    8.1700    9.6780 C.2   381  TYR381      0.2290
    231  O         30.3250    8.0270   10.7280 O.2   381  TYR381     -0.2864
    232  CB        30.6330    8.0810    7.4160 C.3   381  TYR381      0.0560
    233  CG        31.0940    7.3140    6.2040 C.ar  381  TYR381     -0.0198
    234  CD1       30.1890    6.9240    5.2160 C.ar  381  TYR381     -0.0009
    235  CD2       32.4430    7.0700    5.9850 C.ar  381  TYR381     -0.0009
    236  CE1       30.6080    6.2250    4.0900 C.ar  381  TYR381      0.0417
    237  CE2       32.8800    6.3930    4.8450 C.ar  381  TYR381      0.0417
    238  CZ        31.9540    5.9620    3.9090 C.ar  381  TYR381      0.1957
    239  OH        32.3570    5.2840    2.7940 O.3   381  TYR381     -0.2866
@<TRIPOS>BOND
     1     1     2    1
     2     5     2    1
     3     5     6    1
     4     4     3    2
     5     2     3    1
     6   203   201   ar
     7     6     7    1
     8   201   200    1
     9   201   202   ar
    10   200   197    1
    11    24    25    1
    12     7     8    2
    13     7     9   am
    14    33    31   ar
    15    33    34   ar
    16    35    34    1
    17    27    26    2
    18    31    29   ar
    19    34    32   ar
    20   197   198    1
    21   197   196    1
    22   198   199    2
    23    25    26    1
    24    25    28    1
    25    13    12    2
    26    26    36   am
    27    29    28    1
    28    29    30   ar
    29   196   191   am
    30    32    30   ar
    31    10    11    1
    32    12    19   am
    33    12    11    1
    34   195   189    1
    35   195   194    1
    36   189   190    1
    37    19    20    1
    38    36    37    1
    39    11    14    1
    40    21    22    2
    41    21    20    1
    42   191   190    1
    43   191   192    2
    44    48    49    1
    45    48    45    1
    46    39    38    2
    47    49    50    1
    48    37    38    1
    49    20    23    1
    50   190   193    1
    51   204   205    1
    52    38    40   am
    53   194   193    1
    54    14    15    1
    55    40    41    1
    56    44    45    1
    57    44    42   am
    58    50    51    1
    59   216   218   ar
    60   216   214   ar
    61    41    42    1
    62    45    46    1
    63   213   214    1
    64   213   210    1
    65    42    43    2
    66    47    46    2
    67   155   156   ar
    68   155   153   ar
    69   212   211    2
    70   218   219   ar
    71   209   210    1
    72   209   206   am
    73   156   154   ar
    74   205   206    1
    75   205   208    1
    76   214   215   ar
    77    46    52   am
    78    15    16    1
    79   210   211    1
    80   184   183    2
    81   206   207    2
    82   153   151   ar
    83   219   220    1
    84   219   217   ar
    85    17    16    2
    86   215   217   ar
    87   154   152   ar
    88    16    18   am
    89    98    96   ar
    90    98    99   ar
    91    52    53    1
    92   183   182    1
    93   101    99   ar
    94   101   103   ar
    95    96    95   ar
    96    99    97   ar
    97    54    53    1
    98    54    55    2
    99   188   186    1
   100   151   152   ar
   101   151   150    1
   102    53    56    1
   103   185   182    1
   104   185   186    1
   105   103   102   ar
   106    95    97   ar
   107    95    94    1
   108   182   181    1
   109    97   100   ar
   110    59    58   ar
   111   187   186    1
   112    76    77    1
   113    76    75    1
   114    78    77   ar
   115    77    79   ar
   116   102   100   ar
   117    94    91    1
   118   239   238    1
   119   150   147    1
   120    58    57    1
   121    58    60   ar
   122    56    57    1
   123    75    72    1
   124   122   120   ar
   125   122   121   ar
   126   238   236   ar
   127   238   237   ar
   128   120   118   ar
   129   121   119   ar
   130   236   234   ar
   131    91    90    1
   132    91    92    1
   133   147   146    1
   134   147   148    1
   135   118   117   ar
   136   119   117   ar
   137    72    71    1
   138    72    73    1
   139   145   143   ar
   140   237   235   ar
   141   110   109   ar
   142    92    93    2
   143    92   104   am
   144   117   116    1
   145   234   233   ar
   146   180   178    1
   147   148   149    2
   148    68    70   ar
   149    68    66   ar
   150    71    63   am
   151    87    89   ar
   152    87    85   ar
   153    89    88   ar
   154    73    74    2
   155   143   144   ar
   156   143   142    1
   157   104   105    1
   158    70    69   ar
   159   116   113    1
   160   178   179    1
   161   178   175    1
   162   226   227    1
   163   226   225    1
   164   227   221    1
   165   235   233   ar
   166   109   111   ar
   167   109   108    1
   168   142   141    1
   169   233   232    1
   170    85    84    1
   171    85    86   ar
   172    66    65    1
   173    66    67   ar
   174    65    62    1
   175    88    86   ar
   176    84    81    1
   177    63    64    2
   178    63    62    1
   179   105   108    1
   180   105   106    1
   181   176   177    2
   182   176   175    1
   183    69    67   ar
   184   175   174    1
   185   113   112    1
   186   113   114    1
   187    62    61    1
   188   225   222    1
   189   221   222    1
   190   232   229    1
   191   141   138    1
   192   106   107    2
   193    81    82    1
   194    81    80    1
   195    83    82    2
   196   228   229    1
   197   228   223   am
   198   114   115    2
   199   114   123   am
   200   222   223    1
   201   157   158    1
   202   229   230    1
   203   160   159    2
   204   138   137    1
   205   138   139    1
   206   223   224    2
   207   123   124    1
   208   165   164    1
   209   163   164    1
   210   163   162    1
   211   161   162    1
   212   161   158    1
   213   158   159    1
   214   159   166   am
   215   230   231    2
   216   169   168    2
   217   124   127    1
   218   124   125    1
   219   139   140    2
   220   168   167    1
   221   127   128    1
   222   125   126    2
   223   166   167    1
   224   167   170    1
   225   128   129   ar
   226   128   130   ar
   227   129   131   ar
   228   172   171    1
   229   170   171    1
   230   171   173    1
   231   130   133   ar
   232   130   132   ar
   233   131   132   ar
   234   133   135   ar
   235   132   134   ar
   236   135   136   ar
   237   134   136   ar
