@<TRIPOS>MOLECULE
tmp/6endA00.pdb
 197 195 0 0 0
SMALL
GASTEIGER

@<TRIPOS>ATOM
      1  N         -3.1580   -2.4300   -8.5280 N.3   131  GLN131     -0.1245
      2  CA        -3.8020   -1.8610   -7.3640 C.3   131  GLN131      0.1566
      3  C         -5.0010   -2.7850   -7.0480 C.2   131  GLN131      0.2260
      4  O         -6.0670   -2.6630   -7.6550 O.2   131  GLN131     -0.2867
      5  CB        -4.1920   -0.3860   -7.6170 C.3   131  GLN131      0.0367
      6  CG        -5.0300    0.2610   -6.5030 C.3   131  GLN131      0.0905
      7  CD        -4.3220    0.2530   -5.1850 C.2   131  GLN131      0.2608
      8  OE1       -3.1020    0.4460   -5.1120 O.2   131  GLN131     -0.2717
      9  NE2       -5.0750    0.0130   -4.1250 N.am  131  GLN131     -0.0878
     10  N         -6.4060   -3.4280   -3.8020 N.3   133  GLN133     -0.1231
     11  CA        -7.2990   -2.9590   -2.7510 C.3   133  GLN133      0.1698
     12  C         -8.4990   -2.1730   -3.3050 C.2   133  GLN133      0.2592
     13  O         -8.3160   -1.3120   -4.1020 O.2   133  GLN133     -0.2718
     14  CB        -6.5520   -2.1880   -1.6540 C.3   133  GLN133      0.0381
     15  CG        -7.2600   -2.2130   -0.3290 C.3   133  GLN133      0.0905
     16  CD        -6.6070   -1.4160    0.7700 C.2   133  GLN133      0.2608
     17  OE1       -5.7610   -0.6240    0.5470 O.2   133  GLN133     -0.2717
     18  NE2       -7.0380   -1.6340    1.9670 N.am  133  GLN133     -0.0878
     19  N         -9.7210   -2.5140   -2.9200 N.am  134  ALA134     -0.1980
     20  CA       -10.0810   -3.5910   -1.9840 C.3   134  ALA134      0.1597
     21  C        -10.2230   -4.9660   -2.5970 C.2   134  ALA134      0.2287
     22  O         -9.7360   -5.9610   -2.0320 O.2   134  ALA134     -0.2864
     23  CB       -11.3770   -3.2210   -1.2690 C.3   134  ALA134      0.0319
     24  N         -4.0110    6.6230   -5.7010 N.3   264  TYR264     -0.1241
     25  CA        -3.9910    7.0180   -4.2860 C.3   264  TYR264      0.1605
     26  C         -2.6580    7.6620   -3.8870 C.2   264  TYR264      0.2264
     27  O         -1.7380    7.7370   -4.7080 O.2   264  TYR264     -0.2867
     28  CB        -4.3840    5.8430   -3.3530 C.3   264  TYR264      0.0534
     29  CG        -5.7160    5.2070   -3.6830 C.ar  264  TYR264     -0.0201
     30  CD1       -6.8980    5.6950   -3.1370 C.ar  264  TYR264     -0.0009
     31  CD2       -5.7970    4.1150   -4.5460 C.ar  264  TYR264     -0.0009
     32  CE1       -8.1320    5.1300   -3.4600 C.ar  264  TYR264      0.0417
     33  CE2       -7.0260    3.5490   -4.8860 C.ar  264  TYR264      0.0417
     34  CZ        -8.1910    4.0500   -4.3280 C.ar  264  TYR264      0.1957
     35  OH        -9.4110    3.4690   -4.6150 O.3   264  TYR264     -0.2866
     36  N          0.2600    3.1360   -1.2370 N.3   267  MET267     -0.1245
     37  CA        -0.3810    1.8230   -1.0660 C.3   267  MET267      0.1570
     38  C          0.6420    0.9290   -0.3360 C.2   267  MET267      0.2261
     39  O          1.7550    0.7300   -0.8360 O.2   267  MET267     -0.2867
     40  CB        -0.9070    1.2560   -2.4160 C.3   267  MET267      0.0387
     41  CG        -1.4700   -0.1430   -2.3060 C.3   267  MET267      0.0595
     42  SD        -2.9880   -0.1750   -1.3370 S.3   267  MET267     -0.1393
     43  CE        -2.8580   -1.8380   -0.5840 C.3   267  MET267      0.0692
     44  N        -14.5050   -5.9330    4.6190 N.3   308  TRP308     -0.1227
     45  CA       -14.4200   -4.5220    4.2800 C.3   308  TRP308      0.1737
     46  C        -15.3450   -3.6440    5.1180 C.2   308  TRP308      0.2595
     47  O        -15.1140   -2.4500    5.1830 O.2   308  TRP308     -0.2718
     48  CB       -14.4810   -4.2830    2.7620 C.3   308  TRP308      0.0564
     49  CG       -13.3650   -4.9920    2.0640 C.ar  308  TRP308      0.0003
     50  CD1      -13.4450   -6.1580    1.3520 C.ar  308  TRP308      0.0946
     51  CD2      -11.9740   -4.6580    2.1390 C.ar  308  TRP308      0.0152
     52  NE1      -12.1960   -6.5270    0.9140 N.ar  308  TRP308     -0.2442
     53  CE2      -11.2670   -5.6470    1.4190 C.ar  308  TRP308      0.0810
     54  CE3      -11.2640   -3.5810    2.6900 C.ar  308  TRP308      0.0012
     55  CZ2       -9.8780   -5.6000    1.2530 C.ar  308  TRP308      0.0191
     56  CZ3       -9.8790   -3.5450    2.5400 C.ar  308  TRP308      0.0001
     57  CH2       -9.2000   -4.5550    1.8450 C.ar  308  TRP308      0.0015
     58  N        -16.3050   -4.2520    5.8670 N.am  309  ASP309     -0.1974
     59  CA       -17.1600   -3.5170    6.7970 C.3   309  ASP309      0.1709
     60  C        -16.3220   -2.9750    7.9840 C.2   309  ASP309      0.2293
     61  O        -16.7240   -2.0010    8.6290 O.2   309  ASP309     -0.2864
     62  CB       -18.2590   -4.4270    7.3510 C.3   309  ASP309      0.1436
     63  CG       -19.2820   -5.0060    6.3750 C.2   309  ASP309      0.3671
     64  OD1      -19.3120   -4.5740    5.2070 O.co2 309  ASP309     -0.2456
     65  OD2      -20.0690   -5.8660    6.7960 O.co2 309  ASP309     -0.2456
     66  N        -12.9680   -1.9900    7.7460 N.3   311  PHE311     -0.1227
     67  CA       -11.8670   -1.2320    7.1370 C.3   311  PHE311      0.1736
     68  C        -11.3280   -0.1450    8.0720 C.2   311  PHE311      0.2595
     69  O        -10.1120    0.1060    8.0730 O.2   311  PHE311     -0.2718
     70  CB       -12.2720   -0.6900    5.7410 C.3   311  PHE311      0.0547
     71  CG       -11.2270    0.1220    4.9890 C.ar  311  PHE311     -0.0202
     72  CD1      -10.0400   -0.4660    4.5530 C.ar  311  PHE311     -0.0042
     73  CD2      -11.4390    1.4640    4.7080 C.ar  311  PHE311     -0.0042
     74  CE1       -9.0700    0.2870    3.8770 C.ar  311  PHE311     -0.0003
     75  CE2      -10.4760    2.2140    4.0240 C.ar  311  PHE311     -0.0003
     76  CZ        -9.2940    1.6190    3.6110 C.ar  311  PHE311     -0.0000
     77  N        -12.2090    0.4570    8.9120 N.am  312  TRP312     -0.1976
     78  CA       -11.7840    1.4780    9.8890 C.3   312  TRP312      0.1640
     79  C        -10.6820    0.9650   10.8270 C.2   312  TRP312      0.2290
     80  O         -9.8480    1.7480   11.2530 O.2   312  TRP312     -0.2864
     81  CB       -12.9780    2.0430   10.6810 C.3   312  TRP312      0.0576
     82  CG       -13.3310    1.2470   11.9050 C.ar  312  TRP312      0.0006
     83  CD1      -14.1860    0.1870   11.9770 C.ar  312  TRP312      0.0946
     84  CD2      -12.7770    1.4080   13.2180 C.ar  312  TRP312      0.0152
     85  NE1      -14.2220   -0.3040   13.2540 N.ar  312  TRP312     -0.2442
     86  CE2      -13.3480    0.4130   14.0360 C.ar  312  TRP312      0.0810
     87  CE3      -11.8390    2.2950   13.7810 C.ar  312  TRP312      0.0012
     88  CZ2      -13.0260    0.2850   15.3930 C.ar  312  TRP312      0.0191
     89  CZ3      -11.4940    2.1460   15.1160 C.ar  312  TRP312      0.0001
     90  CH2      -12.0950    1.1580   15.9110 C.ar  312  TRP312      0.0015
     91  N        -22.5270    5.8440    4.7330 N.3   359  PHE359     -0.1241
     92  CA       -21.0660    5.8310    4.5300 C.3   359  PHE359      0.1605
     93  C        -20.3450    6.7270    5.5570 C.2   359  PHE359      0.2264
     94  O        -19.1060    6.7690    5.5740 O.2   359  PHE359     -0.2867
     95  CB       -20.6680    6.2570    3.0930 C.3   359  PHE359      0.0534
     96  CG       -21.1630    5.4480    1.9050 C.ar  359  PHE359     -0.0203
     97  CD1      -21.8860    4.2730    2.0860 C.ar  359  PHE359     -0.0042
     98  CD2      -20.8710    5.8460    0.6040 C.ar  359  PHE359     -0.0042
     99  CE1      -22.3260    3.5320    0.9870 C.ar  359  PHE359     -0.0003
    100  CE2      -21.3240    5.1090   -0.4920 C.ar  359  PHE359     -0.0003
    101  CZ       -22.0410    3.9640   -0.2960 C.ar  359  PHE359     -0.0000
    102  N        -20.8940    6.2370    8.7020 N.3   361  LYS361     -0.1231
    103  CA       -20.8230    5.3040    9.8150 C.3   361  LYS361      0.1693
    104  C        -19.4170    4.7590    9.8890 C.2   361  LYS361      0.2591
    105  O        -18.8010    4.5360    8.8440 O.2   361  LYS361     -0.2718
    106  CB       -21.8000    4.1360    9.6260 C.3   361  LYS361      0.0285
    107  CG       -23.2790    4.5190    9.7080 C.3   361  LYS361      0.0035
    108  CD       -24.1400    3.3070    9.4310 C.3   361  LYS361      0.0206
    109  CE       -25.6050    3.6860    9.3490 C.3   361  LYS361      0.1093
    110  NZ       -26.4830    2.5120    9.5480 N.3   361  LYS361     -0.1314
    111  N        -18.9190    4.4920   11.1130 N.am  362  LEU362     -0.1980
    112  CA       -17.5860    3.9160   11.3030 C.3   362  LEU362      0.1596
    113  C        -17.5450    2.4700   10.8050 C.2   362  LEU362      0.2287
    114  O        -16.6450    2.1010   10.0430 O.2   362  LEU362     -0.2864
    115  CB       -17.1350    4.0500   12.7650 C.3   362  LEU362      0.0297
    116  CG       -15.6650    3.7500   13.0630 C.3   362  LEU362      0.0022
    117  CD1      -14.7400    4.7610   12.4020 C.3   362  LEU362      0.0001
    118  CD2      -15.4220    3.7390   14.5300 C.3   362  LEU362      0.0001
    119  N        -19.4870   -0.0230    8.5050 N.3   364  VAL364     -0.1245
    120  CA       -20.4470    0.0330    7.3900 C.3   364  VAL364      0.1561
    121  C        -21.0290   -1.3270    7.0230 C.2   364  VAL364      0.2260
    122  O        -20.5260   -2.3400    7.4750 O.2   364  VAL364     -0.2867
    123  CB       -19.8420    0.7430    6.1480 C.3   364  VAL364      0.0252
    124  CG1      -19.3830    2.1630    6.4910 C.3   364  VAL364      0.0019
    125  CG2      -18.6970   -0.0800    5.5460 C.3   364  VAL364      0.0019
    126  N        -21.4170   -3.2610    3.6850 N.3   366  LEU366     -0.1245
    127  CA       -21.0780   -3.2540    2.2600 C.3   366  LEU366      0.1561
    128  C        -21.8500   -4.2280    1.3690 C.2   366  LEU366      0.2260
    129  O        -21.4610   -4.4400    0.2170 O.2   366  LEU366     -0.2867
    130  CB       -19.5660   -3.3460    2.0340 C.3   366  LEU366      0.0270
    131  CG       -18.7950   -2.1010    2.4220 C.3   366  LEU366      0.0019
    132  CD1      -17.3240   -2.3040    2.2670 C.3   366  LEU366      0.0001
    133  CD2      -19.2420   -0.8760    1.6280 C.3   366  LEU366      0.0001
    134  N        -16.9360   -1.4150   -2.7800 N.3   371  PRO371     -0.2102
    135  CA       -16.0160   -0.7220   -1.8410 C.3   371  PRO371      0.1504
    136  C        -15.3520    0.5570   -2.3650 C.2   371  PRO371      0.2575
    137  O        -15.0450    1.4450   -1.5610 O.2   371  PRO371     -0.2718
    138  CB       -14.9770   -1.8000   -1.5040 C.3   371  PRO371      0.0282
    139  CG       -15.6970   -3.1150   -1.7520 C.3   371  PRO371      0.0208
    140  CD       -16.5740   -2.8460   -2.9310 C.3   371  PRO371      0.0893
    141  N        -15.1320    0.6650   -3.7060 N.am  372  ASP372     -0.1974
    142  CA       -14.5180    1.8560   -4.3360 C.3   372  ASP372      0.1708
    143  C        -15.4290    3.0730   -4.2420 C.2   372  ASP372      0.2293
    144  O        -14.9450    4.2030   -4.2250 O.2   372  ASP372     -0.2864
    145  CB       -14.1230    1.5860   -5.8100 C.3   372  ASP372      0.1436
    146  CG       -12.9750    0.5990   -5.9910 C.2   372  ASP372      0.3671
    147  OD1      -12.2750    0.3110   -4.9980 O.co2 372  ASP372     -0.2456
    148  OD2      -12.7870    0.1070   -7.1260 O.co2 372  ASP372     -0.2456
    149  N        -17.7700    3.4070   -1.5930 N.3   374  ALA374     -0.1231
    150  CA       -17.8140    3.6810   -0.1510 C.3   374  ALA374      0.1694
    151  C        -16.5520    4.4460    0.3280 C.2   374  ALA374      0.2592
    152  O        -16.6320    5.2000    1.2940 O.2   374  ALA374     -0.2718
    153  CB       -17.9100    2.3630    0.6060 C.3   374  ALA374      0.0304
    154  N        -15.3930    4.1930   -0.2890 N.am  375  TYR375     -0.1962
    155  CA       -14.1210    4.8220    0.1080 C.3   375  TYR375      0.1771
    156  C        -14.1850    6.3410    0.3560 C.2   375  TYR375      0.2620
    157  O        -14.6500    7.0790   -0.5090 O.2   375  TYR375     -0.2715
    158  CB       -12.9990    4.4510   -0.8670 C.3   375  TYR375      0.0574
    159  CG       -11.6410    4.9700   -0.4450 C.ar  375  TYR375     -0.0198
    160  CD1      -10.8260    4.2330    0.4090 C.ar  375  TYR375     -0.0009
    161  CD2      -11.1760    6.2060   -0.8880 C.ar  375  TYR375     -0.0009
    162  CE1       -9.5920    4.7220    0.8300 C.ar  375  TYR375      0.0417
    163  CE2       -9.9380    6.7000   -0.4870 C.ar  375  TYR375      0.0417
    164  CZ        -9.1410    5.9470    0.3620 C.ar  375  TYR375      0.1957
    165  OH        -7.9210    6.4330    0.7600 O.3   375  TYR375     -0.2866
    166  N        -13.6870    6.7970    1.5310 N.am  376  SER376     -0.1950
    167  CA       -13.6450    8.2210    1.9260 C.3   376  SER376      0.1924
    168  C        -12.7190    8.4430    3.1240 C.2   376  SER376      0.2314
    169  O        -12.1350    7.4930    3.6340 O.2   376  SER376     -0.2863
    170  CB       -15.0540    8.7190    2.2930 C.3   376  SER376      0.2116
    171  OG       -15.4870    8.2560    3.5640 O.3   376  SER376     -0.2180
    172  N        -13.8330    9.1080    6.0400 N.3   378  VAL378     -0.1231
    173  CA       -14.5500    8.6020    7.2130 C.3   378  VAL378      0.1678
    174  C        -13.7940    7.5180    8.0160 C.2   378  VAL378      0.2434
    175  O        -13.5370    7.7620    9.1960 O.2   378  VAL378     -0.2733
    176  CB       -16.0660    8.3130    6.9850 C.3   378  VAL378      0.0265
    177  CG1      -16.6960    7.6160    8.1960 C.3   378  VAL378      0.0020
    178  CG2      -16.8320    9.5910    6.6590 C.3   378  VAL378      0.0020
    179  N        -13.4080    6.3480    7.4470 N.am  379  PRO379     -0.2718
    180  CA       -12.7020    5.3360    8.2690 C.3   379  PRO379      0.1535
    181  C        -11.3750    5.8270    8.8720 C.2   379  PRO379      0.2598
    182  O        -10.9990    5.4100    9.9770 O.2   379  PRO379     -0.2715
    183  CB       -12.4690    4.1840    7.2790 C.3   379  PRO379      0.0310
    184  CG       -12.5170    4.8410    5.9210 C.3   379  PRO379      0.0237
    185  CD       -13.6140    5.8470    6.0710 C.3   379  PRO379      0.0939
    186  N        -10.6860    6.7370    8.1450 N.am  380  TYR380     -0.1974
    187  CA        -9.4220    7.3400    8.5510 C.3   380  TYR380      0.1639
    188  C         -9.6400    8.2830    9.7320 C.2   380  TYR380      0.2290
    189  O         -9.0100    8.1330   10.7830 O.2   380  TYR380     -0.2864
    190  CB        -8.8510    8.1780    7.3930 C.3   380  TYR380      0.0560
    191  CG        -8.3940    7.3790    6.1990 C.ar  380  TYR380     -0.0198
    192  CD1       -9.2930    7.0100    5.1970 C.ar  380  TYR380     -0.0009
    193  CD2       -7.0470    7.0890    6.0070 C.ar  380  TYR380     -0.0009
    194  CE1       -8.8720    6.3180    4.0680 C.ar  380  TYR380      0.0417
    195  CE2       -6.6080    6.4140    4.8690 C.ar  380  TYR380      0.0417
    196  CZ        -7.5280    6.0150    3.9090 C.ar  380  TYR380      0.1957
    197  OH        -7.1040    5.3400    2.7900 O.3   380  TYR380     -0.2866
@<TRIPOS>BOND
     1     1     2    1
     2     4     3    2
     3     5     2    1
     4     5     6    1
     5     2     3    1
     6   148   146   ar
     7     6     7    1
     8   146   145    1
     9   146   147   ar
    10   145   142    1
    11    24    25    1
    12     7     8    2
    13     7     9   am
    14    33    31   ar
    15    33    34   ar
    16    27    26    2
    17    35    34    1
    18    31    29   ar
    19   142   143    1
    20   142   141    1
    21    34    32   ar
    22    25    26    1
    23    25    28    1
    24   143   144    2
    25    13    12    2
    26    10    11    1
    27   141   136   am
    28    29    28    1
    29    29    30   ar
    30    32    30   ar
    31    12    19   am
    32    12    11    1
    33   140   134    1
    34   140   139    1
    35    19    20    1
    36   134   135    1
    37    11    14    1
    38    21    22    2
    39    21    20    1
    40    40    41    1
    41    40    37    1
    42   136   135    1
    43   136   137    2
    44    41    42    1
    45    20    23    1
    46   135   138    1
    47   139   138    1
    48    14    15    1
    49   149   150    1
    50    42    43    1
    51    36    37    1
    52    37    38    1
    53   161   163   ar
    54   161   159   ar
    55   158   159    1
    56   158   155    1
    57    39    38    2
    58   157   156    2
    59   100   101   ar
    60   100    98   ar
    61   163   164   ar
    62   159   160   ar
    63    15    16    1
    64   101    99   ar
    65   154   155    1
    66   154   151   am
    67   150   151    1
    68   150   153    1
    69   155   156    1
    70   129   128    2
    71   151   152    2
    72   156   166   am
    73   164   165    1
    74   164   162   ar
    75   160   162   ar
    76    17    16    2
    77    98    96   ar
    78    16    18   am
    79    52    50   ar
    80    52    53   ar
    81    99    97   ar
    82    55    53   ar
    83    55    57   ar
    84    50    49   ar
    85   128   127    1
    86    53    51   ar
    87   166   167    1
    88   133   131    1
    89    57    56   ar
    90    96    97   ar
    91    96    95    1
    92   167   170    1
    93   167   168    1
    94   130   127    1
    95   130   131    1
    96    49    51   ar
    97    49    48    1
    98    51    54   ar
    99   127   126    1
   100   132   131    1
   101   170   171    1
   102    56    54   ar
   103    48    45    1
   104   197   196    1
   105    95    92    1
   106   168   169    2
   107    76    74   ar
   108    76    75   ar
   109    74    72   ar
   110   196   194   ar
   111   196   195   ar
   112    75    73   ar
   113   194   192   ar
   114    45    44    1
   115    45    46    1
   116    92    91    1
   117    92    93    1
   118    72    71   ar
   119    73    71   ar
   120   195   193   ar
   121    71    70    1
   122    46    47    2
   123    46    58   am
   124   192   191   ar
   125    64    63   ar
   126   125   123    1
   127    93    94    2
   128    70    67    1
   129    58    59    1
   130   184   185    1
   131   184   183    1
   132   193   191   ar
   133   172   173    1
   134   185   179    1
   135   123   124    1
   136   123   120    1
   137   191   190    1
   138    63    65   ar
   139    63    62    1
   140   178   176    1
   141    59    62    1
   142    59    60    1
   143   176   173    1
   144   176   177    1
   145   121   120    1
   146   121   122    2
   147    67    66    1
   148    67    68    1
   149   173   174    1
   150   183   180    1
   151   120   119    1
   152   190   187    1
   153   179   174   am
   154   179   180    1
   155    60    61    2
   156   174   175    2
   157    68    69    2
   158    68    77   am
   159   186   187    1
   160   186   181   am
   161   180   181    1
   162   187   188    1
   163   102   103    1
   164   105   104    2
   165   181   182    2
   166    77    78    1
   167   109   108    1
   168   109   110    1
   169   108   107    1
   170   106   107    1
   171   106   103    1
   172   188   189    2
   173   103   104    1
   174   104   111   am
   175    78    81    1
   176    78    79    1
   177   114   113    2
   178    81    82    1
   179   113   112    1
   180    79    80    2
   181   111   112    1
   182   112   115    1
   183    82    83   ar
   184    82    84   ar
   185    83    85   ar
   186   117   116    1
   187   115   116    1
   188   116   118    1
   189    84    87   ar
   190    84    86   ar
   191    85    86   ar
   192    87    89   ar
   193    86    88   ar
   194    89    90   ar
   195    88    90   ar
