@<TRIPOS>MOLECULE
tmp/6eneA00.pdb
 76 76 0 0 0
SMALL
GASTEIGER

@<TRIPOS>ATOM
      1  N         38.0900   22.8920  -17.5270 N.3    19  GLY19      -0.1210
      2  CA        39.0910   23.8580  -17.9890 C.3    19  GLY19       0.1956
      3  C         38.6500   24.4920  -19.2950 C.2    19  GLY19       0.2612
      4  O         38.4060   23.7530  -20.2530 O.2    19  GLY19      -0.2717
      5  N         38.5730   25.8300  -19.3780 N.am   20  LEU20      -0.1965
      6  CA        37.9060   26.4920  -20.4900 C.3    20  LEU20       0.1728
      7  C         38.5980   27.8110  -20.8770 C.2    20  LEU20       0.2616
      8  O         38.9220   28.6310  -20.0090 O.2    20  LEU20      -0.2715
      9  CB        36.4170   26.7120  -20.1090 C.3    20  LEU20       0.0311
     10  CG        35.4330   27.3300  -21.1160 C.3    20  LEU20       0.0022
     11  CD1       35.3590   26.5030  -22.4060 C.3    20  LEU20       0.0001
     12  CD2       34.0220   27.4920  -20.4990 C.3    20  LEU20       0.0001
     13  N         38.7990   28.0290  -22.1890 N.am   21  HIS21      -0.1959
     14  CA        39.4230   29.2430  -22.7350 C.3    21  HIS21       0.1787
     15  C         38.6470   29.7750  -23.9490 C.2    21  HIS21       0.2620
     16  O         38.3050   29.0000  -24.8500 O.2    21  HIS21      -0.2715
     17  CB        40.8800   28.9720  -23.1350 C.3    21  HIS21       0.0785
     18  CG        41.7220   30.2160  -23.2230 C.ar   21  HIS21       0.0821
     19  ND1       42.5870   30.6040  -22.2180 N.ar   21  HIS21      -0.2267
     20  CD2       41.8150   31.1680  -24.1910 C.ar   21  HIS21       0.1154
     21  CE1       43.1880   31.7300  -22.5730 C.ar   21  HIS21       0.1986
     22  NE2       42.7260   32.1010  -23.7570 N.ar   21  HIS21      -0.2212
     23  N         38.3930   31.1000  -23.9710 N.am   22  TYR22      -0.1960
     24  CA        37.7380   31.8120  -25.0700 C.3    22  TYR22       0.1771
     25  C         38.7470   32.6310  -25.8800 C.2    22  TYR22       0.2619
     26  O         39.6380   33.2730  -25.3260 O.2    22  TYR22      -0.2715
     27  CB        36.6630   32.7800  -24.5790 C.3    22  TYR22       0.0574
     28  CG        35.3160   32.2170  -24.1900 C.ar   22  TYR22      -0.0198
     29  CD1       35.1390   30.8500  -23.8540 C.ar   22  TYR22      -0.0009
     30  CD2       34.2110   33.0600  -24.1290 C.ar   22  TYR22      -0.0009
     31  CE1       33.8780   30.3610  -23.4560 C.ar   22  TYR22       0.0417
     32  CE2       32.9710   32.6010  -23.7450 C.ar   22  TYR22       0.0417
     33  CZ        32.8070   31.2450  -23.4100 C.ar   22  TYR22       0.1957
     34  OH        31.5520   30.8250  -23.0450 O.3    22  TYR22      -0.2866
     35  N         38.5990   32.6150  -27.1910 N.am   23  PHE23      -0.1974
     36  CA        39.4020   33.4430  -28.0890 C.3    23  PHE23       0.1639
     37  C         38.4570   34.3930  -28.8070 C.2    23  PHE23       0.2290
     38  O         37.5790   33.9450  -29.5610 O.2    23  PHE23      -0.2864
     39  CB        40.1810   32.5950  -29.1030 C.3    23  PHE23       0.0560
     40  CG        41.0570   31.5540  -28.4900 C.ar   23  PHE23      -0.0200
     41  CD1       40.5780   30.2580  -28.2640 C.ar   23  PHE23      -0.0042
     42  CD2       42.3690   31.8460  -28.1640 C.ar   23  PHE23      -0.0042
     43  CE1       41.4110   29.2620  -27.7020 C.ar   23  PHE23      -0.0003
     44  CE2       43.1920   30.8870  -27.6230 C.ar   23  PHE23      -0.0003
     45  CZ        42.7140   29.5810  -27.3840 C.ar   23  PHE23      -0.0000
     46  N         37.0760   36.8720  -23.6060 N.3    30  ASP30      -0.1225
     47  CA        38.3730   36.4100  -24.1060 C.3    30  ASP30       0.1805
     48  C         39.3200   35.7290  -23.1010 C.2    30  ASP30       0.2598
     49  O         40.1140   34.8690  -23.4700 O.2    30  ASP30      -0.2718
     50  CB        39.0830   37.5730  -24.8080 C.3    30  ASP30       0.1424
     51  CG        40.3800   37.1540  -25.4790 C.2    30  ASP30       0.3668
     52  OD1       40.4040   36.1710  -26.2710 O.co2  30  ASP30      -0.2456
     53  OD2       41.3880   37.8450  -25.2360 O.co2  30  ASP30      -0.2456
     54  N         39.2980   36.0340  -21.8490 N.am   31  GLY31      -0.1957
     55  CA        40.2860   35.2340  -21.1060 C.3    31  GLY31       0.1869
     56  C         40.0860   33.7410  -20.7920 C.2    31  GLY31       0.2309
     57  O         39.5490   32.9390  -21.5590 O.2    31  GLY31      -0.2863
     58  N         37.4730   26.5140  -26.3480 N.3   323  VAL323     -0.1231
     59  CA        38.1230   25.2080  -26.2290 C.3   323  VAL323      0.1692
     60  C         38.0060   24.7340  -24.7860 C.2   323  VAL323      0.2593
     61  O         38.3350   25.4930  -23.8620 O.2   323  VAL323     -0.2718
     62  CB        39.6060   25.2440  -26.6420 C.3   323  VAL323      0.0266
     63  CG1       40.2830   23.8660  -26.3520 C.3   323  VAL323      0.0020
     64  CG2       39.7340   25.5930  -28.1030 C.3   323  VAL323      0.0020
     65  N         37.5490   23.4890  -24.5930 N.am  324  GLY324     -0.1942
     66  CA        37.2780   22.9750  -23.2600 C.3   324  GLY324      0.2014
     67  C         37.7820   21.5560  -23.0600 C.2   324  GLY324      0.2638
     68  O         37.8110   20.7270  -23.9870 O.2   324  GLY324     -0.2714
     69  N         38.1520   21.2760  -21.8090 N.am  325  LEU325     -0.1977
     70  CA        38.5430   19.9550  -21.3390 C.3   325  LEU325      0.1596
     71  C         37.7630   19.7070  -20.0460 C.2   325  LEU325      0.2287
     72  O         37.8770   20.5010  -19.1000 O.2   325  LEU325     -0.2864
     73  CB        40.0640   19.8840  -21.1280 C.3   325  LEU325      0.0297
     74  CG        40.6310   18.5310  -20.7230 C.3   325  LEU325      0.0022
     75  CD1       40.2680   17.4950  -21.7870 C.3   325  LEU325      0.0001
     76  CD2       42.1410   18.5840  -20.5080 C.3   325  LEU325      0.0001
@<TRIPOS>BOND
     1    38    37    2
     2    39    40    1
     3    39    36    1
     4    37    36    1
     5    40    41   ar
     6    40    42   ar
     7    41    43   ar
     8    42    44   ar
     9    64    62    1
    10    36    35    1
    11    43    45   ar
    12    44    45   ar
    13    35    25   am
    14    62    63    1
    15    62    59    1
    16    58    59    1
    17    52    51   ar
    18    59    60    1
    19    25    26    2
    20    25    24    1
    21    51    53   ar
    22    51    50    1
    23    24    27    1
    24    24    23    1
    25    16    15    2
    26    50    47    1
    27    60    65   am
    28    60    61    2
    29    65    66    1
    30    27    28    1
    31    20    22   ar
    32    20    18   ar
    33    28    30   ar
    34    28    29   ar
    35    30    32   ar
    36    47    46    1
    37    47    48    1
    38    68    67    2
    39    23    15   am
    40    15    14    1
    41    29    31   ar
    42    22    21   ar
    43    32    33   ar
    44    49    48    2
    45    31    33   ar
    46    33    34    1
    47    66    67    1
    48    18    17    1
    49    18    19   ar
    50    17    14    1
    51    48    54   am
    52    67    69   am
    53    14    13    1
    54    21    19   ar
    55    11    10    1
    56    13     7   am
    57    54    55    1
    58    69    70    1
    59    75    74    1
    60    57    56    2
    61    70    73    1
    62    70    71    1
    63    73    74    1
    64    10    12    1
    65    10     9    1
    66    55    56    1
    67     7     6    1
    68     7     8    2
    69    74    76    1
    70     6     9    1
    71     6     5    1
    72     4     3    2
    73    71    72    2
    74     5     3   am
    75     3     2    1
    76     2     1    1
