@<TRIPOS>MOLECULE
tmp/6enkA00.pdb
 179 174 0 0 0
SMALL
GASTEIGER

@<TRIPOS>ATOM
      1  N         -4.4630   -6.5440  -28.0010 N.3    71  TRP71      -0.1241
      2  CA        -4.3970   -5.1660  -28.4680 C.3    71  TRP71       0.1605
      3  C         -3.9780   -5.1580  -29.9570 C.2    71  TRP71       0.2264
      4  O         -3.1930   -5.9930  -30.3990 O.2    71  TRP71      -0.2867
      5  CB        -3.4100   -4.3560  -27.6320 C.3    71  TRP71       0.0550
      6  CG        -3.2710   -2.9340  -28.0950 C.ar   71  TRP71       0.0003
      7  CD1       -3.9670   -1.8420  -27.6530 C.ar   71  TRP71       0.0946
      8  CD2       -2.3740   -2.4610  -29.0920 C.ar   71  TRP71       0.0152
      9  NE1       -3.5620   -0.7180  -28.3350 N.ar   71  TRP71      -0.2442
     10  CE2       -2.5860   -1.0680  -29.2210 C.ar   71  TRP71       0.0810
     11  CE3       -1.4350   -3.0860  -29.9230 C.ar   71  TRP71       0.0012
     12  CZ2       -1.8730   -0.2880  -30.1280 C.ar   71  TRP71       0.0191
     13  CZ3       -0.7260   -2.3100  -30.8170 C.ar   71  TRP71       0.0001
     14  CH2       -0.9550   -0.9230  -30.9160 C.ar   71  TRP71       0.0015
     15  N         -5.3060    7.6620  -26.3140 N.3    92  PHE92      -0.1227
     16  CA        -4.1690    7.9050  -25.4390 C.3    92  PHE92       0.1736
     17  C         -3.2660    9.0350  -25.8980 C.2    92  PHE92       0.2595
     18  O         -2.1810    9.1930  -25.3640 O.2    92  PHE92      -0.2718
     19  CB        -3.3590    6.6240  -25.2980 C.3    92  PHE92       0.0547
     20  CG        -3.9720    5.6330  -24.3610 C.ar   92  PHE92      -0.0202
     21  CD1       -4.9910    4.7880  -24.7990 C.ar   92  PHE92      -0.0042
     22  CD2       -3.5370    5.5430  -23.0300 C.ar   92  PHE92      -0.0042
     23  CE1       -5.5440    3.8450  -23.9330 C.ar   92  PHE92      -0.0003
     24  CE2       -4.0920    4.6060  -22.1680 C.ar   92  PHE92      -0.0003
     25  CZ        -5.0990    3.7550  -22.6250 C.ar   92  PHE92      -0.0000
     26  N         -3.7060    9.8600  -26.8360 N.am   93  ASP93      -0.1974
     27  CA        -2.8370   10.9550  -27.3010 C.3    93  ASP93       0.1709
     28  C         -3.6260   12.1750  -27.7510 C.2    93  ASP93       0.2293
     29  O         -4.8600   12.1430  -27.8560 O.2    93  ASP93      -0.2864
     30  CB        -1.8940   10.4680  -28.4100 C.3    93  ASP93       0.1436
     31  CG        -2.6210    9.9630  -29.6580 C.2    93  ASP93       0.3671
     32  OD1       -3.8300   10.2250  -29.8460 O.co2  93  ASP93      -0.2456
     33  OD2       -1.9470    9.3540  -30.5190 O.co2  93  ASP93      -0.2456
     34  N         -5.8420    9.2370  -31.7000 N.3    97  THR97      -0.1218
     35  CA        -5.6250    7.9010  -32.2630 C.3    97  THR97       0.1862
     36  C         -6.5680    6.9360  -31.5720 C.2    97  THR97       0.2287
     37  O         -6.6540    6.9280  -30.3430 O.2    97  THR97      -0.2866
     38  CB        -4.1850    7.4040  -32.0340 C.3    97  THR97       0.1770
     39  OG1       -3.2570    8.3340  -32.5980 O.3    97  THR97      -0.2211
     40  CG2       -3.9380    6.0030  -32.6560 C.3    97  THR97       0.0375
     41  N         -7.5980    3.7550  -29.9910 N.3    99  TRP99      -0.1241
     42  CA        -6.8140    2.7620  -29.2960 C.3    99  TRP99       0.1605
     43  C         -7.2130    1.3810  -29.7650 C.2    99  TRP99       0.2264
     44  O         -8.4110    1.0720  -29.8350 O.2    99  TRP99      -0.2867
     45  CB        -7.0530    2.8970  -27.8020 C.3    99  TRP99       0.0550
     46  CG        -6.3110    1.9790  -26.8990 C.ar   99  TRP99       0.0003
     47  CD1       -6.8600    1.0290  -26.0840 C.ar   99  TRP99       0.0946
     48  CD2       -4.9060    1.9660  -26.6440 C.ar   99  TRP99       0.0152
     49  NE1       -5.8770    0.4020  -25.3500 N.ar   99  TRP99      -0.2442
     50  CE2       -4.6670    0.9560  -25.6740 C.ar   99  TRP99       0.0810
     51  CE3       -3.8260    2.6790  -27.1540 C.ar   99  TRP99       0.0012
     52  CZ2       -3.4010    0.6870  -25.1910 C.ar   99  TRP99       0.0191
     53  CZ3       -2.5570    2.4070  -26.6790 C.ar   99  TRP99       0.0001
     54  CH2       -2.3530    1.4110  -25.7160 C.ar   99  TRP99       0.0015
     55  N          4.8760   -0.2470  -11.9200 N.3   177  GLY177     -0.1210
     56  CA         5.7270   -1.0530  -12.7870 C.3   177  GLY177      0.1956
     57  C          4.9600   -1.8540  -13.8320 C.2   177  GLY177      0.2612
     58  O          3.7580   -2.0120  -13.7440 O.2   177  GLY177     -0.2717
     59  N          5.6920   -2.3440  -14.8150 N.am  178  SER178     -0.1952
     60  CA         5.1830   -3.2460  -15.8560 C.3   178  SER178      0.1924
     61  C          6.3660   -4.0780  -16.3260 C.2   178  SER178      0.2314
     62  O          7.4410   -3.5210  -16.6160 O.2   178  SER178     -0.2863
     63  CB         4.5710   -2.4250  -17.0230 C.3   178  SER178      0.2116
     64  OG         4.0300   -3.2670  -18.0440 O.3   178  SER178     -0.2180
     65  N          9.4590   -1.5630  -16.9300 N.3   185  TYR185     -0.1241
     66  CA         9.0660   -0.1810  -17.1530 C.3   185  TYR185      0.1605
     67  C          8.5370    0.4660  -15.8910 C.2   185  TYR185      0.2264
     68  O          7.6720   -0.0980  -15.2370 O.2   185  TYR185     -0.2867
     69  CB         7.9820   -0.1270  -18.2040 C.3   185  TYR185      0.0534
     70  CG         8.3390   -0.8320  -19.4820 C.ar  185  TYR185     -0.0201
     71  CD1        9.1430   -0.2160  -20.4110 C.ar  185  TYR185     -0.0009
     72  CD2        7.8430   -2.1120  -19.7770 C.ar  185  TYR185     -0.0009
     73  CE1        9.4570   -0.8290  -21.6040 C.ar  185  TYR185      0.0417
     74  CE2        8.1550   -2.7320  -20.9740 C.ar  185  TYR185      0.0417
     75  CZ         8.9530   -2.0740  -21.8890 C.ar  185  TYR185      0.1957
     76  OH         9.2800   -2.6200  -23.0860 O.3   185  TYR185     -0.2866
     77  N          6.4520    3.6740  -14.5980 N.3   187  SER187     -0.1217
     78  CA         5.6070    4.7670  -15.0020 C.3   187  SER187      0.1889
     79  C          5.7500    5.9190  -14.0070 C.2   187  SER187      0.2288
     80  O          5.8440    5.6990  -12.7930 O.2   187  SER187     -0.2866
     81  CB         4.1460    4.3200  -15.1110 C.3   187  SER187      0.2089
     82  OG         3.9570    3.4420  -16.2100 O.3   187  SER187     -0.2183
     83  N         -1.1260    9.4260  -17.1390 N.3   192  SER192     -0.1217
     84  CA        -1.9980    8.2770  -16.8560 C.3   192  SER192      0.1889
     85  C         -3.2100    8.7200  -16.0410 C.2   192  SER192      0.2288
     86  O         -3.0570    9.3860  -15.0120 O.2   192  SER192     -0.2866
     87  CB        -1.2520    7.1870  -16.0850 C.3   192  SER192      0.2089
     88  OG        -0.2990    6.5240  -16.9040 O.3   192  SER192     -0.2183
     89  N          9.7350    8.0240  -24.3420 N.3   216  THR216     -0.1218
     90  CA         8.3180    7.7450  -24.5850 C.3   216  THR216      0.1862
     91  C          7.4750    9.0090  -24.5560 C.2   216  THR216      0.2287
     92  O          6.2440    8.9440  -24.3740 O.2   216  THR216     -0.2866
     93  CB         7.7630    6.7880  -23.5190 C.3   216  THR216      0.1770
     94  OG1        7.8070    7.4260  -22.2330 O.3   216  THR216     -0.2211
     95  CG2        8.5760    5.5200  -23.4880 C.3   216  THR216      0.0375
     96  N          5.7830    9.2750  -20.7420 N.3   219  TRP219     -0.1227
     97  CA         4.9740    8.2090  -20.1110 C.3   219  TRP219      0.1737
     98  C          5.7290    7.3710  -19.0690 C.2   219  TRP219      0.2595
     99  O          5.3080    7.3000  -17.9030 O.2   219  TRP219     -0.2718
    100  CB         4.3780    7.2750  -21.1750 C.3   219  TRP219      0.0564
    101  CG         3.1770    7.8420  -21.9160 C.ar  219  TRP219      0.0003
    102  CD1        3.1890    8.5180  -23.1150 C.ar  219  TRP219      0.0946
    103  CD2        1.8050    7.7680  -21.5130 C.ar  219  TRP219      0.0152
    104  NE1        1.9070    8.8810  -23.4720 N.ar  219  TRP219     -0.2442
    105  CE2        1.0390    8.4260  -22.5080 C.ar  219  TRP219      0.0810
    106  CE3        1.1410    7.2020  -20.4000 C.ar  219  TRP219      0.0012
    107  CZ2       -0.3590    8.5380  -22.4300 C.ar  219  TRP219      0.0191
    108  CZ3       -0.2530    7.3090  -20.3220 C.ar  219  TRP219      0.0001
    109  CH2       -0.9920    7.9640  -21.3450 C.ar  219  TRP219      0.0015
    110  N          6.8440    6.7600  -19.4840 N.am  220  PHE220     -0.1976
    111  CA         7.5620    5.8500  -18.6250 C.3   220  PHE220      0.1639
    112  C          9.0400    5.8070  -18.9370 C.2   220  PHE220      0.2290
    113  O          9.4890    6.2620  -19.9890 O.2   220  PHE220     -0.2864
    114  CB         6.9340    4.4330  -18.6730 C.3   220  PHE220      0.0560
    115  CG         6.8900    3.8140  -20.0550 C.ar  220  PHE220     -0.0200
    116  CD1        7.9860    3.1260  -20.5680 C.ar  220  PHE220     -0.0042
    117  CD2        5.7410    3.9060  -20.8370 C.ar  220  PHE220     -0.0042
    118  CE1        7.9500    2.5380  -21.8550 C.ar  220  PHE220     -0.0003
    119  CE2        5.6850    3.3210  -22.1130 C.ar  220  PHE220     -0.0003
    120  CZ         6.7930    2.6380  -22.6230 C.ar  220  PHE220     -0.0000
    121  N          1.3690   -3.6130  -13.6080 N.3   239  ASP239     -0.1239
    122  CA         0.5400   -3.7720  -14.7880 C.3   239  ASP239      0.1674
    123  C         -0.0420   -5.2080  -14.8940 C.2   239  ASP239      0.2266
    124  O          0.6870   -6.2030  -14.8640 O.2   239  ASP239     -0.2867
    125  CB         1.4040   -3.4320  -15.9970 C.3   239  ASP239      0.1410
    126  CG         0.6510   -3.2750  -17.2940 C.2   239  ASP239      0.3668
    127  OD1       -0.5660   -3.5380  -17.4380 O.co2 239  ASP239     -0.2456
    128  OD2        1.3470   -2.8230  -18.2310 O.co2 239  ASP239     -0.2456
    129  N         -2.1180   -6.2620  -17.5140 N.3   241  ARG241     -0.1245
    130  CA        -2.6250   -6.5110  -18.8590 C.3   241  ARG241      0.1563
    131  C         -1.9670   -7.7330  -19.5070 C.2   241  ARG241      0.2260
    132  O         -0.8430   -8.1110  -19.1760 O.2   241  ARG241     -0.2867
    133  CB        -2.4460   -5.2630  -19.7390 C.3   241  ARG241      0.0307
    134  CG        -3.3180   -4.0810  -19.2820 C.3   241  ARG241      0.0489
    135  CD        -3.0790   -2.8150  -20.0690 C.3   241  ARG241      0.2205
    136  NE        -1.6850   -2.4330  -19.9520 N.pl3 241  ARG241     -0.0865
    137  CZ        -0.9610   -1.7780  -20.8550 C.cat 241  ARG241      0.5346
    138  NH1       -1.4970   -1.3040  -21.9750 N.pl3 241  ARG241      0.1354
    139  NH2        0.3210   -1.5560  -20.5870 N.pl3 241  ARG241      0.1354
    140  N         -0.5390   -8.2220  -22.2460 N.3   243  SER243     -0.1202
    141  CA         0.7540   -8.0450  -22.9160 C.3   243  SER243      0.2020
    142  C          1.9760   -8.1520  -21.9730 C.2   243  SER243      0.2619
    143  O          3.1040   -8.0850  -22.4320 O.2   243  SER243     -0.2717
    144  CB         0.7580   -6.7040  -23.6410 C.3   243  SER243      0.2103
    145  OG         0.2880   -5.6620  -22.7980 O.3   243  SER243     -0.2182
    146  N          1.7600   -8.3460  -20.6730 N.am  244  THR244     -0.1952
    147  CA         2.7990   -8.0850  -19.6760 C.3   244  THR244      0.1897
    148  C          2.9530   -9.2870  -18.7670 C.2   244  THR244      0.2313
    149  O          2.0190  -10.0680  -18.5650 O.2   244  THR244     -0.2863
    150  CB         2.4620   -6.8260  -18.8250 C.3   244  THR244      0.1794
    151  OG1        1.4190   -7.1140  -17.8860 O.3   244  THR244     -0.2208
    152  CG2        2.0370   -5.6790  -19.7210 C.3   244  THR244      0.0378
    153  N         -1.7790   -3.0990  -10.6900 N.3   269  ARG269     -0.1245
    154  CA        -2.2380   -1.8450  -11.2580 C.3   269  ARG269      0.1563
    155  C         -2.9840   -2.1760  -12.5250 C.2   269  ARG269      0.2260
    156  O         -2.5150   -3.0290  -13.2950 O.2   269  ARG269     -0.2867
    157  CB        -1.0620   -0.9730  -11.6570 C.3   269  ARG269      0.0307
    158  CG        -1.5060    0.3350  -12.3040 C.3   269  ARG269      0.0489
    159  CD        -0.3480    1.1230  -12.8700 C.3   269  ARG269      0.2205
    160  NE        -0.9160    2.2060  -13.6610 N.pl3 269  ARG269     -0.0865
    161  CZ        -0.3130    2.8800  -14.6370 C.cat 269  ARG269      0.5346
    162  NH1        0.9280    2.5980  -15.0210 N.pl3 269  ARG269      0.1354
    163  NH2       -1.0030    3.8170  -15.2870 N.pl3 269  ARG269      0.1354
    164  N         -3.4040   -0.2610  -15.7250 N.3   271  PRO271     -0.2102
    165  CA        -3.1200    0.9690  -16.4980 C.3   271  PRO271      0.1504
    166  C         -4.1870    1.3800  -17.5180 C.2   271  PRO271      0.2575
    167  O         -4.1750    2.5200  -17.9830 O.2   271  PRO271     -0.2718
    168  CB        -1.7770    0.6660  -17.2010 C.3   271  PRO271      0.0282
    169  CG        -1.2210   -0.5160  -16.5140 C.3   271  PRO271      0.0208
    170  CD        -2.3940   -1.2950  -16.0020 C.3   271  PRO271      0.0893
    171  N         -5.0850    0.4550  -17.8620 N.am  272  GLU272     -0.1980
    172  CA        -6.2870    0.7380  -18.6580 C.3   272  GLU272      0.1602
    173  C         -7.5310    0.4180  -17.8140 C.2   272  GLU272      0.2287
    174  O         -8.1600   -0.6440  -17.9830 O.2   272  GLU272     -0.2864
    175  CB        -6.2990   -0.1160  -19.9110 C.3   272  GLU272      0.0415
    176  CG        -5.1490    0.1660  -20.8400 C.3   272  GLU272      0.1163
    177  CD        -5.2720   -0.5890  -22.1520 C.2   272  GLU272      0.3649
    178  OE1       -6.3610   -0.5750  -22.7390 O.co2 272  GLU272     -0.2457
    179  OE2       -4.2700   -1.1820  -22.6090 O.co2 272  GLU272     -0.2457
@<TRIPOS>BOND
     1    40    38    1
     2    39    38    1
     3    35    38    1
     4    35    34    1
     5    35    36    1
     6    36    37    2
     7    14    13   ar
     8    14    12   ar
     9    13    11   ar
    10    33    31   ar
    11     4     3    2
    12    12    10   ar
    13    41    42    1
    14     3     2    1
    15    11     8   ar
    16    32    31   ar
    17    44    43    2
    18    43    42    1
    19    31    30    1
    20    42    45    1
    21    10     8   ar
    22    10     9   ar
    23     8     6   ar
    24     2     1    1
    25     2     5    1
    26    30    27    1
    27     9     7   ar
    28     6     7   ar
    29     6     5    1
    30    29    28    2
    31    45    46    1
    32    28    27    1
    33    27    26    1
    34    51    53   ar
    35    51    48   ar
    36    46    48   ar
    37    46    47   ar
    38    26    17   am
    39    53    54   ar
    40    48    50   ar
    41    15    16    1
    42    47    49   ar
    43    17    16    1
    44    17    18    2
    45    54    52   ar
    46    50    49   ar
    47    50    52   ar
    48    16    19    1
    49    19    20    1
    50    21    20   ar
    51    21    23   ar
    52    90    91    1
    53    90    89    1
    54    90    93    1
    55    91    92    2
    56    20    22   ar
    57    23    25   ar
    58   144   141    1
    59   144   145    1
    60    93    95    1
    61    93    94    1
    62   104   102   ar
    63   104   105   ar
    64   102   101   ar
    65    76    75    1
    66    22    24   ar
    67   141   140    1
    68   141   142    1
    69   178   177   ar
    70    25    24   ar
    71   120   119   ar
    72   120   118   ar
    73   179   177   ar
    74   105   107   ar
    75   105   103   ar
    76   143   142    2
    77   107   109   ar
    78   177   176    1
    79   119   117   ar
    80   138   137    1
    81   142   146   am
    82   101   103   ar
    83   101   100    1
    84    75    73   ar
    85    75    74   ar
    86   118   116   ar
    87    73    71   ar
    88   103   106   ar
    89   109   108   ar
    90   100    97    1
    91    74    72   ar
    92   137   139    1
    93   137   136    2
    94   176   175    1
    95   117   115   ar
    96    96    97    1
    97   146   147    1
    98   116   115   ar
    99    71    70   ar
   100   106   108   ar
   101    97    98    1
   102   135   136    1
   103   135   134    1
   104   115   114    1
   105   113   112    2
   106   175   172    1
   107    72    70   ar
   108   133   134    1
   109   133   130    1
   110   152   150    1
   111   147   150    1
   112   147   148    1
   113   131   132    2
   114   131   130    1
   115   110    98   am
   116   110   111    1
   117    70    69    1
   118    98    99    2
   119   112   111    1
   120   130   129    1
   121   150   151    1
   122   148   149    2
   123   114   111    1
   124   172   171    1
   125   172   173    1
   126   128   126   ar
   127    69    66    1
   128    64    63    1
   129   174   173    2
   130   167   166    2
   131   171   166   am
   132   166   165    1
   133   127   126   ar
   134   126   125    1
   135   168   169    1
   136   168   165    1
   137    66    65    1
   138    66    67    1
   139    83    84    1
   140    63    60    1
   141    88    87    1
   142    84    87    1
   143    84    85    1
   144    62    61    2
   145   169   170    1
   146   165   164    1
   147    61    60    1
   148    82    81    1
   149    85    86    2
   150   170   164    1
   151   125   122    1
   152    67    68    2
   153    60    59    1
   154   163   161    1
   155    81    78    1
   156   162   161    1
   157    78    77    1
   158    78    79    1
   159   123   124    2
   160   123   122    1
   161    59    57   am
   162   122   121    1
   163   161   160    2
   164    79    80    2
   165    57    58    2
   166    57    56    1
   167   160   159    1
   168   156   155    2
   169   159   158    1
   170    56    55    1
   171   155   154    1
   172   158   157    1
   173   157   154    1
   174   154   153    1
