@<TRIPOS>MOLECULE
tmp/6enmB00.pdb
 165 164 0 0 0
SMALL
GASTEIGER

@<TRIPOS>ATOM
      1  N          0.0450  -24.1780    5.5840 N.3    68  GLY68      -0.1210
      2  CA        -0.0520  -25.5560    5.8300 C.3    68  GLY68       0.1956
      3  C          1.2680  -26.1830    6.2280 C.2    68  GLY68       0.2612
      4  O          1.9140  -25.7290    7.1600 O.2    68  GLY68      -0.2717
      5  N          1.5990  -27.2960    5.5800 N.am   69  ILE69      -0.1965
      6  CA         2.7760  -28.0070    5.9000 C.3    69  ILE69       0.1727
      7  C          4.0070  -27.1250    5.6420 C.2    69  ILE69       0.2616
      8  O          4.1550  -26.6090    4.5290 O.2    69  ILE69      -0.2715
      9  CB         2.8900  -29.3020    5.1790 C.3    69  ILE69       0.0290
     10  CG1        1.7940  -30.2510    5.6050 C.3    69  ILE69       0.0022
     11  CG2        4.2810  -29.9170    5.3770 C.3    69  ILE69       0.0023
     12  CD1        1.8870  -30.8290    6.9940 C.3    69  ILE69       0.0001
     13  N          4.9220  -27.0500    6.6360 N.am   70  LEU70      -0.1963
     14  CA         6.1140  -26.2680    6.5360 C.3    70  LEU70       0.1728
     15  C          7.3060  -27.0790    6.0690 C.2    70  LEU70       0.2616
     16  O          8.1570  -26.5680    5.3330 O.2    70  LEU70      -0.2715
     17  CB         6.4320  -25.6640    7.8890 C.3    70  LEU70       0.0311
     18  CG         5.3270  -24.8570    8.5240 C.3    70  LEU70       0.0022
     19  CD1        5.6900  -24.4340    9.9530 C.3    70  LEU70       0.0001
     20  CD2        5.0370  -23.6480    7.6490 C.3    70  LEU70       0.0001
     21  N          7.4020  -28.3670    6.5180 N.am   71  ALA71      -0.1963
     22  CA         8.5740  -29.1260    6.2630 C.3    71  ALA71       0.1728
     23  C          8.2530  -30.5350    6.7230 C.2    71  ALA71       0.2616
     24  O          7.3030  -30.7430    7.3880 O.2    71  ALA71      -0.2715
     25  CB         9.7550  -28.5920    7.0510 C.3    71  ALA71       0.0334
     26  N          9.0640  -31.4720    6.3280 N.am   72  HIS72      -0.1973
     27  CA         8.8980  -32.8610    6.7580 C.3    72  HIS72       0.1656
     28  C         10.2250  -33.5810    6.6430 C.2    72  HIS72       0.2291
     29  O         11.1230  -33.1130    5.9840 O.2    72  HIS72      -0.2864
     30  CB         7.7470  -33.6260    6.0690 C.3    72  HIS72       0.0771
     31  CG         7.9590  -33.8390    4.6150 C.ar   72  HIS72       0.0820
     32  ND1        6.9210  -33.7090    3.7210 N.ar   72  HIS72      -0.2267
     33  CD2        9.0810  -34.1210    3.8830 C.ar   72  HIS72       0.1154
     34  CE1        7.4000  -33.9670    2.5090 C.ar   72  HIS72       0.1986
     35  NE2        8.7030  -34.1640    2.5530 N.ar   72  HIS72      -0.2212
     36  N         14.5220  -22.9740   14.0010 N.3   103  LEU103     -0.1231
     37  CA        13.5830  -23.6670   14.9020 C.3   103  LEU103      0.1693
     38  C         12.9390  -24.8310   14.1540 C.2   103  LEU103      0.2592
     39  O         12.8300  -25.9700   14.7180 O.2   103  LEU103     -0.2718
     40  CB        12.4980  -22.7370   15.3720 C.3   103  LEU103      0.0284
     41  CG        13.0140  -21.6420   16.3390 C.3   103  LEU103      0.0019
     42  CD1       11.9910  -20.6090   16.5600 C.3   103  LEU103      0.0001
     43  CD2       13.4600  -22.3340   17.6010 C.3   103  LEU103      0.0001
     44  N         12.6090  -24.5980   12.9030 N.am  104  THR104     -0.1953
     45  CA        11.9840  -25.6520   12.1100 C.3   104  THR104      0.1897
     46  C         12.9820  -26.7760   11.8570 C.2   104  THR104      0.2313
     47  O         12.6290  -27.9470   11.8780 O.2   104  THR104     -0.2863
     48  CB        11.4450  -25.1490   10.7520 C.3   104  THR104      0.1794
     49  OG1       10.6530  -23.9920   10.9520 O.3   104  THR104     -0.2208
     50  CG2       10.6500  -26.1780   10.0610 C.3   104  THR104      0.0378
     51  N         13.2210  -29.1960   14.8260 N.3   107  HIS107     -0.1226
     52  CA        12.1220  -30.1580   14.7210 C.3   107  HIS107      0.1752
     53  C         12.3600  -31.2010   13.6900 C.2   107  HIS107      0.2595
     54  O         12.1820  -32.3720   13.9440 O.2   107  HIS107     -0.2718
     55  CB        10.8450  -29.3640   14.5180 C.3   107  HIS107      0.0759
     56  CG         9.6280  -30.2030   14.3680 C.ar  107  HIS107      0.0818
     57  ND1        8.8130  -30.4830   15.4210 N.ar  107  HIS107     -0.2268
     58  CD2        9.0830  -30.7870   13.2880 C.ar  107  HIS107      0.1154
     59  CE1        7.7880  -31.2410   15.0060 C.ar  107  HIS107      0.1986
     60  NE2        7.9640  -31.4950   13.7140 N.ar  107  HIS107     -0.2212
     61  N         12.7180  -30.7710   12.4890 N.am  108  GLU108     -0.1979
     62  CA        12.9100  -31.7320   11.3980 C.3   108  GLU108      0.1602
     63  C         14.0610  -32.6900   11.6480 C.2   108  GLU108      0.2287
     64  O         13.9220  -33.8960   11.4270 O.2   108  GLU108     -0.2864
     65  CB        13.0260  -31.0310   10.0410 C.3   108  GLU108      0.0415
     66  CG        11.8160  -30.2550    9.6790 C.3   108  GLU108      0.1163
     67  CD        10.5300  -31.0900    9.7060 C.2   108  GLU108      0.3649
     68  OE1       10.6320  -32.2850    9.3620 O.co2 108  GLU108     -0.2457
     69  OE2        9.4450  -30.5380   10.0630 O.co2 108  GLU108     -0.2457
     70  N         13.0040  -35.5420   13.7290 N.3   111  HIS111     -0.1241
     71  CA        12.4600  -36.5830   12.9150 C.3   111  HIS111      0.1621
     72  C         13.5680  -37.3390   12.1570 C.2   111  HIS111      0.2264
     73  O         13.5650  -38.5840   12.0510 O.2   111  HIS111     -0.2867
     74  CB        11.4940  -36.0320   11.8730 C.3   111  HIS111      0.0745
     75  CG        10.2100  -35.5120   12.4010 C.ar  111  HIS111      0.0817
     76  ND1        9.3970  -36.2560   13.2260 N.ar  111  HIS111     -0.2268
     77  CD2        9.5240  -34.3770   12.1250 C.ar  111  HIS111      0.1154
     78  CE1        8.3000  -35.5700   13.4540 C.ar  111  HIS111      0.1986
     79  NE2        8.3130  -34.4490   12.7420 N.ar  111  HIS111     -0.2212
     80  N          6.3140  -37.2180   16.9330 N.3   117  HIS117     -0.1241
     81  CA         5.8310  -36.1030   17.6360 C.3   117  HIS117      0.1621
     82  C          5.6060  -36.3100   19.1270 C.2   117  HIS117      0.2264
     83  O          5.3680  -37.4000   19.5770 O.2   117  HIS117     -0.2867
     84  CB         4.5670  -35.5850   17.0230 C.3   117  HIS117      0.0745
     85  CG         4.7890  -34.9790   15.6720 C.ar  117  HIS117      0.0817
     86  ND1        3.8510  -34.9700   14.6530 N.ar  117  HIS117     -0.2268
     87  CD2        5.8380  -34.2520   15.2130 C.ar  117  HIS117      0.1154
     88  CE1        4.3630  -34.3330   13.6010 C.ar  117  HIS117      0.1986
     89  NE2        5.5460  -33.8700   13.9380 N.ar  117  HIS117     -0.2212
     90  N          7.7770  -29.2600   24.1530 N.3   123  ALA123     -0.1231
     91  CA         8.7630  -29.9920   23.3770 C.3   123  ALA123      0.1694
     92  C          8.9060  -29.4510   21.9520 C.2   123  ALA123      0.2591
     93  O          7.9130  -29.0850   21.2710 O.2   123  ALA123     -0.2718
     94  CB         8.3650  -31.4630   23.3590 C.3   123  ALA123      0.0304
     95  N         10.1400  -29.4110   21.4550 N.am  124  VAL124     -0.1980
     96  CA        10.3340  -29.0280   20.0710 C.3   124  VAL124      0.1595
     97  C          9.6230  -29.9760   19.1190 C.2   124  VAL124      0.2287
     98  O          9.2640  -29.5950   18.0370 O.2   124  VAL124     -0.2864
     99  CB        11.8160  -28.8470   19.6920 C.3   124  VAL124      0.0276
    100  CG1       12.5310  -30.1850   19.4830 C.3   124  VAL124      0.0022
    101  CG2       11.9990  -27.9110   18.5310 C.3   124  VAL124      0.0022
    102  N          6.7340  -31.1320   19.4520 N.3   126  PHE126     -0.1228
    103  CA         5.2810  -30.8690   19.3620 C.3   126  PHE126      0.1721
    104  C          5.0180  -30.1730   18.0440 C.2   126  PHE126      0.2437
    105  O          5.6700  -29.1610   17.7200 O.2   126  PHE126     -0.2733
    106  CB         4.8640  -30.0510   20.5480 C.3   126  PHE126      0.0547
    107  CG         3.3800  -30.0150   20.7660 C.ar  126  PHE126     -0.0202
    108  CD1        2.6300  -29.0410   20.1380 C.ar  126  PHE126     -0.0042
    109  CD2        2.7700  -30.9160   21.5460 C.ar  126  PHE126     -0.0042
    110  CE1        1.2500  -28.9770   20.3180 C.ar  126  PHE126     -0.0003
    111  CE2        1.3860  -30.8530   21.7400 C.ar  126  PHE126     -0.0003
    112  CZ         0.6540  -29.9020   21.1310 C.ar  126  PHE126     -0.0000
    113  N          4.0430  -30.6160   17.2710 N.am  127  PRO127     -0.2718
    114  CA         3.8900  -30.1130   15.9360 C.3   127  PRO127      0.1535
    115  C          3.0620  -28.8360   15.7980 C.2   127  PRO127      0.2599
    116  O          2.1790  -28.7240   14.9640 O.2   127  PRO127     -0.2715
    117  CB         3.2990  -31.3450   15.2000 C.3   127  PRO127      0.0310
    118  CG         2.4610  -31.9550   16.2070 C.3   127  PRO127      0.0237
    119  CD         3.2100  -31.8090   17.4920 C.3   127  PRO127      0.0939
    120  N          3.4330  -27.8290   16.5700 N.am  128  THR128     -0.1937
    121  CA         2.9060  -26.4840   16.3700 C.3   128  THR128      0.2028
    122  C          4.0890  -25.5690   16.3160 C.2   128  THR128      0.2642
    123  O          4.7840  -25.4720   17.3030 O.2   128  THR128     -0.2714
    124  CB         1.9900  -26.0990   17.5070 C.3   128  THR128      0.1808
    125  OG1        0.8020  -26.8870   17.4340 O.3   128  THR128     -0.2208
    126  CG2        1.5250  -24.6390   17.3270 C.3   128  THR128      0.0379
    127  N          4.3100  -24.9240   15.1680 N.am  129  TYR129     -0.1959
    128  CA         5.3590  -23.9190   15.0990 C.3   129  TYR129      0.1771
    129  C          5.0510  -22.7080   15.9680 C.2   129  TYR129      0.2619
    130  O          3.9330  -22.1600   15.8770 O.2   129  TYR129     -0.2715
    131  CB         5.4920  -23.4620   13.6320 C.3   129  TYR129      0.0574
    132  CG         6.4560  -22.3150   13.4440 C.ar  129  TYR129     -0.0198
    133  CD1        7.7910  -22.5420   13.3720 C.ar  129  TYR129     -0.0009
    134  CD2        6.0180  -21.0350   13.3910 C.ar  129  TYR129     -0.0009
    135  CE1        8.6670  -21.5020   13.2690 C.ar  129  TYR129      0.0417
    136  CE2        6.8860  -19.9760   13.2630 C.ar  129  TYR129      0.0417
    137  CZ         8.2000  -20.2160   13.2760 C.ar  129  TYR129      0.1957
    138  OH         9.0800  -19.1510   13.1230 O.3   129  TYR129     -0.2866
    139  N          6.0330  -22.2510   16.7100 N.am  130  LYS130     -0.1977
    140  CA         5.8830  -21.0730   17.5590 C.3   130  LYS130      0.1596
    141  C          7.2450  -20.3730   17.6640 C.2   130  LYS130      0.2287
    142  O          8.2150  -20.9550   18.1560 O.2   130  LYS130     -0.2864
    143  CB         5.3700  -21.4830   18.9260 C.3   130  LYS130      0.0298
    144  CG         5.4720  -20.3870   19.9780 C.3   130  LYS130      0.0038
    145  CD         4.6480  -20.6740   21.2260 C.3   130  LYS130      0.0206
    146  CE         3.4030  -19.7850   21.3180 C.3   130  LYS130      0.1093
    147  NZ         3.7050  -18.3480   21.5740 N.3   130  LYS130     -0.1314
    148  N         10.2310  -18.4820   19.0260 N.3   132  VAL132     -0.1245
    149  CA        10.8290  -18.0530   20.3030 C.3   132  VAL132      0.1561
    150  C         12.1980  -17.5530   20.0060 C.2   132  VAL132      0.2260
    151  O         12.8540  -18.0300   19.0680 O.2   132  VAL132     -0.2867
    152  CB        10.9900  -19.1730   21.3470 C.3   132  VAL132      0.0252
    153  CG1        9.6150  -19.7100   21.7360 C.3   132  VAL132      0.0019
    154  CG2       11.8920  -20.2660   20.8130 C.3   132  VAL132      0.0019
    155  N         15.8100  -20.5630   23.0960 N.3   137  PHE137     -0.1241
    156  CA        15.2610  -21.8740   22.8230 C.3   137  PHE137      0.1605
    157  C         15.9590  -22.9970   23.5690 C.2   137  PHE137      0.2264
    158  O         17.1780  -23.0270   23.6640 O.2   137  PHE137     -0.2867
    159  CB        15.2980  -22.1760   21.3300 C.3   137  PHE137      0.0534
    160  CG        15.0660  -23.6170   21.0190 C.ar  137  PHE137     -0.0203
    161  CD1       13.7910  -24.0900   20.8040 C.ar  137  PHE137     -0.0042
    162  CD2       16.1210  -24.5050   20.9890 C.ar  137  PHE137     -0.0042
    163  CE1       13.5700  -25.4200   20.5440 C.ar  137  PHE137     -0.0003
    164  CE2       15.9060  -25.8370   20.7240 C.ar  137  PHE137     -0.0003
    165  CZ        14.6310  -26.2950   20.5040 C.ar  137  PHE137     -0.0000
@<TRIPOS>BOND
     1    34    35   ar
     2    34    32   ar
     3    35    33   ar
     4    32    31   ar
     5    33    31   ar
     6     8     7    2
     7    31    30    1
     8     9    11    1
     9     9    10    1
    10     9     6    1
    11    16    15    2
    12     5     6    1
    13     5     3   am
    14     1     2    1
    15    10    12    1
    16     7     6    1
    17     7    13   am
    18     2     3    1
    19    29    28    2
    20    30    27    1
    21    15    21   am
    22    15    14    1
    23     3     4    2
    24    22    21    1
    25    22    23    1
    26    22    25    1
    27    26    23   am
    28    26    27    1
    29    14    13    1
    30    14    17    1
    31    28    27    1
    32    23    24    2
    33    20    18    1
    34    17    18    1
    35    18    19    1
    36    68    67   ar
    37    66    67    1
    38    66    65    1
    39    67    69   ar
    40    65    62    1
    41    50    48    1
    42    48    49    1
    43    48    45    1
    44    62    63    1
    45    62    61    1
    46    64    63    2
    47    46    47    2
    48    46    45    1
    49    74    75    1
    50    74    71    1
    51    73    72    2
    52    45    44    1
    53    77    75   ar
    54    77    79   ar
    55    72    71    1
    56    75    76   ar
    57    61    53   am
    58    79    78   ar
    59    44    38   am
    60    71    70    1
    61   138   137    1
    62    76    78   ar
    63   136   137   ar
    64   136   134   ar
    65   135   137   ar
    66   135   133   ar
    67    58    60   ar
    68    58    56   ar
    69   133   132   ar
    70   134   132   ar
    71   132   131    1
    72    88    89   ar
    73    88    86   ar
    74   131   128    1
    75    53    54    2
    76    53    52    1
    77    60    59   ar
    78    89    87   ar
    79    36    37    1
    80    38    39    2
    81    38    37    1
    82    56    55    1
    83    56    57   ar
    84    55    52    1
    85    86    85   ar
    86    52    51    1
    87    37    40    1
    88   116   115    2
    89    59    57   ar
    90   128   127    1
    91   128   129    1
    92   127   122   am
    93   117   114    1
    94   117   118    1
    95    87    85   ar
    96    40    41    1
    97    85    84    1
    98   115   114    1
    99   115   120   am
   100   130   129    2
   101   114   113    1
   102   129   139   am
   103   118   119    1
   104   122   121    1
   105   122   123    2
   106    41    42    1
   107    41    43    1
   108   121   120    1
   109   121   124    1
   110   139   140    1
   111    80    81    1
   112    84    81    1
   113   113   119    1
   114   113   104   am
   115   126   124    1
   116   125   124    1
   117   140   141    1
   118   140   143    1
   119    81    82    1
   120   141   142    2
   121   105   104    2
   122    98    97    2
   123   104   103    1
   124   101    99    1
   125   143   144    1
   126   148   149    1
   127   151   150    2
   128    97    96    1
   129    82    83    2
   130   103   102    1
   131   103   106    1
   132   100    99    1
   133    99    96    1
   134   144   145    1
   135   150   149    1
   136    96    95    1
   137   108   110   ar
   138   108   107   ar
   139   149   152    1
   140   110   112   ar
   141   165   163   ar
   142   165   164   ar
   143   163   161   ar
   144   106   107    1
   145   164   162   ar
   146   107   109   ar
   147   161   160   ar
   148   154   152    1
   149   162   160   ar
   150   160   159    1
   151   112   111   ar
   152   145   146    1
   153    93    92    2
   154   146   147    1
   155   159   156    1
   156   152   153    1
   157    95    92   am
   158   109   111   ar
   159    92    91    1
   160   156   155    1
   161   156   157    1
   162    94    91    1
   163    91    90    1
   164   157   158    2
