@<TRIPOS>MOLECULE
tmp/6enqA00.pdb
 237 228 0 0 0
SMALL
GASTEIGER

@<TRIPOS>ATOM
      1  N         -4.1830   15.5910  -10.3760 N.3    25  LEU25      -0.1245
      2  CA        -4.8180   14.8320   -9.3120 C.3    25  LEU25       0.1561
      3  C         -5.0940   13.3810   -9.7250 C.2    25  LEU25       0.2260
      4  O         -6.0800   13.0940  -10.4110 O.2    25  LEU25      -0.2867
      5  CB        -6.1120   15.5160   -8.8790 C.3    25  LEU25       0.0270
      6  CG        -6.7330   14.8870   -7.6320 C.3    25  LEU25       0.0019
      7  CD1       -5.7720   15.0190   -6.4610 C.3    25  LEU25       0.0001
      8  CD2       -8.0510   15.5740   -7.3050 C.3    25  LEU25       0.0001
      9  N        -23.8350   28.5900  -10.7990 N.3    61  ARG61      -0.1231
     10  CA       -22.3830   28.7030  -10.6960 C.3    61  ARG61       0.1694
     11  C        -21.7190   27.3580  -10.4320 C.2    61  ARG61       0.2591
     12  O        -20.5740   27.1450  -10.8210 O.2    61  ARG61      -0.2718
     13  CB       -21.9160   29.6870   -9.6200 C.3    61  ARG61       0.0321
     14  CG       -20.3910   29.8330   -9.7060 C.3    61  ARG61       0.0489
     15  CD       -19.7330   30.7260   -8.6700 C.3    61  ARG61       0.2205
     16  NE       -18.2830   30.7410   -8.8860 N.pl3  61  ARG61      -0.0865
     17  CZ       -17.4110   31.4430   -8.1670 C.cat  61  ARG61       0.5346
     18  NH1      -16.1150   31.3830   -8.4520 N.pl3  61  ARG61       0.1354
     19  NH2      -17.8310   32.2040   -7.1640 N.pl3  61  ARG61       0.1354
     20  N        -22.4300   26.4490   -9.7760 N.am   62  ILE62      -0.1980
     21  CA       -21.9130   25.0980   -9.6140 C.3    62  ILE62       0.1595
     22  C        -21.7510   24.4570  -10.9870 C.2    62  ILE62       0.2287
     23  O        -20.7160   23.8580  -11.2820 O.2    62  ILE62      -0.2864
     24  CB       -22.8520   24.2230   -8.7620 C.3    62  ILE62       0.0276
     25  CG1      -22.9090   24.7580   -7.3350 C.3    62  ILE62       0.0022
     26  CG2      -22.3630   22.7900   -8.7530 C.3    62  ILE62       0.0022
     27  CD1      -23.7730   23.9290   -6.4230 C.3    62  ILE62       0.0001
     28  N        -18.9300   26.1810  -12.7620 N.3    65  GLY65      -0.1210
     29  CA       -17.6520   25.6890  -12.2660 C.3    65  GLY65       0.1956
     30  C        -17.2920   24.3410  -12.8800 C.2    65  GLY65       0.2612
     31  O        -16.1580   24.0900  -13.2650 O.2    65  GLY65      -0.2717
     32  N        -18.2730   23.4600  -12.9660 N.am   66  CYS66      -0.1956
     33  CA       -18.0620   22.1540  -13.5230 C.3    66  CYS66       0.1843
     34  C        -17.6180   22.2140  -14.9630 C.2    66  CYS66       0.2625
     35  O        -16.7420   21.4940  -15.4270 O.2    66  CYS66      -0.2714
     36  CB       -19.3560   21.3660  -13.3810 C.3    66  CYS66       0.0997
     37  SG       -19.5280   20.4480  -11.8490 S.3    66  CYS66      -0.0797
     38  N        -18.2530   23.0820  -15.7070 N.am   67  GLN67      -0.1963
     39  CA       -17.9340   23.1710  -17.1180 C.3    67  GLN67       0.1733
     40  C        -16.5680   23.8240  -17.3750 C.2    67  GLN67       0.2616
     41  O        -15.8910   23.4650  -18.3380 O.2    67  GLN67      -0.2715
     42  CB       -19.0580   23.9210  -17.8370 C.3    67  GLN67       0.0408
     43  CG       -20.4380   23.2030  -17.8120 C.3    67  GLN67       0.0908
     44  CD       -20.3750   21.7120  -18.1180 C.2    67  GLN67       0.2608
     45  OE1      -20.3860   20.8810  -17.2080 O.2    67  GLN67      -0.2717
     46  NE2      -20.3260   21.3680  -19.4010 N.am   67  GLN67      -0.0878
     47  N        -16.1550   24.7600  -16.5170 N.am   68  PHE68      -0.1960
     48  CA       -14.7890   25.2950  -16.5870 C.3    68  PHE68       0.1771
     49  C        -13.7720   24.1950  -16.3150 C.2    68  PHE68       0.2619
     50  O        -12.7530   24.1090  -16.9990 O.2    68  PHE68      -0.2715
     51  CB       -14.5660   26.4090  -15.5650 C.3    68  PHE68       0.0574
     52  CG       -13.1240   26.5740  -15.1570 C.ar   68  PHE68      -0.0200
     53  CD1      -12.6840   26.1310  -13.9140 C.ar   68  PHE68      -0.0042
     54  CD2      -12.1960   27.1290  -16.0310 C.ar   68  PHE68      -0.0042
     55  CE1      -11.3420   26.2260  -13.5570 C.ar   68  PHE68      -0.0003
     56  CE2      -10.8490   27.2270  -15.6800 C.ar   68  PHE68      -0.0003
     57  CZ       -10.4250   26.7750  -14.4400 C.ar   68  PHE68      -0.0000
     58  N        -14.0480   23.3570  -15.3180 N.am   69  ARG69      -0.1963
     59  CA       -13.1650   22.2390  -15.0020 C.3    69  ARG69       0.1729
     60  C        -13.0840   21.2630  -16.1750 C.2    69  ARG69       0.2616
     61  O        -12.0080   20.7530  -16.4890 O.2    69  ARG69      -0.2715
     62  CB       -13.6530   21.5120  -13.7430 C.3    69  ARG69       0.0348
     63  CG       -12.9290   20.1970  -13.4360 C.3    69  ARG69       0.0492
     64  CD       -11.4170   20.3700  -13.2510 C.3    69  ARG69       0.2205
     65  NE       -10.7340   19.0750  -13.2510 N.pl3  69  ARG69      -0.0865
     66  CZ        -9.5180   18.8650  -13.7470 C.cat  69  ARG69       0.5346
     67  NH1       -8.8310   19.8640  -14.2850 N.pl3  69  ARG69       0.1354
     68  NH2       -8.9930   17.6500  -13.7210 N.pl3  69  ARG69       0.1354
     69  N        -14.2220   21.0180  -16.8240 N.am   70  SER70      -0.1950
     70  CA       -14.2670   20.1760  -18.0200 C.3    70  SER70       0.1924
     71  C        -13.2620   20.6680  -19.0520 C.2    70  SER70       0.2314
     72  O        -12.4780   19.8900  -19.5940 O.2    70  SER70      -0.2863
     73  CB       -15.6630   20.2000  -18.6510 C.3    70  SER70       0.2116
     74  OG       -16.6030   19.4490  -17.9020 O.3    70  SER70      -0.2180
     75  N        -10.7600   22.5150  -18.5220 N.3    72  GLU72      -0.1245
     76  CA        -9.4580   22.2900  -17.9090 C.3    72  GLU72       0.1567
     77  C         -9.0020   20.8560  -18.2110 C.2    72  GLU72       0.2260
     78  O         -7.8550   20.6230  -18.6000 O.2    72  GLU72      -0.2867
     79  CB        -9.5810   22.5020  -16.3960 C.3    72  GLU72       0.0388
     80  CG        -8.2850   22.7450  -15.6330 C.3    72  GLU72       0.1160
     81  CD        -8.5520   23.0930  -14.1720 C.2    72  GLU72       0.3649
     82  OE1       -8.0250   22.3950  -13.2810 O.co2  72  GLU72      -0.2457
     83  OE2       -9.3000   24.0650  -13.9120 O.co2  72  GLU72      -0.2457
     84  N        -14.7770   13.2910  -23.3960 N.3   104  HIS104     -0.1241
     85  CA       -15.7920   13.2230  -22.3560 C.3   104  HIS104      0.1621
     86  C        -15.8620   11.8470  -21.7220 C.2   104  HIS104      0.2264
     87  O        -16.0080   11.7330  -20.5070 O.2   104  HIS104     -0.2867
     88  CB       -17.1660   13.6440  -22.8930 C.3   104  HIS104      0.0745
     89  CG       -17.3590   15.1300  -22.9330 C.ar  104  HIS104      0.0817
     90  ND1      -16.9900   15.9020  -24.0150 N.ar  104  HIS104     -0.2268
     91  CD2      -17.8530   15.9900  -22.0090 C.ar  104  HIS104      0.1154
     92  CE1      -17.2460   17.1720  -23.7560 C.ar  104  HIS104      0.1986
     93  NE2      -17.7710   17.2530  -22.5460 N.ar  104  HIS104     -0.2212
     94  N        -13.1280   11.9710  -19.4350 N.3   107  ILE107     -0.1231
     95  CA       -13.4810   12.8350  -18.3190 C.3   107  ILE107      0.1692
     96  C        -14.2480   12.0750  -17.2410 C.2   107  ILE107      0.2592
     97  O        -13.9240   12.1800  -16.0560 O.2   107  ILE107     -0.2718
     98  CB       -14.3440   14.0600  -18.7810 C.3   107  ILE107      0.0266
     99  CG1      -13.4420   15.1200  -19.4130 C.3   107  ILE107      0.0019
    100  CG2      -15.1130   14.6440  -17.5940 C.3   107  ILE107      0.0020
    101  CD1      -14.1700   16.3880  -19.8890 C.3   107  ILE107      0.0001
    102  N        -15.2630   11.3170  -17.6460 N.am  108  TYR108     -0.1976
    103  CA       -16.1190   10.6480  -16.6700 C.3   108  TYR108      0.1639
    104  C        -15.4070    9.4460  -16.0600 C.2   108  TYR108      0.2290
    105  O        -15.6230    9.1160  -14.8990 O.2   108  TYR108     -0.2864
    106  CB       -17.4550   10.2400  -17.3130 C.3   108  TYR108      0.0560
    107  CG       -18.2410   11.4410  -17.7910 C.ar  108  TYR108     -0.0198
    108  CD1      -18.3820   12.5600  -16.9760 C.ar  108  TYR108     -0.0009
    109  CD2      -18.7650   11.4990  -19.0820 C.ar  108  TYR108     -0.0009
    110  CE1      -19.0050   13.6990  -17.4310 C.ar  108  TYR108      0.0417
    111  CE2      -19.3910   12.6400  -19.5440 C.ar  108  TYR108      0.0417
    112  CZ       -19.5070   13.7370  -18.7150 C.ar  108  TYR108      0.1957
    113  OH       -20.1260   14.8860  -19.1660 O.3   108  TYR108     -0.2866
    114  N        -13.1400   11.1270  -13.5210 N.3   111  LEU111     -0.1245
    115  CA       -14.0340   11.6440  -12.4940 C.3   111  LEU111      0.1561
    116  C        -14.3770   10.5680  -11.4500 C.2   111  LEU111      0.2260
    117  O        -14.5270   10.8620  -10.2530 O.2   111  LEU111     -0.2867
    118  CB       -15.3250   12.1510  -13.1360 C.3   111  LEU111      0.0270
    119  CG       -16.2890   12.8450  -12.1760 C.3   111  LEU111      0.0019
    120  CD1      -15.6390   14.1340  -11.6750 C.3   111  LEU111      0.0001
    121  CD2      -17.6130   13.1270  -12.8730 C.3   111  LEU111      0.0001
    122  N        -12.3470   10.4860   -8.4440 N.3   114  LEU114     -0.1245
    123  CA       -12.5370   11.5180   -7.4250 C.3   114  LEU114      0.1561
    124  C        -13.8260   11.3230   -6.6400 C.2   114  LEU114      0.2260
    125  O        -14.1870   12.1720   -5.8300 O.2   114  LEU114     -0.2867
    126  CB       -12.5550   12.9100   -8.0550 C.3   114  LEU114      0.0270
    127  CG       -11.4410   13.2680   -9.0370 C.3   114  LEU114      0.0019
    128  CD1      -11.3160   14.7740   -9.1090 C.3   114  LEU114      0.0001
    129  CD2      -10.1390   12.6620   -8.6030 C.3   114  LEU114      0.0001
    130  N        -18.0350   14.0130   -4.3550 N.3   120  VAL120     -0.1231
    131  CA       -16.9380   14.1700   -5.2880 C.3   120  VAL120      0.1692
    132  C        -15.9740   15.2520   -4.8310 C.2   120  VAL120      0.2592
    133  O        -16.3810   16.3310   -4.3900 O.2   120  VAL120     -0.2718
    134  CB       -17.4600   14.5290   -6.7110 C.3   120  VAL120      0.0266
    135  CG1      -18.2970   15.8070   -6.6640 C.3   120  VAL120      0.0020
    136  CG2      -16.2920   14.7290   -7.6540 C.3   120  VAL120      0.0020
    137  N        -14.6870   14.9610   -4.9480 N.am  121  LEU121     -0.1966
    138  CA       -13.6480   15.9400   -4.6580 C.3   121  LEU121      0.1728
    139  C        -13.7400   17.1100   -5.6270 C.2   121  LEU121      0.2616
    140  O        -14.0440   16.9270   -6.8060 O.2   121  LEU121     -0.2715
    141  CB       -12.2670   15.2910   -4.7840 C.3   121  LEU121      0.0311
    142  CG       -11.8860   14.3400   -3.6410 C.3   121  LEU121      0.0022
    143  CD1      -10.5580   13.6730   -3.9340 C.3   121  LEU121      0.0001
    144  CD2      -11.7990   15.1300   -2.3340 C.3   121  LEU121      0.0001
    145  N        -13.4820   18.3110   -5.1280 N.am  122  ILE122     -0.1963
    146  CA       -13.4080   19.4670   -5.9980 C.3   122  ILE122      0.1727
    147  C        -12.1820   20.3300   -5.7490 C.2   122  ILE122      0.2617
    148  O        -11.4690   20.1530   -4.7620 O.2   122  ILE122     -0.2715
    149  CB       -14.6900   20.3540   -5.9110 C.3   122  ILE122      0.0290
    150  CG1      -14.8070   21.0170   -4.5450 C.3   122  ILE122      0.0022
    151  CG2      -15.9380   19.5170   -6.2410 C.3   122  ILE122      0.0023
    152  CD1      -15.8200   22.1520   -4.5600 C.3   122  ILE122      0.0001
    153  N        -11.9250   21.2500   -6.6700 N.am  123  SER123     -0.1936
    154  CA       -10.8400   22.2030   -6.5160 C.3   123  SER123      0.2055
    155  C         -9.5360   21.4920   -6.1910 C.2   123  SER123      0.2643
    156  O         -8.9190   21.7340   -5.1460 O.2   123  SER123     -0.2714
    157  CB       -11.1820   23.1970   -5.4130 C.3   123  SER123      0.2130
    158  OG       -10.1330   24.1270   -5.2440 O.3   123  SER123     -0.2179
    159  N         -9.1300   20.6130   -7.1010 N.am  124  GLU124     -0.1963
    160  CA        -7.9500   19.7710   -6.9310 C.3   124  GLU124      0.1733
    161  C         -7.8270   19.1230   -5.5590 C.2   124  GLU124      0.2616
    162  O         -6.7230   18.9930   -5.0270 O.2   124  GLU124     -0.2715
    163  CB        -6.6770   20.5620   -7.2260 C.3   124  GLU124      0.0429
    164  CG        -6.3000   20.5790   -8.6940 C.3   124  GLU124      0.1163
    165  CD        -4.7970   20.5620   -8.9160 C.2   124  GLU124      0.3649
    166  OE1       -4.0550   20.1960   -7.9780 O.co2 124  GLU124     -0.2457
    167  OE2       -4.3590   20.9150  -10.0350 O.co2 124  GLU124     -0.2457
    168  N         -8.9570   18.7170   -4.9910 N.am  125  GLY125     -0.1955
    169  CA        -8.9260   17.9290   -3.7740 C.3   125  GLY125      0.1869
    170  C         -9.0660   18.7130   -2.4790 C.2   125  GLY125      0.2309
    171  O         -9.1190   18.1140   -1.4090 O.2   125  GLY125     -0.2863
    172  N        -17.7570   17.9300   -2.3670 N.3   129  MET129     -0.1245
    173  CA       -19.1470   18.3260   -2.4820 C.3   129  MET129      0.1570
    174  C        -19.9980   17.0740   -2.5030 C.2   129  MET129      0.2261
    175  O        -19.7710   16.1760   -3.3110 O.2   129  MET129     -0.2867
    176  CB       -19.3590   19.1400   -3.7670 C.3   129  MET129      0.0387
    177  CG       -20.7690   19.6960   -3.9250 C.3   129  MET129      0.0595
    178  SD       -20.9270   20.7770   -5.3590 S.3   129  MET129     -0.1393
    179  CE       -19.5040   21.8320   -5.1410 C.3   129  MET129      0.0692
    180  N        -25.7460   18.0240   -4.4180 N.3   134  LEU134     -0.1245
    181  CA       -25.8570   18.1570   -5.8600 C.3   134  LEU134      0.1561
    182  C        -27.2550   17.7840   -6.3440 C.2   134  LEU134      0.2260
    183  O        -27.8230   18.4690   -7.1940 O.2   134  LEU134     -0.2867
    184  CB       -24.8090   17.2790   -6.5480 C.3   134  LEU134      0.0270
    185  CG       -23.3660   17.7610   -6.3840 C.3   134  LEU134      0.0019
    186  CD1      -22.4020   16.7380   -6.9730 C.3   134  LEU134      0.0001
    187  CD2      -23.2090   19.1230   -7.0640 C.3   134  LEU134      0.0001
    188  N        -27.8570   16.3190  -12.9640 N.3   144  PHE144     -0.1227
    189  CA       -26.8160   16.3320  -13.9760 C.3   144  PHE144      0.1736
    190  C        -25.5980   15.5290  -13.5190 C.2   144  PHE144      0.2595
    191  O        -24.8120   15.0700  -14.3440 O.2   144  PHE144     -0.2718
    192  CB       -26.4290   17.7800  -14.3390 C.3   144  PHE144      0.0547
    193  CG       -25.3740   18.3900  -13.4530 C.ar  144  PHE144     -0.0202
    194  CD1      -24.0640   18.5060  -13.8950 C.ar  144  PHE144     -0.0042
    195  CD2      -25.6960   18.8900  -12.2010 C.ar  144  PHE144     -0.0042
    196  CE1      -23.0960   19.1140  -13.1060 C.ar  144  PHE144     -0.0003
    197  CE2      -24.7350   19.4990  -11.4070 C.ar  144  PHE144     -0.0003
    198  CZ       -23.4350   19.6110  -11.8610 C.ar  144  PHE144     -0.0000
    199  N        -25.4570   15.3390  -12.2090 N.am  145  MET145     -0.1979
    200  CA       -24.3280   14.5820  -11.6720 C.3   145  MET145      0.1605
    201  C        -24.6500   13.1280  -11.3290 C.2   145  MET145      0.2287
    202  O        -23.7480   12.2990  -11.2280 O.2   145  MET145     -0.2864
    203  CB       -23.7560   15.2750  -10.4320 C.3   145  MET145      0.0413
    204  CG       -22.8600   16.4710  -10.7360 C.3   145  MET145      0.0598
    205  SD       -21.4560   16.1050  -11.8320 S.3   145  MET145     -0.1393
    206  CE       -20.7580   14.6750  -11.0440 C.3   145  MET145      0.0692
    207  N        -23.3240   10.2190  -13.2480 N.3   148  LYS148     -0.1245
    208  CA       -21.8770   10.1510  -13.0330 C.3   148  LYS148      0.1561
    209  C        -21.5580    9.3240  -11.7870 C.2   148  LYS148      0.2260
    210  O        -20.6840    8.4620  -11.8190 O.2   148  LYS148     -0.2867
    211  CB       -21.2860   11.5520  -12.8610 C.3   148  LYS148      0.0271
    212  CG       -21.8040   12.5720  -13.8510 C.3   148  LYS148      0.0035
    213  CD       -21.3950   12.2280  -15.2550 C.3   148  LYS148      0.0206
    214  CE       -22.2280   13.0090  -16.2500 C.3   148  LYS148      0.1093
    215  NZ       -22.5770   14.3590  -15.7500 N.3   148  LYS148     -0.1314
    216  N        -25.6930   13.1910  -21.0880 N.3   230  HIS230     -0.1241
    217  CA       -25.2490   14.5200  -20.6690 C.3   230  HIS230      0.1621
    218  C        -25.5070   15.5250  -21.7850 C.2   230  HIS230      0.2264
    219  O        -25.9700   16.6370  -21.5380 O.2   230  HIS230     -0.2867
    220  CB       -23.7500   14.5090  -20.3100 C.3   230  HIS230      0.0745
    221  CG       -23.1860   15.8650  -19.9920 C.ar  230  HIS230      0.0817
    222  ND1      -23.2400   16.4200  -18.7300 N.ar  230  HIS230     -0.2268
    223  CD2      -22.5810   16.7880  -20.7790 C.ar  230  HIS230      0.1154
    224  CE1      -22.6960   17.6250  -18.7540 C.ar  230  HIS230      0.1986
    225  NE2      -22.2890   17.8720  -19.9860 N.ar  230  HIS230     -0.2212
    226  N        -19.4680   19.1750  -28.6520 N.3   254  TYR254     -0.1241
    227  CA       -20.8540   18.7200  -28.5730 C.3   254  TYR254      0.1605
    228  C        -21.5600   18.6900  -29.9250 C.2   254  TYR254      0.2264
    229  O        -22.5080   17.9300  -30.1090 O.2   254  TYR254     -0.2867
    230  CB       -21.6650   19.6070  -27.6190 C.3   254  TYR254      0.0534
    231  CG       -21.3070   19.4600  -26.1550 C.ar  254  TYR254     -0.0201
    232  CD1      -20.7050   18.3010  -25.6770 C.ar  254  TYR254     -0.0009
    233  CD2      -21.5700   20.4810  -25.2520 C.ar  254  TYR254     -0.0009
    234  CE1      -20.3730   18.1670  -24.3400 C.ar  254  TYR254      0.0417
    235  CE2      -21.2430   20.3550  -23.9130 C.ar  254  TYR254      0.0417
    236  CZ       -20.6430   19.1970  -23.4610 C.ar  254  TYR254      0.1957
    237  OH       -20.3030   19.0790  -22.1300 O.3   254  TYR254     -0.2866
@<TRIPOS>BOND
     1   229   228    2
     2   228   227    1
     3   226   227    1
     4   227   230    1
     5   230   231    1
     6   231   232   ar
     7   231   233   ar
     8   232   234   ar
     9   233   235   ar
    10   234   236   ar
    11    90    92   ar
    12    90    89   ar
    13   235   236   ar
    14    92    93   ar
    15   236   237    1
    16    84    85    1
    17    89    88    1
    18    89    91   ar
    19    88    85    1
    20    93    91   ar
    21    85    86    1
    22   218   219    2
    23   218   217    1
    24    86    87    2
    25   216   217    1
    26   223   221   ar
    27   223   225   ar
    28   217   220    1
    29   220   221    1
    30   221   222   ar
    31   225   224   ar
    32   101    99    1
    33    72    71    2
    34   111   109   ar
    35   111   112   ar
    36    94    95    1
    37    99    98    1
    38    46    44   am
    39   113   112    1
    40   109   107   ar
    41    71    70    1
    42    98    95    1
    43    98   100    1
    44   224   222   ar
    45   112   110   ar
    46    73    70    1
    47    73    74    1
    48    78    77    2
    49    75    76    1
    50    41    40    2
    51    95    96    1
    52    77    76    1
    53    44    43    1
    54    44    45    2
    55    70    69    1
    56    76    79    1
    57    42    43    1
    58    42    39    1
    59   107   106    1
    60   107   108   ar
    61   102    96   am
    62   102   103    1
    63   110   108   ar
    64    40    39    1
    65    40    47   am
    66   106   103    1
    67    96    97    2
    68    39    38    1
    69    50    49    2
    70    69    60   am
    71   103   104    1
    72    48    47    1
    73    48    49    1
    74    48    51    1
    75    61    60    2
    76    79    80    1
    77    49    58   am
    78   214   215    1
    79   214   213    1
    80    60    59    1
    81   104   105    2
    82    54    56   ar
    83    54    52   ar
    84    38    34   am
    85    56    57   ar
    86    80    81    1
    87    51    52    1
    88    35    34    2
    89    58    59    1
    90   213   212    1
    91    52    53   ar
    92    59    62    1
    93    34    33    1
    94    57    55   ar
    95   191   190    2
    96   192   189    1
    97   192   193    1
    98    67    66    1
    99    81    83   ar
   100    81    82   ar
   101   189   190    1
   102   189   188    1
   103    53    55   ar
   104   194   193   ar
   105   194   196   ar
   106   212   211    1
   107    66    68    1
   108    66    65    2
   109    62    63    1
   110    33    36    1
   111    33    32    1
   112   114   115    1
   113   190   199   am
   114   193   195   ar
   115    63    64    1
   116    36    37    1
   117    31    30    2
   118    65    64    1
   119   207   208    1
   120   118   115    1
   121   118   119    1
   122   196   198   ar
   123   208   211    1
   124   208   209    1
   125    32    30   am
   126    30    29    1
   127   121   119    1
   128    28    29    1
   129   115   116    1
   130   199   200    1
   131   195   197   ar
   132   119   120    1
   133   198   197   ar
   134   205   206    1
   135   205   204    1
   136   210   209    2
   137   200   201    1
   138   200   203    1
   139   116   117    2
   140   201   202    2
   141    23    22    2
   142    22    21    1
   143    12    11    2
   144     9    10    1
   145   204   203    1
   146    10    11    1
   147    10    13    1
   148    11    20   am
   149     4     3    2
   150     1     2    1
   151   167   165   ar
   152    20    21    1
   153     3     2    1
   154    14    13    1
   155    14    15    1
   156    21    24    1
   157     2     5    1
   158   128   127    1
   159   127   129    1
   160   127   126    1
   161   165   164    1
   162   165   166   ar
   163    16    15    1
   164    16    17    2
   165     5     6    1
   166    24    26    1
   167    24    25    1
   168   164   163    1
   169    18    17    1
   170   122   123    1
   171    17    19    1
   172   126   123    1
   173   136   134    1
   174     6     8    1
   175     6     7    1
   176   123   124    1
   177    25    27    1
   178   163   160    1
   179   183   182    2
   180   159   160    1
   181   159   155   am
   182   187   185    1
   183   186   185    1
   184   160   161    1
   185   140   139    2
   186   134   135    1
   187   134   131    1
   188   153   154    1
   189   153   147   am
   190   124   125    2
   191   184   185    1
   192   184   181    1
   193   154   155    1
   194   154   157    1
   195   182   181    1
   196   151   149    1
   197   155   156    2
   198   146   149    1
   199   146   147    1
   200   146   145    1
   201   149   150    1
   202   181   180    1
   203   147   148    2
   204   139   145   am
   205   139   138    1
   206   161   162    2
   207   161   168   am
   208   157   158    1
   209   178   179    1
   210   178   177    1
   211   131   132    1
   212   131   130    1
   213   168   169    1
   214   137   132   am
   215   137   138    1
   216   132   133    2
   217   141   138    1
   218   141   142    1
   219   152   150    1
   220   143   142    1
   221   177   176    1
   222   169   170    1
   223   176   173    1
   224   142   144    1
   225   175   174    2
   226   174   173    1
   227   173   172    1
   228   170   171    2
