@<TRIPOS>MOLECULE
tmp/6enyE01.pdb
 87 85 0 0 0
SMALL
GASTEIGER

@<TRIPOS>ATOM
      1  N        123.2830   72.7740  121.0780 N.3    88  CYS88      -0.1221
      2  CA       122.9520   73.0640  122.4670 C.3    88  CYS88       0.1808
      3  C        123.5500   72.0140  123.3950 C.2    88  CYS88       0.2602
      4  O        122.8930   71.0220  123.7260 O.2    88  CYS88      -0.2717
      5  CB       121.4350   73.1380  122.6530 C.3    88  CYS88       0.0970
      6  SG       120.8610   73.4540  124.3110 S.3    88  CYS88      -0.0800
      7  N        124.7940   72.2240  123.8180 N.am   89  GLY89      -0.1942
      8  CA       125.4550   71.2840  124.7040 C.3    89  GLY89       0.2014
      9  C        126.6620   71.9180  125.3580 C.2    89  GLY89       0.2639
     10  O        127.1490   72.9700  124.9370 O.2    89  GLY89      -0.2714
     11  N        127.1420   71.2530  126.4060 N.am   90  GLY90      -0.1954
     12  CA       128.2950   71.7330  127.1410 C.3    90  GLY90       0.1869
     13  C        129.5240   70.8680  126.9550 C.2    90  GLY90       0.2309
     14  O        129.4150   69.6850  126.6220 O.2    90  GLY90      -0.2863
     15  N        132.5540   71.4350  129.2560 N.3    92  TYR92      -0.1241
     16  CA       133.4470   71.8370  130.3320 C.3    92  TYR92       0.1605
     17  C        133.6950   70.6720  131.2840 C.2    92  TYR92       0.2264
     18  O        133.0270   69.6360  131.2360 O.2    92  TYR92      -0.2867
     19  CB       132.8670   73.0350  131.0910 C.3    92  TYR92       0.0534
     20  CG       131.4770   72.8440  131.6420 C.ar   92  TYR92      -0.0201
     21  CD1      131.2870   72.2620  132.8970 C.ar   92  TYR92      -0.0009
     22  CD2      130.3490   73.2560  130.9390 C.ar   92  TYR92      -0.0009
     23  CE1      130.0190   72.0790  133.4210 C.ar   92  TYR92       0.0417
     24  CE2      129.0770   73.0850  131.4520 C.ar   92  TYR92       0.0417
     25  CZ       128.9250   72.5000  132.6930 C.ar   92  TYR92       0.1957
     26  OH       127.6620   72.3070  133.2110 O.3    92  TYR92      -0.2866
     27  N        130.8580   76.1200  126.5080 N.3   118  ASP118     -0.1225
     28  CA       129.4460   75.9380  126.8300 C.3   118  ASP118      0.1805
     29  C        128.6120   76.5840  125.7360 C.2   118  ASP118      0.2598
     30  O        128.7900   77.7700  125.4390 O.2   118  ASP118     -0.2718
     31  CB       129.1090   76.5430  128.1950 C.3   118  ASP118      0.1424
     32  CG       127.6880   76.2240  128.6370 C.2   118  ASP118      0.3668
     33  OD1      127.0310   75.2460  128.1300 O.co2 118  ASP118     -0.2456
     34  OD2      127.2370   76.8540  129.6040 O.co2 118  ASP118     -0.2456
     35  N        127.7080   75.8090  125.1420 N.am  119  ILE119     -0.1966
     36  CA       126.8370   76.2880  124.0790 C.3   119  ILE119      0.1727
     37  C        125.4170   75.8180  124.3560 C.2   119  ILE119      0.2616
     38  O        125.1940   74.8200  125.0480 O.2   119  ILE119     -0.2715
     39  CB       127.3060   75.8090  122.6870 C.3   119  ILE119      0.0290
     40  CG1      128.7430   76.2410  122.4280 C.3   119  ILE119      0.0022
     41  CG2      126.3630   76.3370  121.6100 C.3   119  ILE119      0.0023
     42  CD1      129.2560   75.5480  121.1590 C.3   119  ILE119      0.0001
     43  N        124.4490   76.5510  123.8060 N.am  120  CYS120     -0.1968
     44  CA       123.0410   76.2180  123.9860 C.3   120  CYS120      0.1712
     45  C        122.1610   77.1150  123.1250 C.2   120  CYS120      0.2296
     46  O        121.1600   77.6590  123.6040 O.2   120  CYS120     -0.2864
     47  CB       122.6460   76.3400  125.4600 C.3   120  CYS120      0.0983
     48  SG       120.9400   75.9970  125.8470 S.3   120  CYS120     -0.0798
     49  N        123.8510   81.3400  123.4950 N.3   124  THR124     -0.1218
     50  CA       124.5920   80.6060  124.5170 C.3   124  THR124      0.1862
     51  C        125.8220   79.9870  123.8660 C.2   124  THR124      0.2287
     52  O        125.7020   79.0560  123.0620 O.2   124  THR124     -0.2866
     53  CB       123.7200   79.5340  125.1690 C.3   124  THR124      0.1770
     54  OG1      122.5090   80.1120  125.5990 O.3   124  THR124     -0.2211
     55  CG2      124.4100   78.8430  126.3000 C.3   124  THR124      0.0375
     56  N        132.7950   78.8440  130.2870 N.3   128  HIS128     -0.1241
     57  CA       132.5030   78.8900  131.7130 C.3   128  HIS128      0.1621
     58  C        133.7820   78.7330  132.5260 C.2   128  HIS128      0.2264
     59  O        134.6420   77.9050  132.2130 O.2   128  HIS128     -0.2867
     60  CB       131.5050   77.7950  132.0860 C.3   128  HIS128      0.0745
     61  CG       130.0550   78.0900  131.8680 C.ar  128  HIS128      0.0817
     62  ND1      129.0670   77.7470  132.7650 N.ar  128  HIS128     -0.2268
     63  CD2      129.3900   78.6730  130.8430 C.ar  128  HIS128      0.1154
     64  CE1      127.8820   78.1310  132.3050 C.ar  128  HIS128      0.1986
     65  NE2      128.0560   78.7020  131.1350 N.ar  128  HIS128     -0.2212
     66  N        127.3070   66.9800  131.9470 N.3   297  LEU297     -0.1231
     67  CA       126.6650   68.0390  131.1820 C.3   297  LEU297      0.1693
     68  C        125.4140   67.4730  130.5220 C.2   297  LEU297      0.2592
     69  O        125.1230   66.2770  130.6150 O.2   297  LEU297     -0.2718
     70  CB       127.6260   68.6320  130.1470 C.3   297  LEU297      0.0284
     71  CG       128.8670   69.4230  130.6230 C.3   297  LEU297      0.0019
     72  CD1      130.0730   68.5040  130.7540 C.3   297  LEU297      0.0001
     73  CD2      129.1940   70.5620  129.6390 C.3   297  LEU297      0.0001
     74  N        124.6690   68.3490  129.8500 N.am  298  TRP298     -0.1976
     75  CA       123.4380   67.9760  129.1600 C.3   298  TRP298      0.1640
     76  C        123.5560   68.4030  127.7040 C.2   298  TRP298      0.2290
     77  O        123.5670   69.6010  127.4040 O.2   298  TRP298     -0.2864
     78  CB       122.2180   68.6180  129.8210 C.3   298  TRP298      0.0576
     79  CG       120.8850   68.2980  129.1370 C.ar  298  TRP298      0.0006
     80  CD1      120.2890   67.0630  129.2640 C.ar  298  TRP298      0.0946
     81  CD2      120.1610   69.1500  128.3240 C.ar  298  TRP298      0.0152
     82  NE1      119.1900   67.1210  128.5240 N.ar  298  TRP298     -0.2442
     83  CE2      119.0530   68.3260  127.9390 C.ar  298  TRP298      0.0810
     84  CE3      120.2590   70.4640  127.8570 C.ar  298  TRP298      0.0012
     85  CZ2      118.0370   68.8100  127.0960 C.ar  298  TRP298      0.0191
     86  CZ3      119.2540   70.9310  127.0180 C.ar  298  TRP298      0.0001
     87  CH2      118.1650   70.1270  126.6490 C.ar  298  TRP298      0.0015
@<TRIPOS>BOND
     1     1     2    1
     2    42    40    1
     3    41    39    1
     4    40    39    1
     5     2     5    1
     6     2     3    1
     7     5     6    1
     8    39    36    1
     9    52    51    2
    10    45    46    2
    11    45    44    1
    12     3     4    2
    13     3     7   am
    14    49    50    1
    15    43    44    1
    16    43    37   am
    17     7     8    1
    18    51    50    1
    19    44    47    1
    20    36    37    1
    21    36    35    1
    22    37    38    2
    23    50    53    1
    24     8     9    1
    25    10     9    2
    26    35    29   am
    27    53    54    1
    28    53    55    1
    29     9    11   am
    30    30    29    2
    31    47    48    1
    32    29    28    1
    33    11    12    1
    34    27    28    1
    35    14    13    2
    36    87    86   ar
    37    87    85   ar
    38    28    31    1
    39    13    12    1
    40    86    84   ar
    41    85    83   ar
    42    77    76    2
    43    76    75    1
    44    84    81   ar
    45    83    81   ar
    46    83    82   ar
    47    33    32   ar
    48    31    32    1
    49    81    79   ar
    50    82    80   ar
    51    32    34   ar
    52    79    80   ar
    53    79    78    1
    54    75    78    1
    55    75    74    1
    56    15    16    1
    57    73    71    1
    58    74    68   am
    59    70    71    1
    60    70    67    1
    61    56    57    1
    62    16    19    1
    63    16    17    1
    64    68    69    2
    65    68    67    1
    66    71    72    1
    67    63    65   ar
    68    63    61   ar
    69    22    24   ar
    70    22    20   ar
    71    19    20    1
    72    65    64   ar
    73    67    66    1
    74    18    17    2
    75    24    25   ar
    76    20    21   ar
    77    57    60    1
    78    57    58    1
    79    61    60    1
    80    61    62   ar
    81    59    58    2
    82    64    62   ar
    83    25    26    1
    84    25    23   ar
    85    21    23   ar
