@<TRIPOS>MOLECULE
tmp/6enyE03.pdb
 106 99 0 0 0
SMALL
GASTEIGER

@<TRIPOS>ATOM
      1  N        122.2630   63.5040  129.5760 N.3    57  PHE57      -0.1241
      2  CA       123.2420   64.1250  130.4580 C.3    57  PHE57       0.1605
      3  C        124.2760   63.0870  130.8640 C.2    57  PHE57       0.2264
      4  O        123.9210   62.0140  131.3610 O.2    57  PHE57      -0.2867
      5  CB       122.5710   64.7210  131.7000 C.3    57  PHE57       0.0534
      6  CG       123.4610   65.2220  132.8090 C.ar   57  PHE57      -0.0203
      7  CD1      124.1900   64.4050  133.6330 C.ar   57  PHE57      -0.0042
      8  CD2      123.3950   66.5970  133.1620 C.ar   57  PHE57      -0.0042
      9  CE1      124.8650   64.8670  134.7290 C.ar   57  PHE57      -0.0003
     10  CE2      124.0790   67.0630  134.2570 C.ar   57  PHE57      -0.0003
     11  CZ       124.7900   66.2040  135.0620 C.ar   57  PHE57      -0.0000
     12  N        132.5540   71.4350  129.2560 N.3    92  TYR92      -0.1241
     13  CA       133.4470   71.8370  130.3320 C.3    92  TYR92       0.1605
     14  C        133.6950   70.6720  131.2840 C.2    92  TYR92       0.2264
     15  O        133.0270   69.6360  131.2360 O.2    92  TYR92      -0.2867
     16  CB       132.8670   73.0350  131.0910 C.3    92  TYR92       0.0534
     17  CG       131.4770   72.8440  131.6420 C.ar   92  TYR92      -0.0201
     18  CD1      131.2870   72.2620  132.8970 C.ar   92  TYR92      -0.0009
     19  CD2      130.3490   73.2560  130.9390 C.ar   92  TYR92      -0.0009
     20  CE1      130.0190   72.0790  133.4210 C.ar   92  TYR92       0.0417
     21  CE2      129.0770   73.0850  131.4520 C.ar   92  TYR92       0.0417
     22  CZ       128.9250   72.5000  132.6930 C.ar   92  TYR92       0.1957
     23  OH       127.6620   72.3070  133.2110 O.3    92  TYR92      -0.2866
     24  N        134.7640   69.5300  135.5160 N.3    94  LYS94      -0.1245
     25  CA       134.5810   69.8970  136.9120 C.3    94  LYS94       0.1561
     26  C        135.7150   69.3210  137.7470 C.2    94  LYS94       0.2260
     27  O        136.1290   68.1750  137.5430 O.2    94  LYS94      -0.2867
     28  CB       133.2320   69.4000  137.4450 C.3    94  LYS94       0.0271
     29  CG       132.0300   69.9460  136.6970 C.3    94  LYS94       0.0035
     30  CD       130.7810   69.4320  137.3450 C.3    94  LYS94       0.0206
     31  CE       129.5440   69.6310  136.5770 C.3    94  LYS94       0.1093
     32  NZ       128.3720   69.4180  137.4210 N.3    94  LYS94      -0.1314
     33  N        125.0970   66.8870  138.6890 N.3   107  GLY107     -0.1210
     34  CA       125.3120   68.2950  138.4040 C.3   107  GLY107      0.1956
     35  C        125.3030   69.1670  139.6430 C.2   107  GLY107      0.2611
     36  O        125.8910   70.2530  139.6440 O.2   107  GLY107     -0.2717
     37  N        124.6440   68.7150  140.7060 N.am  108  ASP108     -0.1973
     38  CA       124.5620   69.4620  141.9540 C.3   108  ASP108      0.1709
     39  C        125.6630   69.0890  142.9390 C.2   108  ASP108      0.2293
     40  O        125.6480   69.5700  144.0770 O.2   108  ASP108     -0.2864
     41  CB       123.1920   69.2510  142.6040 C.3   108  ASP108      0.1436
     42  CG       122.1070   70.1420  142.1100 C.2   108  ASP108      0.3671
     43  OD1      122.3430   71.0340  141.3230 O.co2 108  ASP108     -0.2456
     44  OD2      120.9380   69.9220  142.6290 O.co2 108  ASP108     -0.2456
     45  N        131.6720   71.1030  143.7840 N.3   111  TYR111     -0.1241
     46  CA       132.8770   71.1680  142.9730 C.3   111  TYR111      0.1605
     47  C        133.7220   72.3630  143.3950 C.2   111  TYR111      0.2264
     48  O        133.2520   73.2760  144.0790 O.2   111  TYR111     -0.2867
     49  CB       132.5380   71.2660  141.4800 C.3   111  TYR111      0.0534
     50  CG       131.6290   72.4050  141.0930 C.ar  111  TYR111     -0.0201
     51  CD1      132.1570   73.6660  140.8120 C.ar  111  TYR111     -0.0009
     52  CD2      130.2530   72.2370  140.9830 C.ar  111  TYR111     -0.0009
     53  CE1      131.3390   74.7240  140.4530 C.ar  111  TYR111      0.0417
     54  CE2      129.4240   73.2830  140.6210 C.ar  111  TYR111      0.0417
     55  CZ       129.9780   74.5180  140.3550 C.ar  111  TYR111      0.1957
     56  OH       129.1640   75.5760  140.0100 O.3   111  TYR111     -0.2866
     57  N        135.1480   75.0800  137.7370 N.3   114  MET114     -0.1245
     58  CA       134.4600   74.6050  136.5420 C.3   114  MET114      0.1570
     59  C        134.7280   75.5190  135.3510 C.2   114  MET114      0.2261
     60  O        134.2820   76.6660  135.3240 O.2   114  MET114     -0.2867
     61  CB       132.9560   74.5000  136.7970 C.3   114  MET114      0.0387
     62  CG       132.1690   74.1150  135.5370 C.3   114  MET114      0.0595
     63  SD       130.3770   74.0620  135.7390 S.3   114  MET114     -0.1393
     64  CE       130.0270   75.7120  135.9170 C.3   114  MET114      0.0692
     65  N        130.8580   76.1200  126.5080 N.3   118  ASP118     -0.1239
     66  CA       129.4460   75.9380  126.8300 C.3   118  ASP118      0.1674
     67  C        128.6120   76.5840  125.7360 C.2   118  ASP118      0.2266
     68  O        128.7900   77.7700  125.4390 O.2   118  ASP118     -0.2867
     69  CB       129.1090   76.5430  128.1950 C.3   118  ASP118      0.1410
     70  CG       127.6880   76.2240  128.6370 C.2   118  ASP118      0.3668
     71  OD1      127.0310   75.2460  128.1300 O.co2 118  ASP118     -0.2456
     72  OD2      127.2370   76.8540  129.6040 O.co2 118  ASP118     -0.2456
     73  N        132.7950   78.8440  130.2870 N.3   128  HIS128     -0.1241
     74  CA       132.5030   78.8900  131.7130 C.3   128  HIS128      0.1621
     75  C        133.7820   78.7330  132.5260 C.2   128  HIS128      0.2264
     76  O        134.6420   77.9050  132.2130 O.2   128  HIS128     -0.2867
     77  CB       131.5050   77.7950  132.0860 C.3   128  HIS128      0.0745
     78  CG       130.0550   78.0900  131.8680 C.ar  128  HIS128      0.0817
     79  ND1      129.0670   77.7470  132.7650 N.ar  128  HIS128     -0.2268
     80  CD2      129.3900   78.6730  130.8430 C.ar  128  HIS128      0.1154
     81  CE1      127.8820   78.1310  132.3050 C.ar  128  HIS128      0.1986
     82  NE2      128.0560   78.7020  131.1350 N.ar  128  HIS128     -0.2212
     83  N        133.7290   79.2170  136.4570 N.3   130  ILE130     -0.1245
     84  CA       133.2490   79.5390  137.7960 C.3   130  ILE130      0.1561
     85  C        134.2490   79.0330  138.8260 C.2   130  ILE130      0.2260
     86  O        135.1880   78.3010  138.4920 O.2   130  ILE130     -0.2867
     87  CB       131.8510   78.9460  138.0460 C.3   130  ILE130      0.0252
     88  CG1      130.8720   79.8040  137.2150 C.3   130  ILE130      0.0019
     89  CG2      131.3310   78.9140  139.4720 C.3   130  ILE130      0.0019
     90  CD1      129.7250   79.0260  136.6200 C.3   130  ILE130      0.0001
     91  N        129.1660   79.3660  143.9470 N.3   137  ASN137     -0.1240
     92  CA       129.9250   79.2040  142.7090 C.3   137  ASN137      0.1653
     93  C        129.8670   80.5170  141.9370 C.2   137  ASN137      0.2266
     94  O        128.9030   80.7870  141.2170 O.2   137  ASN137     -0.2867
     95  CB       129.3740   78.0460  141.8860 C.3   137  ASN137      0.1155
     96  CG       127.8660   78.1770  141.5770 C.2   137  ASN137      0.2627
     97  OD1      127.1860   79.1350  141.9760 O.2   137  ASN137     -0.2716
     98  ND2      127.3480   77.1890  140.8760 N.am  137  ASN137     -0.0877
     99  N        130.1810   66.1940  133.7430 N.3   296  ASP296     -0.1239
    100  CA       128.7360   66.0330  133.6620 C.3   296  ASP296      0.1674
    101  C        128.1400   67.2390  132.9520 C.2   296  ASP296      0.2266
    102  O        128.4340   68.3830  133.3130 O.2   296  ASP296     -0.2867
    103  CB       128.1150   65.8760  135.0540 C.3   296  ASP296      0.1410
    104  CG       128.1970   67.1210  135.9230 C.2   296  ASP296      0.3668
    105  OD1      127.5050   68.1450  135.6440 O.co2 296  ASP296     -0.2456
    106  OD2      128.9100   67.1110  136.9310 O.co2 296  ASP296     -0.2456
@<TRIPOS>BOND
     1    68    67    2
     2    67    66    1
     3    65    66    1
     4    66    69    1
     5    71    70   ar
     6    69    70    1
     7    70    72   ar
     8    12    13    1
     9     1     2    1
    10    73    74    1
    11    13    16    1
    12    13    14    1
    13     2     3    1
    14     2     5    1
    15    80    82   ar
    16    80    78   ar
    17     3     4    2
    18    19    21   ar
    19    19    17   ar
    20    16    17    1
    21    82    81   ar
    22    15    14    2
    23    21    22   ar
    24    17    18   ar
    25     5     6    1
    26    74    77    1
    27    74    75    1
    28    78    77    1
    29    78    79   ar
    30    76    75    2
    31    81    79   ar
    32    22    23    1
    33    22    20   ar
    34     6     8   ar
    35     6     7   ar
    36    18    20   ar
    37   101   102    2
    38   101   100    1
    39     8    10   ar
    40     7     9   ar
    41   100    99    1
    42   100   103    1
    43    10    11   ar
    44     9    11   ar
    45   103   104    1
    46    60    59    2
    47    59    58    1
    48    24    25    1
    49    62    63    1
    50    62    61    1
    51   105   104   ar
    52    63    64    1
    53   104   106   ar
    54    83    84    1
    55    58    61    1
    56    58    57    1
    57    31    30    1
    58    31    32    1
    59    90    88    1
    60    29    30    1
    61    29    28    1
    62    25    28    1
    63    25    26    1
    64    88    87    1
    65    27    26    2
    66    84    87    1
    67    84    85    1
    68    87    89    1
    69    34    33    1
    70    34    35    1
    71    86    85    2
    72    35    36    2
    73    35    37   am
    74    56    55    1
    75    55    53   ar
    76    55    54   ar
    77    53    51   ar
    78    54    52   ar
    79    37    38    1
    80    51    50   ar
    81    98    96   am
    82    52    50   ar
    83    50    49    1
    84    94    93    2
    85    43    42   ar
    86    49    46    1
    87    96    95    1
    88    96    97    2
    89    95    92    1
    90    93    92    1
    91    38    41    1
    92    38    39    1
    93    42    41    1
    94    42    44   ar
    95    92    91    1
    96    39    40    2
    97    46    47    1
    98    46    45    1
    99    47    48    2
