@<TRIPOS>MOLECULE
tmp/6enzA00.pdb
 129 122 0 0 0
SMALL
GASTEIGER

@<TRIPOS>ATOM
      1  N         92.4540   -9.0260  142.8700 N.3    92  LEU92      -0.1245
      2  CA        93.6080   -9.9170  142.8580 C.3    92  LEU92       0.1561
      3  C         93.4300  -11.0440  141.8470 C.2    92  LEU92       0.2260
      4  O         93.9550  -12.1470  142.0340 O.2    92  LEU92      -0.2867
      5  CB        93.8430  -10.4870  144.2590 C.3    92  LEU92       0.0270
      6  CG        94.2810   -9.4720  145.3200 C.3    92  LEU92       0.0019
      7  CD1       93.0890   -8.6820  145.8530 C.3    92  LEU92       0.0001
      8  CD2       95.0200  -10.1440  146.4590 C.3    92  LEU92       0.0001
      9  N         85.6350  -23.8320  147.8370 N.3   149  PRO149     -0.2102
     10  CA        85.1560  -22.6850  147.0430 C.3   149  PRO149      0.1504
     11  C         85.5970  -21.3530  147.6460 C.2   149  PRO149      0.2576
     12  O         84.8660  -20.6640  148.3600 O.2   149  PRO149     -0.2718
     13  CB        83.6380  -22.8680  147.0790 C.3   149  PRO149      0.0282
     14  CG        83.3880  -23.4860  148.4140 C.3   149  PRO149      0.0208
     15  CD        84.5810  -24.3640  148.7180 C.3   149  PRO149      0.0893
     16  N         86.8380  -20.9750  147.3540 N.am  150  GLY150     -0.1943
     17  CA        87.3740  -19.7190  147.8420 C.3   150  GLY150      0.2014
     18  C         88.2700  -19.8720  149.0530 C.2   150  GLY150      0.2639
     19  O         87.9150  -20.5560  150.0170 O.2   150  GLY150     -0.2714
     20  N         89.4380  -19.2320  149.0090 N.am  151  GLY151     -0.1939
     21  CA        90.4100  -19.3160  150.0830 C.3   151  GLY151      0.2014
     22  C         89.8570  -18.9520  151.4450 C.2   151  GLY151      0.2639
     23  O         90.4190  -19.3490  152.4700 O.2   151  GLY151     -0.2714
     24  N         88.7640  -18.1860  151.4730 N.am  152  SER152     -0.1949
     25  CA        88.0960  -17.9020  152.7390 C.3   152  SER152      0.1924
     26  C         87.7190  -19.1940  153.4470 C.2   152  SER152      0.2314
     27  O         87.9850  -19.3650  154.6420 O.2   152  SER152     -0.2863
     28  CB        86.8560  -17.0390  152.4990 C.3   152  SER152      0.2116
     29  OG        87.2110  -15.7750  151.9680 O.3   152  SER152     -0.2180
     30  N         90.7930  -21.1320  154.7950 N.3   155  ASN155     -0.1240
     31  CA        91.1770  -20.6930  156.1330 C.3   155  ASN155      0.1653
     32  C         90.2230  -21.2520  157.1780 C.2   155  ASN155      0.2266
     33  O         90.6510  -21.7690  158.2160 O.2   155  ASN155     -0.2867
     34  CB        91.1920  -19.1650  156.1920 C.3   155  ASN155      0.1155
     35  CG        92.1840  -18.5510  155.2230 C.2   155  ASN155      0.2627
     36  OD1       93.2590  -19.1010  154.9780 O.2   155  ASN155     -0.2716
     37  ND2       91.8000  -17.4320  154.6210 N.am  155  ASN155     -0.0877
     38  N         93.7130  -11.2820  155.9170 N.3   190  HIS190     -0.1241
     39  CA        92.4090  -11.2340  155.2750 C.3   190  HIS190      0.1621
     40  C         91.3110  -11.2660  156.3310 C.2   190  HIS190      0.2264
     41  O         91.4890  -11.8020  157.4290 O.2   190  HIS190     -0.2867
     42  CB        92.2510  -12.4050  154.3090 C.3   190  HIS190      0.0745
     43  CG        91.1140  -12.2520  153.3490 C.ar  190  HIS190      0.0817
     44  ND1       90.0880  -13.1680  153.2580 N.ar  190  HIS190     -0.2268
     45  CD2       90.8450  -11.2930  152.4320 C.ar  190  HIS190      0.1154
     46  CE1       89.2350  -12.7780  152.3270 C.ar  190  HIS190      0.1986
     47  NE2       89.6710  -11.6430  151.8110 N.ar  190  HIS190     -0.2212
     48  N        100.4430  -14.8410  157.0450 N.3   243  THR243     -0.1218
     49  CA        99.9900  -14.5080  155.7000 C.3   243  THR243      0.1862
     50  C        101.2040  -14.3180  154.8020 C.2   243  THR243      0.2287
     51  O        102.0510  -13.4590  155.0710 O.2   243  THR243     -0.2866
     52  CB        99.1280  -13.2450  155.7140 C.3   243  THR243      0.1770
     53  OG1       98.2410  -13.2850  156.8390 O.3   243  THR243     -0.2211
     54  CG2       98.3100  -13.1480  154.4340 C.3   243  THR243      0.0375
     55  N        101.6460  -12.9620  151.6390 N.3   245  GLY245     -0.1225
     56  CA       101.1160  -12.1500  150.5590 C.3   245  GLY245      0.1811
     57  C         99.7760  -11.5350  150.9060 C.2   245  GLY245      0.2280
     58  O         98.7310  -12.0130  150.4520 O.2   245  GLY245     -0.2866
     59  N         96.5710   -8.8840  151.1110 N.3   247  THR247     -0.1218
     60  CA        95.7350   -8.4430  149.9980 C.3   247  THR247      0.1862
     61  C         96.0940   -7.0290  149.5630 C.2   247  THR247      0.2287
     62  O         96.2420   -6.7520  148.3670 O.2   247  THR247     -0.2866
     63  CB        94.2560   -8.5040  150.3880 C.3   247  THR247      0.1770
     64  OG1       93.9430   -7.3920  151.2350 O.3   247  THR247     -0.2211
     65  CG2       93.9270   -9.7920  151.1220 C.3   247  THR247      0.0375
     66  N         98.3130  -18.4020  155.1630 N.3   272  ASP272     -0.1239
     67  CA        97.3390  -17.9290  154.1810 C.3   272  ASP272      0.1674
     68  C         98.1170  -17.4270  152.9750 C.2   272  ASP272      0.2266
     69  O         98.4520  -16.2470  152.8670 O.2   272  ASP272     -0.2867
     70  CB        96.4450  -16.8440  154.7650 C.3   272  ASP272      0.1410
     71  CG        95.4030  -16.3570  153.7760 C.2   272  ASP272      0.3668
     72  OD1       95.2990  -16.9480  152.6790 O.co2 272  ASP272     -0.2456
     73  OD2       94.6870  -15.3850  154.0930 O.co2 272  ASP272     -0.2456
     74  N         96.8990  -17.5530  149.8860 N.3   274  SER274     -0.1202
     75  CA        95.9210  -17.4370  148.8120 C.3   274  SER274      0.2020
     76  C         96.4360  -16.5600  147.6810 C.2   274  SER274      0.2618
     77  O         96.1170  -16.7990  146.5110 O.2   274  SER274     -0.2717
     78  CB        94.6130  -16.8640  149.3640 C.3   274  SER274      0.2103
     79  OG        94.0240  -17.7480  150.3010 O.3   274  SER274     -0.2182
     80  N         97.2390  -15.5490  148.0100 N.am  275  TRP275     -0.1975
     81  CA        97.7340  -14.5890  147.0320 C.3   275  TRP275      0.1640
     82  C         99.1930  -14.8510  146.6690 C.2   275  TRP275      0.2290
     83  O         99.5190  -15.0620  145.4960 O.2   275  TRP275     -0.2864
     84  CB        97.5450  -13.1730  147.5930 C.3   275  TRP275      0.0576
     85  CG        98.0530  -12.0610  146.7260 C.ar  275  TRP275      0.0006
     86  CD1       98.6580  -10.9140  147.1510 C.ar  275  TRP275      0.0946
     87  CD2       97.9950  -11.9750  145.2940 C.ar  275  TRP275      0.0152
     88  NE1       98.9790  -10.1210  146.0770 N.ar  275  TRP275     -0.2442
     89  CE2       98.5820  -10.7490  144.9260 C.ar  275  TRP275      0.0810
     90  CE3       97.5020  -12.8130  144.2890 C.ar  275  TRP275      0.0012
     91  CZ2       98.7010  -10.3460  143.6000 C.ar  275  TRP275      0.0191
     92  CZ3       97.6170  -12.4070  142.9720 C.ar  275  TRP275      0.0001
     93  CH2       98.2110  -11.1860  142.6400 C.ar  275  TRP275      0.0015
     94  N         95.4210  -20.0570  146.3510 N.3   301  ASN301     -0.1240
     95  CA        94.4170  -19.8380  145.3130 C.3   301  ASN301      0.1653
     96  C         95.0900  -19.6180  143.9650 C.2   301  ASN301      0.2266
     97  O         95.6570  -18.5380  143.7330 O.2   301  ASN301     -0.2867
     98  CB        93.5400  -18.6340  145.6600 C.3   301  ASN301      0.1155
     99  CG        92.9620  -18.7130  147.0560 C.2   301  ASN301      0.2627
    100  OD1       93.5060  -19.3850  147.9310 O.2   301  ASN301     -0.2716
    101  ND2       91.8570  -18.0090  147.2760 N.am  301  ASN301     -0.0877
    102  N         93.4110  -19.2230  141.2500 N.3   303  HIS303     -0.1226
    103  CA        92.4920  -18.4310  140.4300 C.3   303  HIS303      0.1752
    104  C         92.8950  -16.9620  140.4070 C.2   303  HIS303      0.2595
    105  O         92.2020  -16.1300  139.8220 O.2   303  HIS303     -0.2718
    106  CB        91.0450  -18.5540  140.9310 C.3   303  HIS303      0.0759
    107  CG        90.7410  -17.7360  142.1480 C.ar  303  HIS303      0.0818
    108  ND1       90.7110  -18.2690  143.4190 N.ar  303  HIS303     -0.2268
    109  CD2       90.4230  -16.4260  142.2830 C.ar  303  HIS303      0.1154
    110  CE1       90.4020  -17.3200  144.2850 C.ar  303  HIS303      0.1986
    111  NE2       90.2220  -16.1920  143.6210 N.ar  303  HIS303     -0.2212
    112  N         94.0190  -16.6530  141.0420 N.am  304  LYS304     -0.1980
    113  CA        94.5020  -15.2740  141.1510 C.3   304  LYS304      0.1596
    114  C         95.6630  -15.0160  140.2650 C.2   304  LYS304      0.2287
    115  O         95.5130  -14.5300  139.1540 O.2   304  LYS304     -0.2864
    116  CB        94.8960  -15.0120  142.5740 C.3   304  LYS304      0.0298
    117  CG        93.6450  -14.8850  143.4270 C.3   304  LYS304      0.0038
    118  CD        94.1180  -14.7090  144.8700 C.3   304  LYS304      0.0206
    119  CE        93.0960  -13.8350  145.6010 C.3   304  LYS304      0.1093
    120  NZ        93.2900  -14.0560  147.0290 N.3   304  LYS304     -0.1314
    121  N         85.9080  -20.4040  140.6250 N.3   311  GLN311     -0.1245
    122  CA        86.7270  -20.3340  141.8450 C.3   311  GLN311      0.1566
    123  C         87.8020  -21.4220  141.7800 C.2   311  GLN311      0.2260
    124  O         87.6690  -22.3920  141.0330 O.2   311  GLN311     -0.2867
    125  CB        85.8540  -20.5190  143.0880 C.3   311  GLN311      0.0367
    126  CG        85.8970  -19.3430  144.0760 C.3   311  GLN311      0.0905
    127  CD        84.8190  -19.3990  145.1500 C.2   311  GLN311      0.2608
    128  OE1       85.0400  -18.9600  146.2770 O.2   311  GLN311     -0.2717
    129  NE2       83.6370  -19.9110  144.8030 N.am  311  GLN311     -0.0878
@<TRIPOS>BOND
     1   115   114    2
     2   105   104    2
     3   114   113    1
     4   104   103    1
     5   104   112   am
     6   103   106    1
     7   103   102    1
     8   121   122    1
     9   106   107    1
    10   124   123    2
    11   112   113    1
    12   113   116    1
    13   123   122    1
    14   122   125    1
    15     3     4    2
    16     3     2    1
    17   107   109   ar
    18   107   108   ar
    19   109   111   ar
    20   116   117    1
    21    93    92   ar
    22    93    91   ar
    23     2     1    1
    24     2     5    1
    25    92    90   ar
    26   125   126    1
    27   108   110   ar
    28   117   118    1
    29    91    89   ar
    30   111   110   ar
    31    97    96    2
    32    96    95    1
    33   126   127    1
    34     5     6    1
    35    90    87   ar
    36   129   127   am
    37   118   119    1
    38    89    87   ar
    39    89    88   ar
    40   127   128    2
    41    87    85   ar
    42    95    98    1
    43    95    94    1
    44     6     7    1
    45     6     8    1
    46    83    82    2
    47   119   120    1
    48    98    99    1
    49    88    86   ar
    50    77    76    2
    51    82    81    1
    52    85    86   ar
    53    85    84    1
    54    81    84    1
    55    81    80    1
    56    10    13    1
    57    10    11    1
    58    10     9    1
    59    99   101   am
    60    99   100    2
    61    13    14    1
    62    16    11   am
    63    16    17    1
    64    11    12    2
    65    76    80   am
    66    76    75    1
    67     9    15    1
    68    17    18    1
    69    62    61    2
    70    14    15    1
    71    75    78    1
    72    75    74    1
    73    20    18   am
    74    20    21    1
    75    18    19    2
    76    78    79    1
    77    61    60    1
    78    60    63    1
    79    60    59    1
    80    21    22    1
    81    63    65    1
    82    63    64    1
    83    58    57    2
    84    56    57    1
    85    56    55    1
    86    22    24   am
    87    22    23    2
    88    24    25    1
    89    47    46   ar
    90    47    45   ar
    91    29    28    1
    92    46    44   ar
    93    45    43   ar
    94    28    25    1
    95    72    71   ar
    96    25    26    1
    97    69    68    2
    98    68    67    1
    99    44    43   ar
   100    43    42    1
   101    26    27    2
   102    71    73   ar
   103    71    70    1
   104    67    70    1
   105    67    66    1
   106    42    39    1
   107    54    52    1
   108    37    35   am
   109    30    31    1
   110    50    51    2
   111    50    49    1
   112    36    35    2
   113    35    34    1
   114    39    38    1
   115    39    40    1
   116    49    52    1
   117    49    48    1
   118    52    53    1
   119    31    34    1
   120    31    32    1
   121    40    41    2
   122    32    33    2
