@<TRIPOS>MOLECULE
tmp/6eo0C00.pdb
 108 104 0 0 0
SMALL
GASTEIGER

@<TRIPOS>ATOM
      1  N         28.6150   42.1750   27.4370 N.3   204  LEU204     -0.1245
      2  CA        29.0600   42.7510   28.7440 C.3   204  LEU204      0.1561
      3  C         29.8480   44.0450   28.5000 C.2   204  LEU204      0.2260
      4  O         29.6550   45.0570   29.1570 O.2   204  LEU204     -0.2867
      5  CB        29.8700   41.7440   29.5700 C.3   204  LEU204      0.0270
      6  CG        30.1830   42.0490   31.0520 C.3   204  LEU204      0.0019
      7  CD1       28.9840   41.8480   31.9330 C.3   204  LEU204      0.0001
      8  CD2       31.3040   41.1990   31.6270 C.3   204  LEU204      0.0001
      9  N         27.4060   46.6220   27.8390 N.3   207  VAL207     -0.1231
     10  CA        26.7410   46.9870   29.0890 C.3   207  VAL207      0.1692
     11  C         27.6270   47.8800   29.9870 C.2   207  VAL207      0.2591
     12  O         27.1310   48.8480   30.5440 O.2   207  VAL207     -0.2718
     13  CB        26.1830   45.7440   29.8230 C.3   207  VAL207      0.0266
     14  CG1       25.8500   46.0480   31.2750 C.3   207  VAL207      0.0020
     15  CG2       24.9440   45.2310   29.1090 C.3   207  VAL207      0.0020
     16  N         28.9170   47.5900   30.0840 N.am  208  GLU208     -0.1979
     17  CA        29.8270   48.4500   30.8410 C.3   208  GLU208      0.1602
     18  C         29.7570   49.8900   30.3360 C.2   208  GLU208      0.2287
     19  O         29.5940   50.8180   31.1410 O.2   208  GLU208     -0.2864
     20  CB        31.2770   47.9200   30.7620 C.3   208  GLU208      0.0415
     21  CG        32.2650   48.6350   31.6850 C.3   208  GLU208      0.1163
     22  CD        33.6360   48.0340   31.7020 C.2   208  GLU208      0.3649
     23  OE1       33.8260   46.9660   31.1000 O.co2 208  GLU208     -0.2457
     24  OE2       34.5380   48.6560   32.3100 O.co2 208  GLU208     -0.2457
     25  N         26.5710   51.6820   31.2080 N.3   211  LEU211     -0.1245
     26  CA        26.6720   52.0560   32.6150 C.3   211  LEU211      0.1561
     27  C         27.5660   53.2670   32.8590 C.2   211  LEU211      0.2260
     28  O         27.2400   54.0820   33.7190 O.2   211  LEU211     -0.2867
     29  CB        27.1570   50.8870   33.4650 C.3   211  LEU211      0.0270
     30  CG        26.2050   49.6780   33.5530 C.3   211  LEU211      0.0019
     31  CD1       26.9190   48.4780   34.1680 C.3   211  LEU211      0.0001
     32  CD2       24.9330   50.0040   34.3250 C.3   211  LEU211      0.0001
     33  N         26.5530   37.8900   41.0790 N.3   227  TYR227     -0.1228
     34  CA        27.5580   38.6930   40.3970 C.3   227  TYR227      0.1721
     35  C         27.6770   38.1780   38.9490 C.2   227  TYR227      0.2437
     36  O         27.4760   36.9990   38.7120 O.2   227  TYR227     -0.2733
     37  CB        28.9100   38.5640   41.1460 C.3   227  TYR227      0.0547
     38  CG        30.1620   38.7330   40.3030 C.ar  227  TYR227     -0.0200
     39  CD1       30.6630   37.6870   39.5070 C.ar  227  TYR227     -0.0009
     40  CD2       30.8540   39.9490   40.2940 C.ar  227  TYR227     -0.0009
     41  CE1       31.7990   37.8770   38.7230 C.ar  227  TYR227      0.0417
     42  CE2       31.9790   40.1320   39.5150 C.ar  227  TYR227      0.0417
     43  CZ        32.4530   39.1010   38.7510 C.ar  227  TYR227      0.1957
     44  OH        33.5770   39.3230   37.9980 O.3   227  TYR227     -0.2866
     45  N         28.0040   39.0170   37.9560 N.am  228  PRO228     -0.2729
     46  CA        28.3730   40.4260   38.1000 C.3   228  PRO228      0.1401
     47  C         27.2530   41.4500   38.1950 C.2   228  PRO228      0.2269
     48  O         27.4670   42.5200   38.7650 O.2   228  PRO228     -0.2865
     49  CB        29.2730   40.6640   36.8780 C.3   228  PRO228      0.0296
     50  CG        28.7480   39.7540   35.8450 C.3   228  PRO228      0.0237
     51  CD        28.1850   38.5460   36.5610 C.3   228  PRO228      0.0939
     52  N         24.9290   42.0830   40.1830 N.3   230  ALA230     -0.1231
     53  CA        24.8360   42.6510   41.5440 C.3   230  ALA230      0.1694
     54  C         25.6990   43.8670   41.8240 C.2   230  ALA230      0.2592
     55  O         25.3200   44.7130   42.6570 O.2   230  ALA230     -0.2718
     56  CB        25.1870   41.5880   42.5720 C.3   230  ALA230      0.0304
     57  N         26.8620   43.9320   41.1690 N.am  231  MET231     -0.1965
     58  CA        27.7910   45.0480   41.3430 C.3   231  MET231      0.1736
     59  C         27.6460   46.1980   40.3240 C.2   231  MET231      0.2616
     60  O         28.3580   47.1890   40.4690 O.2   231  MET231     -0.2715
     61  CB        29.2450   44.5540   41.4620 C.3   231  MET231      0.0427
     62  CG        29.8460   43.7500   40.3110 C.3   231  MET231      0.0599
     63  SD        29.8780   44.5060   38.6810 S.3   231  MET231     -0.1393
     64  CE        31.2460   45.6290   38.9120 C.3   231  MET231      0.0692
     65  N         26.7240   46.0840   39.3350 N.am  232  PHE232     -0.1974
     66  CA        26.4990   47.1290   38.3040 C.3   232  PHE232      0.1639
     67  C         26.0680   48.4630   38.9350 C.2   232  PHE232      0.2290
     68  O         26.7250   49.4870   38.7480 O.2   232  PHE232     -0.2864
     69  CB        25.3950   46.7380   37.3000 C.3   232  PHE232      0.0560
     70  CG        25.7000   45.5590   36.3860 C.ar  232  PHE232     -0.0200
     71  CD1       26.9500   44.9370   36.3130 C.ar  232  PHE232     -0.0042
     72  CD2       24.6760   45.0940   35.5360 C.ar  232  PHE232     -0.0042
     73  CE1       27.1400   43.8590   35.4360 C.ar  232  PHE232     -0.0003
     74  CE2       24.8760   44.0130   34.6740 C.ar  232  PHE232     -0.0003
     75  CZ        26.1110   43.4080   34.6120 C.ar  232  PHE232     -0.0000
     76  N         25.9730   49.1270   42.1470 N.3   234  PRO234     -0.2102
     77  CA        27.0470   49.6260   42.9840 C.3   234  PRO234      0.1504
     78  C         28.1120   50.4580   42.2420 C.2   234  PRO234      0.2575
     79  O         28.4050   51.5610   42.6810 O.2   234  PRO234     -0.2718
     80  CB        27.5980   48.3520   43.6080 C.3   234  PRO234      0.0282
     81  CG        26.3550   47.5360   43.8190 C.3   234  PRO234      0.0208
     82  CD        25.4660   47.8270   42.6340 C.3   234  PRO234      0.0893
     83  N         28.6330   49.9930   41.1040 N.am  235  GLN235     -0.1980
     84  CA        29.7190   50.7380   40.3970 C.3   235  GLN235      0.1601
     85  C         29.2770   52.1180   39.8580 C.2   235  GLN235      0.2287
     86  O         30.0460   53.0900   39.9050 O.2   235  GLN235     -0.2864
     87  CB        30.3350   49.8860   39.3000 C.3   235  GLN235      0.0394
     88  CG        31.4170   50.5460   38.4420 C.3   235  GLN235      0.0908
     89  CD        32.6210   51.1020   39.1990 C.2   235  GLN235      0.2608
     90  OE1       33.2980   51.9870   38.6890 O.2   235  GLN235     -0.2717
     91  NE2       32.9040   50.5780   40.3950 N.am  235  GLN235     -0.0878
     92  N         29.2850   54.3260   42.7740 N.3   238  SER238     -0.1217
     93  CA        30.7190   54.7290   42.9660 C.3   238  SER238      0.1889
     94  C         31.1780   55.9640   42.0860 C.2   238  SER238      0.2288
     95  O         32.1830   56.6130   42.3990 O.2   238  SER238     -0.2866
     96  CB        31.6970   53.5310   42.8290 C.3   238  SER238      0.2089
     97  OG        32.5100   53.5670   41.6680 O.3   238  SER238     -0.2183
     98  N         24.1560   51.3780   49.4320 N.3   256  ARG256     -0.1245
     99  CA        24.9790   52.2000   48.5370 C.3   256  ARG256      0.1563
    100  C         24.1880   53.0940   47.5840 C.2   256  ARG256      0.2260
    101  O         24.7990   53.8650   46.8510 O.2   256  ARG256     -0.2867
    102  CB        25.9510   51.2790   47.7630 C.3   256  ARG256      0.0307
    103  CG        27.1380   50.8680   48.6960 C.3   256  ARG256      0.0489
    104  CD        27.3980   49.3790   48.9620 C.3   256  ARG256      0.2205
    105  NE        27.8270   48.6020   47.8010 N.pl3 256  ARG256     -0.0865
    106  CZ        28.0540   47.2770   47.8120 C.cat 256  ARG256      0.5346
    107  NH1       27.9050   46.5420   48.9240 N.pl3 256  ARG256      0.1354
    108  NH2       28.4180   46.6490   46.6970 N.pl3 256  ARG256      0.1354
@<TRIPOS>BOND
     1     1     2    1
     2     9    10    1
     3     3     2    1
     4     3     4    2
     5     2     5    1
     6    10    13    1
     7    10    11    1
     8    15    13    1
     9     5     6    1
    10    13    14    1
    11    11    16   am
    12    11    12    2
    13    16    17    1
    14    18    17    1
    15    18    19    2
    16    20    17    1
    17    20    21    1
    18     6     8    1
    19     6     7    1
    20    23    22   ar
    21    25    26    1
    22    21    22    1
    23    22    24   ar
    24    26    27    1
    25    26    29    1
    26    27    28    2
    27    29    30    1
    28    30    31    1
    29    30    32    1
    30    75    74   ar
    31    75    73   ar
    32    74    72   ar
    33    73    71   ar
    34    72    70   ar
    35    50    51    1
    36    50    49    1
    37    71    70   ar
    38    70    69    1
    39    51    45    1
    40    49    46    1
    41    69    66    1
    42    45    46    1
    43    45    35   am
    44    44    43    1
    45    46    47    1
    46    47    48    2
    47    66    67    1
    48    66    65    1
    49    88    89    1
    50    88    87    1
    51    63    64    1
    52    63    62    1
    53    90    89    2
    54    36    35    2
    55    41    43   ar
    56    41    39   ar
    57    68    67    2
    58    43    42   ar
    59    35    34    1
    60    89    91   am
    61    87    84    1
    62    65    59   am
    63    39    38   ar
    64    42    40   ar
    65    85    86    2
    66    85    84    1
    67    52    53    1
    68    40    38   ar
    69    38    37    1
    70    62    61    1
    71    59    60    2
    72    59    58    1
    73    84    83    1
    74    34    33    1
    75    34    37    1
    76    83    78   am
    77    57    58    1
    78    57    54   am
    79    58    61    1
    80    53    54    1
    81    53    56    1
    82    97    96    1
    83    54    55    2
    84    94    95    2
    85    94    93    1
    86    76    82    1
    87    76    77    1
    88    78    79    2
    89    78    77    1
    90    82    81    1
    91    92    93    1
    92    96    93    1
    93    77    80    1
    94    80    81    1
    95   108   106    1
    96   101   100    2
    97   100    99    1
    98   102    99    1
    99   102   103    1
   100   105   106    2
   101   105   104    1
   102   106   107    1
   103    99    98    1
   104   103   104    1
