@<TRIPOS>MOLECULE
tmp/6eo0D00.pdb
 103 99 0 0 0
SMALL
GASTEIGER

@<TRIPOS>ATOM
      1  N         16.4780   32.4200   78.5630 N.3   205  LEU205     -0.1245
      2  CA        17.4140   31.8470   77.5570 C.3   205  LEU205      0.1561
      3  C         18.0080   30.5400   78.0900 C.2   205  LEU205      0.2260
      4  O         18.0800   29.5400   77.3730 O.2   205  LEU205     -0.2867
      5  CB        18.5230   32.8460   77.1680 C.3   205  LEU205      0.0270
      6  CG        19.4450   32.5610   75.9690 C.3   205  LEU205      0.0019
      7  CD1       18.7360   32.6650   74.6120 C.3   205  LEU205      0.0001
      8  CD2       20.6860   33.4530   76.0100 C.3   205  LEU205      0.0001
      9  N         15.4670   27.9950   77.6330 N.3   208  VAL208     -0.1231
     10  CA        15.3650   27.6400   76.2190 C.3   208  VAL208      0.1692
     11  C         16.5360   26.7420   75.7590 C.2   208  VAL208      0.2591
     12  O         16.3120   25.7800   75.0310 O.2   208  VAL208     -0.2718
     13  CB        15.1720   28.8900   75.3330 C.3   208  VAL208      0.0266
     14  CG1       15.4580   28.5950   73.8620 C.3   208  VAL208      0.0020
     15  CG2       13.7500   29.4150   75.4740 C.3   208  VAL208      0.0020
     16  N         17.7570   27.0210   76.1980 N.am  209  GLU209     -0.1979
     17  CA        18.8900   26.1560   75.8640 C.3   209  GLU209      0.1602
     18  C         18.6150   24.7060   76.2810 C.2   209  GLU209      0.2287
     19  O         18.7960   23.7750   75.4790 O.2   209  GLU209     -0.2864
     20  CB        20.1780   26.6680   76.5120 C.3   209  GLU209      0.0415
     21  CG        21.4530   25.9760   76.0330 C.3   209  GLU209      0.1163
     22  CD        22.7140   26.6090   76.5640 C.2   209  GLU209      0.3649
     23  OE1       22.6040   27.2270   77.6480 O.co2 209  GLU209     -0.2457
     24  OE2       23.7910   26.5080   75.8960 O.co2 209  GLU209     -0.2457
     25  N         16.0580   22.9640   74.1620 N.3   212  LEU212     -0.1245
     26  CA        16.7370   22.6020   72.9110 C.3   212  LEU212      0.1561
     27  C         17.6360   21.3810   73.0420 C.2   212  LEU212      0.2260
     28  O         17.6740   20.5810   72.1040 O.2   212  LEU212     -0.2867
     29  CB        17.5410   23.7710   72.3440 C.3   212  LEU212      0.0270
     30  CG        16.7430   24.9990   71.8990 C.3   212  LEU212      0.0019
     31  CD1       17.6470   26.2010   71.6510 C.3   212  LEU212      0.0001
     32  CD2       15.9290   24.6800   70.6490 C.3   212  LEU212      0.0001
     33  N         20.2710   36.8190   65.2500 N.3   228  TYR228     -0.1228
     34  CA        20.9140   35.9910   66.2720 C.3   228  TYR228      0.1721
     35  C         20.4690   36.4950   67.6650 C.2   228  TYR228      0.2437
     36  O         20.2170   37.6700   67.8150 O.2   228  TYR228     -0.2733
     37  CB        22.4570   36.0960   66.1050 C.3   228  TYR228      0.0547
     38  CG        23.2760   35.9000   67.3660 C.ar  228  TYR228     -0.0200
     39  CD1       23.4510   36.9450   68.3110 C.ar  228  TYR228     -0.0009
     40  CD2       23.8860   34.6610   67.6280 C.ar  228  TYR228     -0.0009
     41  CE1       24.1850   36.7220   69.4740 C.ar  228  TYR228      0.0417
     42  CE2       24.6070   34.4440   68.7820 C.ar  228  TYR228      0.0417
     43  CZ        24.7650   35.4650   69.6870 C.ar  228  TYR228      0.1957
     44  OH        25.4790   35.1590   70.8020 O.3   228  TYR228     -0.2866
     45  N         20.3730   35.6460   68.6940 N.am  229  PRO229     -0.2729
     46  CA        20.7390   34.2300   68.6790 C.3   229  PRO229      0.1401
     47  C         19.7100   33.2370   68.1590 C.2   229  PRO229      0.2269
     48  O         20.1040   32.1620   67.7240 O.2   229  PRO229     -0.2865
     49  CB        21.0890   33.9460   70.1550 C.3   229  PRO229      0.0296
     50  CG        20.2820   34.8720   70.9160 C.3   229  PRO229      0.0237
     51  CD        20.0430   36.0950   70.0620 C.3   229  PRO229      0.0939
     52  N         20.5460   30.7780   65.2760 N.3   232  MET232     -0.1230
     53  CA        21.4400   29.6480   65.5030 C.3   232  MET232      0.1702
     54  C         20.8740   28.4870   66.3620 C.2   232  MET232      0.2592
     55  O         21.5650   27.4820   66.5250 O.2   232  MET232     -0.2718
     56  CB        22.8100   30.1050   66.0200 C.3   232  MET232      0.0401
     57  CG        22.8960   30.8950   67.3160 C.3   232  MET232      0.0596
     58  SD        22.2440   30.1510   68.8000 S.3   232  MET232     -0.1393
     59  CE        23.5470   28.9930   69.1700 C.3   232  MET232      0.0692
     60  N         19.6250   28.6060   66.8710 N.am  233  PHE233     -0.1976
     61  CA        18.9730   27.5580   67.6960 C.3   233  PHE233      0.1639
     62  C         18.8180   26.2390   66.9220 C.2   233  PHE233      0.2290
     63  O         19.3180   25.1900   67.3460 O.2   233  PHE233     -0.2864
     64  CB        17.5580   27.9660   68.1660 C.3   233  PHE233      0.0560
     65  CG        17.4810   29.1360   69.1310 C.ar  233  PHE233     -0.0200
     66  CD1       18.6050   29.7380   69.7170 C.ar  233  PHE233     -0.0042
     67  CD2       16.2180   29.6180   69.4900 C.ar  233  PHE233     -0.0042
     68  CE1       18.4450   30.8050   70.6020 C.ar  233  PHE233     -0.0003
     69  CE2       16.0700   30.6710   70.3860 C.ar  233  PHE233     -0.0003
     70  CZ        17.1800   31.2670   70.9430 C.ar  233  PHE233     -0.0000
     71  N         20.0750   25.6090   63.9540 N.3   235  PRO235     -0.2102
     72  CA        21.3860   25.1040   63.6480 C.3   235  PRO235      0.1504
     73  C         22.0320   24.2400   64.7500 C.2   235  PRO235      0.2575
     74  O         22.4740   23.1380   64.4470 O.2   235  PRO235     -0.2718
     75  CB        22.1630   26.3760   63.3340 C.3   235  PRO235      0.0282
     76  CG        21.1390   27.2020   62.6290 C.3   235  PRO235      0.0208
     77  CD        19.8380   26.9160   63.3230 C.3   235  PRO235      0.0893
     78  N         22.0300   24.6800   66.0110 N.am  236  GLN236     -0.1980
     79  CA        22.7170   23.8980   67.0940 C.3   236  GLN236      0.1601
     80  C         22.0700   22.5130   67.3580 C.2   236  GLN236      0.2287
     81  O         22.7650   21.5310   67.6170 O.2   236  GLN236     -0.2864
     82  CB        22.8230   24.7200   68.3630 C.3   236  GLN236      0.0394
     83  CG        23.4210   24.0230   69.5770 C.3   236  GLN236      0.0908
     84  CD        24.8100   23.4370   69.4170 C.2   236  GLN236      0.2608
     85  OE1       25.1820   22.5330   70.1600 O.2   236  GLN236     -0.2717
     86  NE2       25.5880   23.9560   68.5050 N.am  236  GLN236     -0.0878
     87  N         23.2940   20.3720   64.6560 N.3   239  SER239     -0.1217
     88  CA        24.6580   19.9440   65.0740 C.3   239  SER239      0.1889
     89  C         24.6870   18.6830   66.0250 C.2   239  SER239      0.2288
     90  O         25.7260   18.0110   66.1450 O.2   239  SER239     -0.2866
     91  CB        25.5040   21.1050   65.6830 C.3   239  SER239      0.2089
     92  OG        25.7350   20.9890   67.1310 O.3   239  SER239     -0.2183
     93  N         21.4660   23.4640   56.6070 N.3   257  ARG257     -0.1245
     94  CA        21.8330   22.6540   57.7830 C.3   257  ARG257      0.1563
     95  C         20.7160   21.7170   58.2630 C.2   257  ARG257      0.2260
     96  O         20.9590   20.9080   59.1420 O.2   257  ARG257     -0.2867
     97  CB        22.2650   23.5470   58.9610 C.3   257  ARG257      0.0307
     98  CG        23.2940   24.6240   58.6640 C.3   257  ARG257      0.0489
     99  CD        23.4340   25.6220   59.7980 C.3   257  ARG257      0.2205
    100  NE        24.4410   25.1800   60.7680 N.pl3 257  ARG257     -0.0865
    101  CZ        25.7600   25.4030   60.6970 C.cat 257  ARG257      0.5346
    102  NH1       26.5570   24.9340   61.6660 N.pl3 257  ARG257      0.1354
    103  NH2       26.3050   26.0890   59.6910 N.pl3 257  ARG257      0.1354
@<TRIPOS>BOND
     1    93    94    1
     2    94    95    1
     3    94    97    1
     4    95    96    2
     5    98    97    1
     6    98    99    1
     7   103   101    1
     8    99   100    1
     9   101   100    2
    10   101   102    1
    11    76    77    1
    12    76    75    1
    13    77    71    1
    14    75    72    1
    15    72    71    1
    16    72    73    1
    17    74    73    2
    18    87    88    1
    19    73    78   am
    20    88    91    1
    21    88    89    1
    22    33    34    1
    23    52    53    1
    24    53    56    1
    25    53    54    1
    26    91    92    1
    27    78    79    1
    28    56    57    1
    29    89    90    2
    30    37    34    1
    31    37    38    1
    32    34    35    1
    33    54    55    2
    34    54    60   am
    35    60    61    1
    36    62    63    2
    37    62    61    1
    38    79    80    1
    39    79    82    1
    40    57    58    1
    41    80    81    2
    42    38    40   ar
    43    38    39   ar
    44    40    42   ar
    45    35    36    2
    46    35    45   am
    47    61    64    1
    48    48    47    2
    49    47    46    1
    50    64    65    1
    51    39    41   ar
    52    82    83    1
    53    86    84   am
    54    46    45    1
    55    46    49    1
    56    45    51    1
    57    42    43   ar
    58    58    59    1
    59    65    67   ar
    60    65    66   ar
    61    84    83    1
    62    84    85    2
    63    41    43   ar
    64    67    69   ar
    65    43    44    1
    66    66    68   ar
    67    51    50    1
    68    49    50    1
    69    69    70   ar
    70    68    70   ar
    71    32    30    1
    72    31    30    1
    73    30    29    1
    74    28    27    2
    75    29    26    1
    76    26    27    1
    77    26    25    1
    78    14    13    1
    79     7     6    1
    80    12    11    2
    81    13    15    1
    82    13    10    1
    83    19    18    2
    84    11    16   am
    85    11    10    1
    86    17    16    1
    87    17    18    1
    88    17    20    1
    89    24    22   ar
    90     6     8    1
    91     6     5    1
    92    21    20    1
    93    21    22    1
    94    10     9    1
    95    22    23   ar
    96     5     2    1
    97     4     3    2
    98     2     3    1
    99     2     1    1
