@<TRIPOS>MOLECULE
tmp/6eo8B01.pdb
 242 241 0 0 0
SMALL
GASTEIGER

@<TRIPOS>ATOM
      1  N          2.2670   26.5640   20.0900 N.3    47  TYR47      -0.1241
      2  CA         2.6110   25.4890   19.1660 C.3    47  TYR47       0.1605
      3  C          2.0620   24.1610   19.7030 C.2    47  TYR47       0.2264
      4  O          2.8260   23.2820   20.1910 O.2    47  TYR47      -0.2867
      5  CB         4.1030   25.4200   18.8670 C.3    47  TYR47       0.0534
      6  CG         4.3830   24.6000   17.6560 C.ar   47  TYR47      -0.0201
      7  CD1        3.8080   24.9180   16.4390 C.ar   47  TYR47      -0.0009
      8  CD2        5.1660   23.4740   17.7330 C.ar   47  TYR47      -0.0009
      9  CE1        4.0470   24.1370   15.3110 C.ar   47  TYR47       0.0417
     10  CE2        5.4300   22.6880   16.6170 C.ar   47  TYR47       0.0417
     11  CZ         4.8720   23.0420   15.4160 C.ar   47  TYR47       0.1957
     12  OH         5.0990   22.2530   14.3450 O.3    47  TYR47      -0.2866
     13  N          3.9260   20.6730   19.9620 N.3    50  TRP50      -0.1241
     14  CA         4.9180   20.4520   21.0370 C.3    50  TRP50       0.1605
     15  C          4.3450   21.0450   22.2990 C.2    50  TRP50       0.2264
     16  O          5.0480   21.7130   23.0350 O.2    50  TRP50      -0.2867
     17  CB         6.2880   21.0810   20.7450 C.3    50  TRP50       0.0550
     18  CG         6.9360   20.6920   19.4700 C.ar   50  TRP50       0.0003
     19  CD1        6.6060   19.6440   18.6480 C.ar   50  TRP50       0.0946
     20  CD2        8.0660   21.3420   18.8490 C.ar   50  TRP50       0.0152
     21  NE1        7.4470   19.6090   17.5510 N.ar   50  TRP50      -0.2442
     22  CE2        8.3510   20.6350   17.6470 C.ar   50  TRP50       0.0810
     23  CE3        8.8690   22.4520   19.1930 C.ar   50  TRP50       0.0012
     24  CZ2        9.3970   21.0080   16.7810 C.ar   50  TRP50       0.0191
     25  CZ3        9.9130   22.8230   18.3280 C.ar   50  TRP50       0.0001
     26  CH2       10.1670   22.0950   17.1400 C.ar   50  TRP50       0.0015
     27  N         -0.5370   27.3890   12.4620 N.3    92  TRP92      -0.1227
     28  CA         0.2240   26.3870   13.1650 C.3    92  TRP92       0.1737
     29  C         -0.0680   24.9400   12.7380 C.2    92  TRP92       0.2595
     30  O          0.7470   24.0600   13.0580 O.2    92  TRP92      -0.2718
     31  CB         0.0840   26.5520   14.6690 C.3    92  TRP92       0.0564
     32  CG        -1.2520   26.4310   15.2030 C.ar   92  TRP92       0.0003
     33  CD1       -2.0950   27.4330   15.5290 C.ar   92  TRP92       0.0946
     34  CD2       -1.9280   25.2200   15.4620 C.ar   92  TRP92       0.0152
     35  NE1       -3.2370   26.9250   16.0430 N.ar   92  TRP92      -0.2442
     36  CE2       -3.1600   25.5580   16.0010 C.ar   92  TRP92       0.0810
     37  CE3       -1.5730   23.8650   15.3370 C.ar   92  TRP92       0.0012
     38  CZ2       -4.0900   24.5970   16.3660 C.ar   92  TRP92       0.0191
     39  CZ3       -2.4530   22.9110   15.7320 C.ar   92  TRP92       0.0001
     40  CH2       -3.7160   23.2740   16.2280 C.ar   92  TRP92       0.0015
     41  N         -1.2140   24.6930   12.0800 N.am   93  ARG93      -0.1966
     42  CA        -1.5210   23.3310   11.5380 C.3    93  ARG93       0.1729
     43  C         -0.6500   22.8980   10.3770 C.2    93  ARG93       0.2616
     44  O         -0.2930   21.7320   10.3130 O.2    93  ARG93      -0.2715
     45  CB        -2.9670   23.1780   11.1050 C.3    93  ARG93       0.0348
     46  CG        -3.9510   23.3020   12.2470 C.3    93  ARG93       0.0492
     47  CD        -5.2640   23.9150   11.7890 C.3    93  ARG93       0.2205
     48  NE        -5.9440   24.5650   12.8960 N.pl3  93  ARG93      -0.0865
     49  CZ        -6.6060   23.9340   13.8710 C.cat  93  ARG93       0.5346
     50  NH1       -6.6890   22.5950   13.9080 N.pl3  93  ARG93       0.1354
     51  NH2       -7.1930   24.6550   14.8400 N.pl3  93  ARG93       0.1354
     52  N         -0.2370   23.8210    9.5190 N.am   94  GLU94      -0.1963
     53  CA         0.2410   23.4560    8.2040 C.3    94  GLU94       0.1733
     54  C          1.7360   23.6720    8.0170 C.2    94  GLU94       0.2616
     55  O          2.5160   22.7010    8.0420 O.2    94  GLU94      -0.2715
     56  CB        -0.5830   24.2650    7.1900 C.3    94  GLU94       0.0429
     57  CG        -0.4940   23.8380    5.7280 C.3    94  GLU94       0.1163
     58  CD        -1.5020   24.5870    4.8240 C.2    94  GLU94       0.3649
     59  OE1       -2.6920   24.7410    5.2310 O.co2  94  GLU94      -0.2457
     60  OE2       -1.1060   25.0180    3.7080 O.co2  94  GLU94      -0.2457
     61  N          2.1240   24.9470    7.8380 N.am   95  ASN95      -0.1958
     62  CA         3.4810   25.3460    7.4040 C.3    95  ASN95       0.1819
     63  C          4.1020   26.5560    8.2060 C.2    95  ASN95       0.2621
     64  O          5.1580   27.0990    7.8400 O.2    95  ASN95      -0.2715
     65  CB         3.4410   25.6850    5.9220 C.3    95  ASN95       0.1195
     66  CG         2.3550   26.6850    5.5510 C.2    95  ASN95       0.2630
     67  OD1        1.6540   27.2790    6.4100 O.2    95  ASN95      -0.2716
     68  ND2        2.1970   26.8770    4.2290 N.am   95  ASN95      -0.0877
     69  N          3.4140   26.9630    9.2810 N.am   96  LEU96      -0.1977
     70  CA         3.7750   28.1490   10.0750 C.3    96  LEU96       0.1596
     71  C          3.6730   29.4800    9.2910 C.2    96  LEU96       0.2287
     72  O          4.4830   30.4120    9.4920 O.2    96  LEU96      -0.2864
     73  CB         5.1380   27.9490   10.7330 C.3    96  LEU96       0.0297
     74  CG         5.1720   26.8800   11.7950 C.3    96  LEU96       0.0022
     75  CD1        6.6250   26.5730   12.1910 C.3    96  LEU96       0.0001
     76  CD2        4.3940   27.2770   13.0230 C.3    96  LEU96       0.0001
     77  N         22.2750   19.8910   15.9720 N.3   146  GLU146     -0.1245
     78  CA        21.0700   19.0820   16.0020 C.3   146  GLU146      0.1567
     79  C         21.3200   17.8450   16.8810 C.2   146  GLU146      0.2260
     80  O         20.4840   17.5630   17.7390 O.2   146  GLU146     -0.2867
     81  CB        20.7290   18.6700   14.5690 C.3   146  GLU146      0.0388
     82  CG        19.3280   18.1700   14.3380 C.3   146  GLU146      0.1160
     83  CD        19.2160   17.4290   13.0190 C.2   146  GLU146      0.3649
     84  OE1       18.5250   16.3960   12.9840 O.co2 146  GLU146     -0.2457
     85  OE2       19.8000   17.8690   12.0030 O.co2 146  GLU146     -0.2457
     86  N         12.3160   21.0660    0.1880 N.3   168  THR168     -0.1203
     87  CA        11.3760   20.5940    1.2200 C.3   168  THR168      0.1994
     88  C         10.0730   20.1830    0.5760 C.2   168  THR168      0.2618
     89  O          9.7140   20.6620   -0.5500 O.2   168  THR168     -0.2717
     90  CB        11.0270   21.7650    2.2300 C.3   168  THR168      0.1784
     91  OG1       10.2130   21.3070    3.3200 O.3   168  THR168     -0.2211
     92  CG2       10.2540   22.9240    1.5150 C.3   168  THR168      0.0376
     93  N          9.3170   19.3630    1.2990 N.am  169  ARG169     -0.1965
     94  CA         8.0220   19.0100    0.8400 C.3   169  ARG169      0.1729
     95  C          6.9910   19.8420    1.5130 C.2   169  ARG169      0.2616
     96  O          5.8560   19.7970    1.1290 O.2   169  ARG169     -0.2715
     97  CB         7.7360   17.4940    0.9450 C.3   169  ARG169      0.0348
     98  CG         7.8470   16.8450    2.3030 C.3   169  ARG169      0.0492
     99  CD         8.3370   15.4010    2.1870 C.3   169  ARG169      0.2205
    100  NE         7.3420   14.5080    1.5970 N.pl3 169  ARG169     -0.0865
    101  CZ         7.4510   13.1690    1.5860 C.cat 169  ARG169      0.5346
    102  NH1        8.5370   12.5360    2.1060 N.pl3 169  ARG169      0.1354
    103  NH2        6.4870   12.4360    1.0270 N.pl3 169  ARG169      0.1354
    104  N          7.3710   20.6860    2.4550 N.am  170  ILE170     -0.1977
    105  CA         6.4070   21.6420    2.9640 C.3   170  ILE170      0.1596
    106  C          6.0650   22.6920    1.9020 C.2   170  ILE170      0.2287
    107  O          6.9270   23.1130    1.1330 O.2   170  ILE170     -0.2864
    108  CB         6.9150   22.3360    4.2540 C.3   170  ILE170      0.0276
    109  CG1        7.1430   21.3130    5.3920 C.3   170  ILE170      0.0022
    110  CG2        5.9380   23.4260    4.6960 C.3   170  ILE170      0.0022
    111  CD1        5.8540   20.7730    6.0310 C.3   170  ILE170      0.0001
    112  N         23.5030   27.6550   10.6140 N.3   190  ASP190     -0.1225
    113  CA        22.0440   27.6480   10.6850 C.3   190  ASP190      0.1805
    114  C         21.5790   28.0550   12.0730 C.2   190  ASP190      0.2598
    115  O         22.3560   28.0840   13.0070 O.2   190  ASP190     -0.2718
    116  CB        21.4850   26.2810   10.3460 C.3   190  ASP190      0.1424
    117  CG        19.9920   26.2860   10.0340 C.2   190  ASP190      0.3668
    118  OD1       19.3520   27.3570    9.9280 O.co2 190  ASP190     -0.2456
    119  OD2       19.4510   25.1670    9.8370 O.co2 190  ASP190     -0.2456
    120  N         20.3010   28.4020   12.1900 N.am  191  ALA191     -0.1966
    121  CA        19.6940   28.5050   13.5010 C.3   191  ALA191      0.1728
    122  C         19.4350   27.0690   13.9530 C.2   191  ALA191      0.2616
    123  O         19.5460   26.1270   13.1400 O.2   191  ALA191     -0.2715
    124  CB        18.4030   29.2950   13.4210 C.3   191  ALA191      0.0334
    125  N         19.0900   26.9180   15.2090 N.am  192  CYS192     -0.1954
    126  CA        18.6780   25.6370   15.7620 C.3   192  CYS192      0.1843
    127  C         17.7370   25.8630   16.9280 C.2   192  CYS192      0.2625
    128  O         17.3330   27.0070   17.1910 O.2   192  CYS192     -0.2714
    129  CB        19.8930   24.8300   16.2000 C.3   192  CYS192      0.0997
    130  SG        19.6180   23.0140   16.3090 S.3   192  CYS192     -0.0797
    131  N         17.4240   24.7910   17.6720 N.am  193  GLU193     -0.1977
    132  CA        16.3510   24.8800   18.6850 C.3   193  GLU193      0.1602
    133  C         16.7980   25.7660   19.8240 C.2   193  GLU193      0.2287
    134  O         17.9390   25.6280   20.2920 O.2   193  GLU193     -0.2864
    135  CB        16.0320   23.4780   19.2410 C.3   193  GLU193      0.0415
    136  CG        14.8550   23.4240   20.2310 C.3   193  GLU193      0.1163
    137  CD        14.8470   22.0790   20.9740 C.2   193  GLU193      0.3649
    138  OE1       15.2630   21.0460   20.3750 O.co2 193  GLU193     -0.2457
    139  OE2       14.4630   22.0510   22.1590 O.co2 193  GLU193     -0.2457
    140  N         14.7650   30.1270   17.7650 N.3   196  SER196     -0.1217
    141  CA        13.5540   30.5030   17.0490 C.3   196  SER196      0.1889
    142  C         12.8100   31.6520   17.7800 C.2   196  SER196      0.2288
    143  O         12.9160   31.8300   19.0230 O.2   196  SER196     -0.2866
    144  CB        12.6500   29.2690   16.7590 C.3   196  SER196      0.2089
    145  OG        11.9590   28.8140   17.9200 O.3   196  SER196     -0.2183
    146  N         13.1900   34.1050   12.8890 N.3   216  VAL216     -0.1231
    147  CA        13.6400   32.6950   12.8300 C.3   216  VAL216      0.1692
    148  C         12.3990   31.8100   13.0310 C.2   216  VAL216      0.2593
    149  O         11.7170   31.9340   14.0570 O.2   216  VAL216     -0.2718
    150  CB        14.6810   32.3700   13.9170 C.3   216  VAL216      0.0266
    151  CG1       15.1290   30.8750   13.8690 C.3   216  VAL216      0.0020
    152  CG2       15.9330   33.2620   13.8480 C.3   216  VAL216      0.0020
    153  N         12.0780   30.9650   12.0500 N.am  217  SER217     -0.1938
    154  CA        10.7600   30.3230   12.0570 C.3   217  SER217      0.2055
    155  C         10.8380   28.8440   12.1820 C.2   217  SER217      0.2643
    156  O         10.4020   28.2960   13.2090 O.2   217  SER217     -0.2714
    157  CB         9.8490   30.7420   10.9170 C.3   217  SER217      0.2130
    158  OG         8.5430   30.2060   11.1530 O.3   217  SER217     -0.2179
    159  N         11.3860   28.1840   11.1770 N.am  218  TRP218     -0.1959
    160  CA        11.5910   26.7250   11.2950 C.3   218  TRP218      0.1771
    161  C         12.6730   26.2470   10.3810 C.2   218  TRP218      0.2620
    162  O         13.1700   26.9910    9.5160 O.2   218  TRP218     -0.2715
    163  CB        10.3100   25.9740   10.9770 C.3   218  TRP218      0.0590
    164  CG         9.6460   26.3250    9.6210 C.ar  218  TRP218      0.0006
    165  CD1        8.7780   27.3520    9.3680 C.ar  218  TRP218      0.0946
    166  CD2        9.7590   25.6020    8.4000 C.ar  218  TRP218      0.0152
    167  NE1        8.3670   27.3260    8.0640 N.ar  218  TRP218     -0.2442
    168  CE2        8.9330   26.2360    7.4580 C.ar  218  TRP218      0.0810
    169  CE3       10.4630   24.4670    8.0200 C.ar  218  TRP218      0.0012
    170  CZ2        8.8230   25.7990    6.1480 C.ar  218  TRP218      0.0191
    171  CZ3       10.3620   24.0260    6.7080 C.ar  218  TRP218      0.0001
    172  CH2        9.5300   24.6850    5.7890 C.ar  218  TRP218      0.0015
    173  N         13.0520   24.9810   10.6220 N.am  219  GLY219     -0.1940
    174  CA        13.9600   24.2340    9.7960 C.3   219  GLY219      0.2014
    175  C         13.7840   22.7400   10.0710 C.2   219  GLY219      0.2639
    176  O         13.2850   22.3610   11.1180 O.2   219  GLY219     -0.2714
    177  N         14.2320   21.9400    9.1180 N.am  220  GLU220     -0.1963
    178  CA        14.1140   20.4830    9.1360 C.3   220  GLU220      0.1733
    179  C         15.4780   19.8800    9.4550 C.2   220  GLU220      0.2617
    180  O         16.4190   19.7760    8.6490 O.2   220  GLU220     -0.2715
    181  CB        13.5630   20.0030    7.7760 C.3   220  GLU220      0.0429
    182  CG        12.0800   20.2790    7.6120 C.3   220  GLU220      0.1163
    183  CD        11.5160   20.0640    6.2000 C.2   220  GLU220      0.3649
    184  OE1       12.1230   20.5380    5.2140 O.co2 220  GLU220     -0.2457
    185  OE2       10.4270   19.4280    6.1420 O.co2 220  GLU220     -0.2457
    186  N         15.7350   19.9070   11.0910 N.am  221  GLY221     -0.1940
    187  CA        17.1380   19.7390   11.4640 C.3   221  GLY221      0.2014
    188  C         17.7590   21.1110   11.6320 C.2   221  GLY221      0.2639
    189  O         17.0530   22.1320   11.6050 O.2   221  GLY221     -0.2714
    190  N         19.0750   21.1120   11.7760 N.am  222  CYS222     -0.1967
    191  CA        19.8480   22.3160   11.9760 C.3   222  CYS222      0.1712
    192  C         21.0600   22.0690   11.1490 C.2   222  CYS222      0.2296
    193  O         21.7870   21.0770   11.3700 O.2   222  CYS222     -0.2864
    194  CB        20.2240   22.4900   13.4440 C.3   222  CYS222      0.0983
    195  SG        18.7780   22.5670   14.4830 S.3   222  CYS222     -0.0798
    196  N         21.6060   20.9610    8.0970 N.3   224  ARG224     -0.1245
    197  CA        21.6940   19.8080    7.1610 C.3   224  ARG224      0.1563
    198  C         22.0310   20.3160    5.7860 C.2   224  ARG224      0.2260
    199  O         21.5320   21.3960    5.3750 O.2   224  ARG224     -0.2867
    200  CB        20.3600   19.0890    7.0830 C.3   224  ARG224      0.0307
    201  CG        19.9430   18.5580    8.4240 C.3   224  ARG224      0.0489
    202  CD        19.1560   17.2770    8.3260 C.3   224  ARG224      0.2205
    203  NE        18.4190   17.0590    9.5670 N.pl3 224  ARG224     -0.0865
    204  CZ        17.3060   16.3500    9.6850 C.cat 224  ARG224      0.5346
    205  NH1       16.7530   15.7460    8.6370 N.pl3 224  ARG224      0.1354
    206  NH2       16.7060   16.2890   10.8680 N.pl3 224  ARG224      0.1354
    207  N         19.2220   21.5140    3.0870 N.3   227  LYS227     -0.1245
    208  CA        18.1260   22.1490    3.8010 C.3   227  LYS227      0.1561
    209  C         18.4750   23.5980    4.0970 C.2   227  LYS227      0.2260
    210  O         19.6420   23.9910    4.0970 O.2   227  LYS227     -0.2867
    211  CB        17.7830   21.3930    5.0770 C.3   227  LYS227      0.0271
    212  CG        17.5680   19.8740    4.8800 C.3   227  LYS227      0.0035
    213  CD        16.4250   19.5310    3.9560 C.3   227  LYS227      0.0206
    214  CE        15.0680   19.7030    4.6550 C.3   227  LYS227      0.1093
    215  NZ        13.9510   19.0280    3.9440 N.3   227  LYS227     -0.1314
    216  N         17.0690   27.2880    6.5500 N.3   229  GLY229     -0.1210
    217  CA        16.1780   27.8200    7.5780 C.3   229  GLY229      0.1956
    218  C         15.1230   28.7000    6.9460 C.2   229  GLY229      0.2612
    219  O         15.3970   29.4430    5.9650 O.2   229  GLY229     -0.2717
    220  N         13.9220   28.6710    7.5350 N.am  230  PHE230     -0.1962
    221  CA        12.8320   29.4620    7.0600 C.3   230  PHE230      0.1771
    222  C         12.6100   30.5890    8.0530 C.2   230  PHE230      0.2619
    223  O         12.6450   30.3770    9.2510 O.2   230  PHE230     -0.2715
    224  CB        11.5540   28.6140    6.7570 C.3   230  PHE230      0.0574
    225  CG        11.6620   27.8640    5.4650 C.ar  230  PHE230     -0.0200
    226  CD1       12.4320   26.7080    5.3830 C.ar  230  PHE230     -0.0042
    227  CD2       11.1620   28.3860    4.3040 C.ar  230  PHE230     -0.0042
    228  CE1       12.6190   26.0390    4.1540 C.ar  230  PHE230     -0.0003
    229  CE2       11.3060   27.7250    3.1120 C.ar  230  PHE230     -0.0003
    230  CZ        12.0560   26.5800    3.0270 C.ar  230  PHE230     -0.0000
    231  N         12.3420   31.7640    7.4910 N.am  231  TYR231     -0.1974
    232  CA        12.1740   33.0190    8.1990 C.3   231  TYR231      0.1639
    233  C         10.8400   33.6710    7.8120 C.2   231  TYR231      0.2290
    234  O         10.5590   33.8180    6.6450 O.2   231  TYR231     -0.2864
    235  CB        13.3810   33.9490    7.8840 C.3   231  TYR231      0.0560
    236  CG        14.6910   33.3290    8.3020 C.ar  231  TYR231     -0.0198
    237  CD1       15.3190   32.3380    7.5140 C.ar  231  TYR231     -0.0009
    238  CD2       15.2540   33.6200    9.5390 C.ar  231  TYR231     -0.0009
    239  CE1       16.5070   31.7700    7.9280 C.ar  231  TYR231      0.0417
    240  CE2       16.4200   33.0350    9.9290 C.ar  231  TYR231      0.0417
    241  CZ        17.0010   32.0870    9.1470 C.ar  231  TYR231      0.1957
    242  OH        18.1400   31.5080    9.6240 O.3   231  TYR231     -0.2866
@<TRIPOS>BOND
     1    89    88    2
     2    86    87    1
     3    88    87    1
     4    88    93   am
     5    94    97    1
     6    94    93    1
     7    94    95    1
     8    97    98    1
     9   103   101    1
    10    96    95    2
    11   107   106    2
    12    87    90    1
    13    95   104   am
    14    92    90    1
    15   101   100    2
    16   101   102    1
    17   100    99    1
    18   106   105    1
    19    99    98    1
    20    90    91    1
    21   104   105    1
    22   105   108    1
    23   230   229   ar
    24   230   228   ar
    25   207   208    1
    26   229   227   ar
    27    60    58   ar
    28   208   209    1
    29   208   211    1
    30   215   214    1
    31   213   214    1
    32   213   212    1
    33   209   210    2
    34   228   226   ar
    35    68    66   am
    36   108   110    1
    37   108   109    1
    38   227   225   ar
    39    58    59   ar
    40    58    57    1
    41   212   211    1
    42   184   183   ar
    43   199   198    2
    44   226   225   ar
    45   109   111    1
    46   225   224    1
    47    66    65    1
    48    66    67    2
    49    57    56    1
    50   198   197    1
    51   172   170   ar
    52   172   171   ar
    53    65    62    1
    54   219   218    2
    55   185   183   ar
    56   170   168   ar
    57   183   182    1
    58   216   217    1
    59   234   233    2
    60   171   169   ar
    61   224   221    1
    62   218   220   am
    63   218   217    1
    64   221   220    1
    65   221   222    1
    66   200   197    1
    67   200   201    1
    68   197   196    1
    69    56    53    1
    70    62    61    1
    71    62    63    1
    72   168   167   ar
    73   168   166   ar
    74   231   222   am
    75   231   232    1
    76   237   239   ar
    77   237   236   ar
    78   182   181    1
    79   181   178    1
    80   233   232    1
    81    61    54   am
    82    64    63    2
    83   235   232    1
    84   235   236    1
    85   239   241   ar
    86    54    55    2
    87    54    53    1
    88   169   166   ar
    89   222   223    2
    90   167   165   ar
    91    53    52    1
    92    63    69   am
    93   236   238   ar
    94   202   201    1
    95   202   203    1
    96   166   164   ar
    97   205   204    1
    98   180   179    2
    99   177   178    1
   100   177   175   am
   101   178   179    1
   102   241   242    1
   103   241   240   ar
   104    69    70    1
   105    71    72    2
   106    71    70    1
   107   165   164   ar
   108   179   186   am
   109   162   161    2
   110    52    43   am
   111   238   240   ar
   112   203   204    2
   113   164   163    1
   114   204   206    1
   115   174   175    1
   116   174   173    1
   117   119   117   ar
   118   118   117   ar
   119   117   116    1
   120   175   176    2
   121    70    73    1
   122    44    43    2
   123   116   113    1
   124    43    42    1
   125   161   173   am
   126   161   160    1
   127   112   113    1
   128   113   114    1
   129    73    74    1
   130   157   158    1
   131   157   154    1
   132   163   160    1
   133   186   187    1
   134    45    42    1
   135    45    46    1
   136   192   193    2
   137   192   191    1
   138   159   160    1
   139   159   155   am
   140   187   188    1
   141    42    41    1
   142   189   188    2
   143   188   190   am
   144   190   191    1
   145    47    46    1
   146    47    48    1
   147    74    75    1
   148    74    76    1
   149   191   194    1
   150    85    83   ar
   151   153   154    1
   152   153   148   am
   153   154   155    1
   154   114   120   am
   155   114   115    2
   156    41    29   am
   157   155   156    2
   158   120   121    1
   159    27    28    1
   160    29    30    2
   161    29    28    1
   162   147   146    1
   163   147   148    1
   164   147   150    1
   165    48    49    2
   166    84    83   ar
   167    83    82    1
   168   148   149    2
   169   123   122    2
   170    28    31    1
   171   124   121    1
   172   194   195    1
   173   121   122    1
   174   152   150    1
   175   151   150    1
   176    49    50    1
   177    49    51    1
   178   122   125   am
   179    82    81    1
   180    12    11    1
   181   195   130    1
   182    81    78    1
   183    31    32    1
   184    32    34   ar
   185    32    33   ar
   186   125   126    1
   187     9    11   ar
   188     9     7   ar
   189    37    34   ar
   190    37    39   ar
   191    11    10   ar
   192    34    36   ar
   193    33    35   ar
   194    39    40   ar
   195   126   129    1
   196   126   127    1
   197    77    78    1
   198    36    35   ar
   199    36    38   ar
   200    78    79    1
   201   129   130    1
   202    40    38   ar
   203     7     6   ar
   204    10     8   ar
   205   144   141    1
   206   144   145    1
   207    24    26   ar
   208    24    22   ar
   209    79    80    2
   210   127   128    2
   211   127   131   am
   212   141   140    1
   213   141   142    1
   214    26    25   ar
   215    21    22   ar
   216    21    19   ar
   217    22    20   ar
   218     6     8   ar
   219     6     5    1
   220   131   132    1
   221   142   143    2
   222    25    23   ar
   223    19    18   ar
   224   132   135    1
   225   132   133    1
   226    20    23   ar
   227    20    18   ar
   228     5     2    1
   229     2     3    1
   230     2     1    1
   231   135   136    1
   232    18    17    1
   233     3     4    2
   234   133   134    2
   235    13    14    1
   236   136   137    1
   237   138   137   ar
   238    17    14    1
   239   137   139   ar
   240    14    15    1
   241    15    16    2
