@<TRIPOS>MOLECULE
tmp/6eo9A01.pdb
 241 241 0 0 0
SMALL
GASTEIGER

@<TRIPOS>ATOM
      1  N          2.0270   -9.2230   20.0520 N.3    47  TYR47      -0.1241
      2  CA         2.3720  -10.3240   19.1870 C.3    47  TYR47       0.1605
      3  C          1.7210  -11.6270   19.7340 C.2    47  TYR47       0.2264
      4  O          2.3940  -12.5310   20.2890 O.2    47  TYR47      -0.2867
      5  CB         3.8710  -10.4660   18.9500 C.3    47  TYR47       0.0534
      6  CG         4.1890  -11.3310   17.7550 C.ar   47  TYR47      -0.0201
      7  CD1        3.7500  -10.9820   16.4670 C.ar   47  TYR47      -0.0009
      8  CD2        4.9110  -12.4850   17.8930 C.ar   47  TYR47      -0.0009
      9  CE1        4.0330  -11.7930   15.3770 C.ar   47  TYR47       0.0417
     10  CE2        5.2100  -13.2920   16.8090 C.ar   47  TYR47       0.0417
     11  CZ         4.7740  -12.9080   15.5510 C.ar   47  TYR47       0.1957
     12  OH         5.0260  -13.7260   14.5280 O.3    47  TYR47      -0.2866
     13  N          3.3220  -15.1700   20.3500 N.3    50  TRP50      -0.1241
     14  CA         4.2880  -15.3780   21.4310 C.3    50  TRP50       0.1605
     15  C          3.5800  -15.2510   22.7770 C.2    50  TRP50       0.2264
     16  O          4.2260  -15.4160   23.8040 O.2    50  TRP50      -0.2867
     17  CB         5.3990  -14.3060   21.4200 C.3    50  TRP50       0.0550
     18  CG         6.6120  -14.3770   20.4790 C.ar   50  TRP50       0.0003
     19  CD1        7.7090  -13.5300   20.5400 C.ar   50  TRP50       0.0946
     20  CD2        6.8710  -15.2610   19.3740 C.ar   50  TRP50       0.0152
     21  NE1        8.6110  -13.8280   19.5510 N.ar   50  TRP50      -0.2442
     22  CE2        8.1320  -14.8840   18.8210 C.ar   50  TRP50       0.0810
     23  CE3        6.1770  -16.3220   18.7900 C.ar   50  TRP50       0.0012
     24  CZ2        8.6930  -15.5290   17.7160 C.ar   50  TRP50       0.0191
     25  CZ3        6.7460  -16.9720   17.6860 C.ar   50  TRP50       0.0001
     26  CH2        7.9920  -16.5700   17.1660 C.ar   50  TRP50       0.0015
     27  N         -0.6280   -8.5730   12.4220 N.3    92  TRP92      -0.1227
     28  CA         0.2000   -9.5550   13.0640 C.3    92  TRP92       0.1737
     29  C         -0.1110  -10.9730   12.6250 C.2    92  TRP92       0.2595
     30  O          0.6750  -11.8660   12.9390 O.2    92  TRP92      -0.2718
     31  CB         0.0710   -9.4730   14.5730 C.3    92  TRP92       0.0564
     32  CG        -1.2750   -9.5080   15.0820 C.ar   92  TRP92       0.0003
     33  CD1       -2.0480   -8.4470   15.4040 C.ar   92  TRP92       0.0946
     34  CD2       -2.0430  -10.6740   15.3420 C.ar   92  TRP92       0.0152
     35  NE1       -3.2570   -8.8770   15.8700 N.ar   92  TRP92      -0.2442
     36  CE2       -3.2760  -10.2410   15.8500 C.ar   92  TRP92       0.0810
     37  CE3       -1.7880  -12.0440   15.2310 C.ar   92  TRP92       0.0012
     38  CZ2       -4.3050  -11.1320   16.2150 C.ar   92  TRP92       0.0191
     39  CZ3       -2.7960  -12.9480   15.6320 C.ar   92  TRP92       0.0001
     40  CH2       -4.0340  -12.4720   16.1210 C.ar   92  TRP92       0.0015
     41  N         -1.2750  -11.1700   12.0010 N.am   93  ARG93      -0.1966
     42  CA        -1.7060  -12.5130   11.5630 C.3    93  ARG93       0.1729
     43  C         -0.9160  -13.0180   10.3840 C.2    93  ARG93       0.2616
     44  O         -0.7880  -14.2290   10.2870 O.2    93  ARG93      -0.2715
     45  CB        -3.1780  -12.5680   11.2110 C.3    93  ARG93       0.0348
     46  CG        -4.0900  -12.2350   12.3570 C.3    93  ARG93       0.0492
     47  CD        -5.5290  -12.1890   11.9000 C.3    93  ARG93       0.2205
     48  NE        -6.4760  -12.0670   13.0020 N.pl3  93  ARG93      -0.0865
     49  CZ        -6.7750  -10.9220   13.6310 C.cat  93  ARG93       0.5346
     50  NH1       -6.1590   -9.7690   13.3050 N.pl3  93  ARG93       0.1354
     51  NH2       -7.6750  -10.9240   14.6280 N.pl3  93  ARG93       0.1354
     52  N         -0.3210  -12.1280    9.5500 N.am   94  GLU94      -0.1963
     53  CA         0.2920  -12.5310    8.2780 C.3    94  GLU94       0.1733
     54  C          1.7430  -12.1460    8.0050 C.2    94  GLU94       0.2616
     55  O          2.6030  -13.0270    7.8820 O.2    94  GLU94      -0.2715
     56  CB        -0.5710  -12.0190    7.1330 C.3    94  GLU94       0.0429
     57  CG        -1.8630  -12.8120    6.9570 C.3    94  GLU94       0.1163
     58  CD        -3.0270  -11.9270    6.5940 C.2    94  GLU94       0.3649
     59  OE1       -3.1710  -11.6250    5.3970 O.co2  94  GLU94      -0.2457
     60  OE2       -3.7870  -11.5240    7.5110 O.co2  94  GLU94      -0.2457
     61  N          1.9980  -10.8510    7.7940 N.am   95  ASN95      -0.1958
     62  CA         3.3060  -10.4210    7.3310 C.3    95  ASN95       0.1819
     63  C          3.8870   -9.2620    8.1590 C.2    95  ASN95       0.2621
     64  O          4.9380   -8.7100    7.7870 O.2    95  ASN95      -0.2715
     65  CB         3.2640  -10.0420    5.8420 C.3    95  ASN95       0.1195
     66  CG         2.1350   -9.1430    5.4980 C.2    95  ASN95       0.2630
     67  OD1        1.4270   -8.6040    6.3750 O.2    95  ASN95      -0.2716
     68  ND2        1.9500   -8.9440    4.1900 N.am   95  ASN95      -0.0877
     69  N          3.2270   -8.8960    9.2640 N.am   96  LEU96      -0.1977
     70  CA         3.6550   -7.7250   10.0540 C.3    96  LEU96       0.1596
     71  C          3.5340   -6.3860    9.2820 C.2    96  LEU96       0.2287
     72  O          4.3070   -5.4250    9.5170 O.2    96  LEU96      -0.2864
     73  CB         5.0840   -8.0320   10.5810 C.3    96  LEU96       0.0297
     74  CG         5.1830   -8.3280   12.0850 C.3    96  LEU96       0.0022
     75  CD1        4.0630   -9.1810   12.6320 C.3    96  LEU96       0.0001
     76  CD2        6.5640   -8.9010   12.4390 C.3    96  LEU96       0.0001
     77  N         22.3180  -16.2320   16.0120 N.3   146  GLU146     -0.1245
     78  CA        21.1710  -17.1460   16.1830 C.3   146  GLU146      0.1567
     79  C         21.3570  -18.1790   17.3000 C.2   146  GLU146      0.2260
     80  O         20.4080  -18.4850   18.0120 O.2   146  GLU146     -0.2867
     81  CB        20.8970  -17.9030   14.8870 C.3   146  GLU146      0.0388
     82  CG        19.8030  -17.3190   14.0620 C.3   146  GLU146      0.1160
     83  CD        19.5470  -18.1580   12.8450 C.2   146  GLU146      0.3649
     84  OE1       19.8770  -17.7100   11.7340 O.co2 146  GLU146     -0.2457
     85  OE2       19.0170  -19.2730   13.0260 O.co2 146  GLU146     -0.2457
     86  N          9.3700  -16.6190    1.4240 N.3   171  ARG171     -0.1231
     87  CA         8.0300  -17.0440    1.1080 C.3   171  ARG171      0.1694
     88  C          6.9910  -16.0530    1.5770 C.2   171  ARG171      0.2592
     89  O          5.8620  -16.1820    1.2340 O.2   171  ARG171     -0.2718
     90  CB         7.7140  -18.3880    1.7720 C.3   171  ARG171      0.0321
     91  CG         8.6010  -19.5160    1.2880 C.3   171  ARG171      0.0489
     92  CD         8.4240  -20.7720    2.1150 C.3   171  ARG171      0.2205
     93  NE         7.2580  -21.4860    1.6340 N.pl3 171  ARG171     -0.0865
     94  CZ         7.1230  -22.8080    1.6260 C.cat 171  ARG171      0.5346
     95  NH1        8.0870  -23.6260    2.0830 N.pl3 171  ARG171      0.1354
     96  NH2        5.9980  -23.3160    1.1400 N.pl3 171  ARG171      0.1354
     97  N          7.3610  -15.0700    2.4100 N.am  172  ILE172     -0.1966
     98  CA         6.4240  -14.0850    2.9170 C.3   172  ILE172      0.1727
     99  C          6.1030  -13.1100    1.8520 C.2   172  ILE172      0.2616
    100  O          6.9720  -12.7650    1.0420 O.2   172  ILE172     -0.2715
    101  CB         6.9590  -13.3480    4.2010 C.3   172  ILE172      0.0290
    102  CG1        7.3780  -14.3560    5.2660 C.3   172  ILE172      0.0022
    103  CG2        5.9160  -12.3980    4.7770 C.3   172  ILE172      0.0023
    104  CD1        6.4340  -15.5080    5.3510 C.3   172  ILE172      0.0001
    105  N          4.8320  -12.7150    1.8190 N.am  173  ARG173     -0.1977
    106  CA         4.3880  -11.7040    0.8850 C.3   173  ARG173      0.1597
    107  C          4.7170  -10.3010    1.4990 C.2   173  ARG173      0.2287
    108  O          4.1600   -9.9060    2.5110 O.2   173  ARG173     -0.2864
    109  CB         2.9170  -11.8830    0.5840 C.3   173  ARG173      0.0334
    110  CG         2.6000  -13.2310   -0.0870 C.3   173  ARG173      0.0492
    111  CD         2.9470  -13.2100   -1.5780 C.3   173  ARG173      0.2205
    112  NE         1.9790  -12.3420   -2.2540 N.pl3 173  ARG173     -0.0865
    113  CZ         0.7640  -12.7120   -2.6480 C.cat 173  ARG173      0.5346
    114  NH1        0.3580  -13.9720   -2.4940 N.pl3 173  ARG173      0.1354
    115  NH2       -0.0440  -11.8180   -3.2310 N.pl3 173  ARG173      0.1354
    116  N         23.3960   -8.2820   10.5110 N.3   192  ASP192     -0.1225
    117  CA        21.9370   -8.3210   10.5950 C.3   192  ASP192      0.1805
    118  C         21.5200   -7.9070   11.9990 C.2   192  ASP192      0.2598
    119  O         22.3490   -7.8970   12.9140 O.2   192  ASP192     -0.2718
    120  CB        21.4450   -9.7200   10.2920 C.3   192  ASP192      0.1424
    121  CG        19.9740   -9.7890    9.9320 C.2   192  ASP192      0.3668
    122  OD1       19.2860   -8.7490    9.6800 O.co2 192  ASP192     -0.2456
    123  OD2       19.5080  -10.9460    9.8570 O.co2 192  ASP192     -0.2456
    124  N         20.2390   -7.5400   12.1500 N.am  193  ALA193     -0.1966
    125  CA        19.6040   -7.4350   13.4120 C.3   193  ALA193      0.1728
    126  C         19.3300   -8.9000   13.8240 C.2   193  ALA193      0.2616
    127  O         19.4260   -9.8110   13.0130 O.2   193  ALA193     -0.2715
    128  CB        18.2900   -6.6510   13.3070 C.3   193  ALA193      0.0334
    129  N         19.0950   -9.0690   15.1090 N.am  194  CYS194     -0.1954
    130  CA        18.7900  -10.3810   15.6930 C.3   194  CYS194      0.1843
    131  C         17.8270  -10.1410   16.8190 C.2   194  CYS194      0.2625
    132  O         17.3780   -9.0200   17.0020 O.2   194  CYS194     -0.2714
    133  CB        20.0520  -11.1070   16.1400 C.3   194  CYS194      0.0997
    134  SG        19.7970  -12.9250   16.2610 S.3   194  CYS194     -0.0797
    135  N         17.5110  -11.1730   17.6100 N.am  195  GLU195     -0.1963
    136  CA        16.4490  -11.0680   18.6320 C.3   195  GLU195      0.1733
    137  C         16.8310  -10.0780   19.7280 C.2   195  GLU195      0.2616
    138  O         17.9470  -10.1760   20.2260 O.2   195  GLU195     -0.2715
    139  CB        16.2420  -12.4810   19.2740 C.3   195  GLU195      0.0429
    140  CG        15.1800  -12.5640   20.3880 C.3   195  GLU195      0.1163
    141  CD        14.9240  -14.0200   20.8750 C.2   195  GLU195      0.3649
    142  OE1       15.0420  -14.9560   20.0390 O.co2 195  GLU195     -0.2457
    143  OE2       14.6100  -14.2340   22.0850 O.co2 195  GLU195     -0.2457
    144  N         15.8860   -9.2360   20.1500 N.am  196  GLY196     -0.1955
    145  CA        16.0980   -8.1640   21.0760 C.3   196  GLY196      0.1869
    146  C         16.3820   -6.8070   20.3740 C.2   196  GLY196      0.2309
    147  O         16.1780   -5.7740   20.9970 O.2   196  GLY196     -0.2863
    148  N         14.6120   -5.8730   17.5440 N.3   198  SER198     -0.1217
    149  CA        13.4090   -5.3400   16.9610 C.3   198  SER198      0.1889
    150  C         12.8330   -4.1320   17.7490 C.2   198  SER198      0.2288
    151  O         12.9750   -3.9840   18.9710 O.2   198  SER198     -0.2866
    152  CB        12.3450   -6.4280   16.6690 C.3   198  SER198      0.2089
    153  OG        11.8180   -6.9630   17.8700 O.3   198  SER198     -0.2183
    154  N         13.2280   -1.7750   12.8840 N.3   218  VAL218     -0.1231
    155  CA        13.6040   -3.1850   12.8230 C.3   218  VAL218      0.1692
    156  C         12.3060   -3.9890   13.0270 C.2   218  VAL218      0.2593
    157  O         11.7100   -3.9070   14.0830 O.2   218  VAL218     -0.2718
    158  CB        14.6510   -3.5640   13.8940 C.3   218  VAL218      0.0266
    159  CG1       14.9960   -5.0350   13.8350 C.3   218  VAL218      0.0020
    160  CG2       15.9360   -2.7040   13.8070 C.3   218  VAL218      0.0020
    161  N         11.9170   -4.7970   12.0310 N.am  219  SER219     -0.1938
    162  CA        10.6460   -5.4320   12.0560 C.3   219  SER219      0.2055
    163  C         10.7420   -6.9480   12.1180 C.2   219  SER219      0.2643
    164  O         10.2790   -7.5320   13.1100 O.2   219  SER219     -0.2714
    165  CB         9.7580   -4.9700   10.8900 C.3   219  SER219      0.2130
    166  OG         8.4800   -5.5600   10.9720 O.3   219  SER219     -0.2179
    167  N         11.2670   -7.5930   11.0970 N.am  220  TRP220     -0.1959
    168  CA        11.4250   -9.0510   11.1840 C.3   220  TRP220      0.1771
    169  C         12.5000   -9.5600   10.3260 C.2   220  TRP220      0.2620
    170  O         13.0140   -8.8780    9.4630 O.2   220  TRP220     -0.2715
    171  CB        10.0870   -9.7650   10.8480 C.3   220  TRP220      0.0590
    172  CG         9.5260   -9.4510    9.4550 C.ar  220  TRP220      0.0006
    173  CD1        8.7600   -8.3950    9.1020 C.ar  220  TRP220      0.0946
    174  CD2        9.6850  -10.2330    8.2810 C.ar  220  TRP220      0.0152
    175  NE1        8.4410   -8.4480    7.7690 N.ar  220  TRP220     -0.2442
    176  CE2        8.9950   -9.5820    7.2410 C.ar  220  TRP220      0.0810
    177  CE3       10.3370  -11.4150    8.0050 C.ar  220  TRP220      0.0012
    178  CZ2        8.9760  -10.0750    5.9440 C.ar  220  TRP220      0.0191
    179  CZ3       10.3100  -11.8980    6.7450 C.ar  220  TRP220      0.0001
    180  CH2        9.6470  -11.2300    5.7180 C.ar  220  TRP220      0.0015
    181  N         12.8290  -10.8340   10.5370 N.am  221  GLY221     -0.1940
    182  CA        13.8370  -11.5020    9.7570 C.3   221  GLY221      0.2014
    183  C         13.6610  -12.9610   10.0970 C.2   221  GLY221      0.2639
    184  O         13.0640  -13.2820   11.1460 O.2   221  GLY221     -0.2714
    185  N         14.1000  -13.8030    9.1730 N.am  222  GLU222     -0.1963
    186  CA        13.9500  -15.2510    9.2720 C.3   222  GLU222      0.1733
    187  C         15.3320  -15.7880    9.6360 C.2   222  GLU222      0.2617
    188  O         16.2800  -15.7850    8.8540 O.2   222  GLU222     -0.2715
    189  CB        13.4000  -15.8320    7.9260 C.3   222  GLU222      0.0429
    190  CG        11.9710  -15.4050    7.7060 C.3   222  GLU222      0.1163
    191  CD        11.4440  -15.6240    6.2790 C.2   222  GLU222      0.3649
    192  OE1       12.0490  -15.1450    5.2790 O.co2 222  GLU222     -0.2457
    193  OE2       10.3770  -16.2780    6.2170 O.co2 222  GLU222     -0.2457
    194  N         15.7870  -15.8570   11.2080 N.am  223  GLY223     -0.1940
    195  CA        17.2010  -16.1280   11.4770 C.3   223  GLY223      0.2014
    196  C         17.8950  -14.7990   11.5770 C.2   223  GLY223      0.2639
    197  O         17.2200  -13.7460   11.5710 O.2   223  GLY223     -0.2714
    198  N         19.2220  -14.8540   11.5990 N.am  224  CYS224     -0.1967
    199  CA        20.0430  -13.7000   11.8650 C.3   224  CYS224      0.1712
    200  C         21.2760  -13.9310   11.0530 C.2   224  CYS224      0.2296
    201  O         22.0260  -14.9180   11.2620 O.2   224  CYS224     -0.2864
    202  CB        20.4100  -13.5810   13.3400 C.3   224  CYS224      0.0983
    203  SG        19.0180  -13.3930   14.4050 S.3   224  CYS224     -0.0798
    204  N         21.7300  -14.9750    8.0700 N.3   226  ARG226     -0.1245
    205  CA        21.7800  -16.1060    7.1510 C.3   226  ARG226      0.1563
    206  C         22.0400  -15.6400    5.7400 C.2   226  ARG226      0.2260
    207  O         21.4760  -14.6330    5.3090 O.2   226  ARG226     -0.2867
    208  CB        20.4720  -16.8220    7.1810 C.3   226  ARG226      0.0307
    209  CG        20.1010  -17.3510    8.5440 C.3   226  ARG226      0.0489
    210  CD        19.3700  -18.6540    8.3600 C.3   226  ARG226      0.2205
    211  NE        18.3280  -18.8740    9.3560 N.pl3 226  ARG226     -0.0865
    212  CZ        18.2230  -19.9240   10.1700 C.cat 226  ARG226      0.5346
    213  NH1       17.1860  -19.9540   11.0140 N.pl3 226  ARG226      0.1354
    214  NH2       19.1300  -20.9200   10.1880 N.pl3 226  ARG226      0.1354
    215  N         17.0330   -8.4890    6.4680 N.3   231  GLY231     -0.1210
    216  CA        16.1500   -8.0380    7.5090 C.3   231  GLY231      0.1956
    217  C         15.1090   -7.1480    6.8690 C.2   231  GLY231      0.2612
    218  O         15.3880   -6.4770    5.8740 O.2   231  GLY231     -0.2717
    219  N         13.9120   -7.1090    7.4580 N.am  232  PHE232     -0.1962
    220  CA        12.8100   -6.2620    6.9720 C.3   232  PHE232      0.1771
    221  C         12.5180   -5.2140    7.9970 C.2   232  PHE232      0.2619
    222  O         12.5760   -5.4910    9.2250 O.2   232  PHE232     -0.2715
    223  CB        11.5660   -7.0710    6.6900 C.3   232  PHE232      0.0574
    224  CG        11.6790   -7.8850    5.4500 C.ar  232  PHE232     -0.0200
    225  CD1       12.4050   -9.0590    5.4580 C.ar  232  PHE232     -0.0042
    226  CD2       11.1640   -7.4200    4.2390 C.ar  232  PHE232     -0.0042
    227  CE1       12.6250   -9.7550    4.2660 C.ar  232  PHE232     -0.0003
    228  CE2       11.3150   -8.1400    3.0910 C.ar  232  PHE232     -0.0003
    229  CZ        12.0380   -9.3150    3.1160 C.ar  232  PHE232     -0.0000
    230  N         12.2020   -4.0430    7.4770 N.am  233  TYR233     -0.1974
    231  CA        12.0870   -2.8260    8.2590 C.3   233  TYR233      0.1639
    232  C         10.8130   -2.1550    7.8720 C.2   233  TYR233      0.2290
    233  O         10.4890   -2.0490    6.6790 O.2   233  TYR233     -0.2864
    234  CB        13.3130   -1.9270    7.9630 C.3   233  TYR233      0.0560
    235  CG        14.5960   -2.5800    8.3260 C.ar  233  TYR233     -0.0198
    236  CD1       15.2220   -3.5280    7.4730 C.ar  233  TYR233     -0.0009
    237  CD2       15.1770   -2.3350    9.5580 C.ar  233  TYR233     -0.0009
    238  CE1       16.3810   -4.1790    7.8770 C.ar  233  TYR233      0.0417
    239  CE2       16.3390   -2.9460    9.9230 C.ar  233  TYR233      0.0417
    240  CZ        16.9270   -3.8770    9.1060 C.ar  233  TYR233      0.1957
    241  OH        18.0870   -4.4130    9.5700 O.3   233  TYR233     -0.2866
@<TRIPOS>BOND
     1   115   113    1
     2   113   114    1
     3   113   112    2
     4   112   111    1
     5   111   110    1
     6   110   109    1
     7   109   106    1
     8   106   107    1
     9   106   105    1
    10   100    99    2
    11    87    86    1
    12    87    88    1
    13    87    90    1
    14    96    94    1
    15    89    88    2
    16    91    90    1
    17    91    92    1
    18   107   108    2
    19    88    97   am
    20    94    93    2
    21    94    95    1
    22    93    92    1
    23   105    99   am
    24    99    98    1
    25    97    98    1
    26    98   101    1
    27   228   229   ar
    28   228   226   ar
    29   229   227   ar
    30    68    66   am
    31   101   103    1
    32   101   102    1
    33   226   224   ar
    34   227   225   ar
    35   102   104    1
    36   192   191   ar
    37   207   206    2
    38    59    58   ar
    39   224   225   ar
    40   224   223    1
    41    66    65    1
    42    66    67    2
    43   180   178   ar
    44   180   179   ar
    45   206   205    1
    46    65    62    1
    47   218   217    2
    48   178   176   ar
    49   193   191   ar
    50   191   190    1
    51   215   216    1
    52    58    57    1
    53    58    60   ar
    54   233   232    2
    55   223   220    1
    56   179   177   ar
    57   217   219   am
    58   217   216    1
    59    57    56    1
    60   220   219    1
    61   220   221    1
    62    56    53    1
    63   205   208    1
    64   205   204    1
    65   208   209    1
    66   176   175   ar
    67   176   174   ar
    68    62    61    1
    69    62    63    1
    70   236   238   ar
    71   236   235   ar
    72   230   221   am
    73   230   231    1
    74   190   189    1
    75   175   173   ar
    76    64    63    2
    77    61    54   am
    78   232   231    1
    79   238   240   ar
    80    55    54    2
    81   189   186    1
    82   234   231    1
    83   234   235    1
    84   221   222    2
    85   177   174   ar
    86    54    53    1
    87    63    69   am
    88    53    52    1
    89   174   172   ar
    90   235   237   ar
    91   210   209    1
    92   210   211    1
    93   188   187    2
    94   173   172   ar
    95   240   241    1
    96   240   239   ar
    97   185   186    1
    98   185   183   am
    99    69    70    1
   100   186   187    1
   101    71    72    2
   102    71    70    1
   103   211   212    2
   104   172   171    1
   105   170   169    2
   106    52    43   am
   107   237   239   ar
   108   187   194   am
   109   122   121   ar
   110   182   183    1
   111   182   181    1
   112   123   121   ar
   113   121   120    1
   114    70    73    1
   115   183   184    2
   116   212   214    1
   117   212   213    1
   118    44    43    2
   119   120   117    1
   120   169   181   am
   121   169   168    1
   122    43    42    1
   123   116   117    1
   124    73    74    1
   125   117   118    1
   126   171   168    1
   127   165   166    1
   128   165   162    1
   129   200   201    2
   130   200   199    1
   131   167   168    1
   132   167   163   am
   133   194   195    1
   134    45    42    1
   135    45    46    1
   136   195   196    1
   137    42    41    1
   138   197   196    2
   139   196   198   am
   140   198   199    1
   141    84    83   ar
   142   199   202    1
   143    47    46    1
   144    47    48    1
   145   118   124   am
   146   118   119    2
   147    41    29   am
   148   161   162    1
   149   161   156   am
   150   162   163    1
   151    74    76    1
   152    74    75    1
   153   163   164    2
   154   124   125    1
   155    27    28    1
   156    29    30    2
   157    29    28    1
   158   155   154    1
   159   155   156    1
   160   155   158    1
   161    83    85   ar
   162    83    82    1
   163    48    49    2
   164   127   126    2
   165   156   157    2
   166    28    31    1
   167    50    49    1
   168   128   125    1
   169   202   203    1
   170   125   126    1
   171    49    51    1
   172   160   158    1
   173   126   129   am
   174   159   158    1
   175    82    81    1
   176   203   134    1
   177    12    11    1
   178    31    32    1
   179    81    78    1
   180    32    34   ar
   181    32    33   ar
   182   129   130    1
   183    37    34   ar
   184    37    39   ar
   185    34    36   ar
   186     9    11   ar
   187     9     7   ar
   188    33    35   ar
   189    11    10   ar
   190    39    40   ar
   191   130   133    1
   192   130   131    1
   193    36    35   ar
   194    36    38   ar
   195    77    78    1
   196    40    38   ar
   197   133   134    1
   198    78    79    1
   199     7     6   ar
   200   152   149    1
   201   152   153    1
   202    10     8   ar
   203   131   132    2
   204   131   135   am
   205   149   148    1
   206   149   150    1
   207    26    25   ar
   208    26    24   ar
   209    79    80    2
   210   135   136    1
   211    25    23   ar
   212    24    22   ar
   213   150   151    2
   214     6     8   ar
   215     6     5    1
   216   136   139    1
   217   136   137    1
   218    23    20   ar
   219    22    20   ar
   220    22    21   ar
   221     5     2    1
   222     2     3    1
   223     2     1    1
   224   139   140    1
   225    20    18   ar
   226    21    19   ar
   227   137   144   am
   228   137   138    2
   229     3     4    2
   230   142   141   ar
   231   144   145    1
   232    13    14    1
   233   146   147    2
   234   146   145    1
   235   140   141    1
   236    18    19   ar
   237    18    17    1
   238   141   143   ar
   239    17    14    1
   240    14    15    1
   241    15    16    2
