@<TRIPOS>MOLECULE
tmp/6eoaA00.pdb
 120 114 0 0 0
SMALL
GASTEIGER

@<TRIPOS>ATOM
      1  N        -45.3830    9.7530   16.2280 N.3    11  SER11      -0.1202
      2  CA       -45.9310   11.1040   16.2680 C.3    11  SER11       0.2020
      3  C        -47.3490   11.1060   16.8350 C.2    11  SER11       0.2619
      4  O        -47.8700   10.0630   17.2310 O.2    11  SER11      -0.2717
      5  CB       -45.9100   11.7360   14.8760 C.3    11  SER11       0.2103
      6  OG       -46.7300   11.0180   13.9710 O.3    11  SER11      -0.2182
      7  N        -47.9650   12.2830   16.8700 N.am   12  GLY12      -0.1942
      8  CA       -49.2300   12.4680   17.5590 C.3    12  GLY12       0.2014
      9  C        -50.4730   11.9440   16.8670 C.2    12  GLY12       0.2640
     10  O        -51.4510   12.6730   16.6970 O.2    12  GLY12      -0.2714
     11  N        -50.4380   10.6770   16.4730 N.am   13  SER13      -0.1935
     12  CA       -51.6200   10.0020   15.9570 C.3    13  SER13       0.2055
     13  C        -52.0970    8.9630   16.9670 C.2    13  SER13       0.2642
     14  O        -51.3130    8.4960   17.7960 O.2    13  SER13      -0.2714
     15  CB       -51.3210    9.3470   14.6080 C.3    13  SER13       0.2130
     16  OG       -52.2800    8.3460   14.3110 O.3    13  SER13      -0.2179
     17  N        -53.3740    8.5940   16.9010 N.am   14  VAL14      -0.1977
     18  CA       -53.9160    7.6010   17.8250 C.3    14  VAL14       0.1596
     19  C        -53.2220    6.2580   17.6310 C.2    14  VAL14       0.2287
     20  O        -53.1700    5.4330   18.5450 O.2    14  VAL14      -0.2864
     21  CB       -55.4420    7.4210   17.6530 C.3    14  VAL14       0.0276
     22  CG1      -56.1670    8.7160   17.9760 C.3    14  VAL14       0.0022
     23  CG2      -55.7780    6.9570   16.2480 C.3    14  VAL14       0.0022
     24  N        -42.4170   12.3260   19.4340 N.3    39  THR39      -0.1203
     25  CA       -42.8070   13.7240   19.4450 C.3    39  THR39       0.1994
     26  C        -43.6120   13.9550   20.7160 C.2    39  THR39       0.2618
     27  O        -44.0830   12.9930   21.3320 O.2    39  THR39      -0.2717
     28  CB       -43.6300   14.0990   18.2190 C.3    39  THR39       0.1784
     29  OG1      -44.9180   13.4720   18.2890 O.3    39  THR39      -0.2211
     30  CG2      -42.9250   13.6580   16.9460 C.3    39  THR39       0.0376
     31  N        -43.7660   15.2100   21.1240 N.am   40  LYS40      -0.1965
     32  CA       -44.4600   15.4860   22.3780 C.3    40  LYS40       0.1728
     33  C        -45.8910   14.9570   22.3410 C.2    40  LYS40       0.2616
     34  O        -46.3740   14.3860   23.3140 O.2    40  LYS40      -0.2715
     35  CB       -44.4710   16.9830   22.6990 C.3    40  LYS40       0.0311
     36  CG       -45.2360   17.2820   23.9800 C.3    40  LYS40       0.0038
     37  CD       -45.4870   18.7650   24.2010 C.3    40  LYS40       0.0206
     38  CE       -45.8230   19.0340   25.6680 C.3    40  LYS40       0.1093
     39  NZ       -46.5230   20.3380   25.8650 N.3    40  LYS40      -0.1314
     40  N        -46.5590   15.1430   21.2100 N.am   41  ALA41      -0.1977
     41  CA       -47.9350   14.6860   21.0560 C.3    41  ALA41       0.1597
     42  C        -48.0630   13.1620   21.1790 C.2    41  ALA41       0.2287
     43  O        -49.0440   12.6650   21.7240 O.2    41  ALA41      -0.2864
     44  CB       -48.4930   15.1530   19.7180 C.3    41  ALA41       0.0319
     45  N        -50.1470    9.1880   23.9400 N.3    45  PHE45      -0.1241
     46  CA       -50.8280    7.9570   23.5540 C.3    45  PHE45       0.1605
     47  C        -50.1720    6.7140   24.1500 C.2    45  PHE45       0.2264
     48  O        -50.7700    5.6380   24.1560 O.2    45  PHE45      -0.2867
     49  CB       -50.8900    7.8420   22.0310 C.3    45  PHE45       0.0534
     50  CG       -51.6260    8.9730   21.3700 C.ar   45  PHE45      -0.0203
     51  CD1      -53.0050    8.9410   21.2430 C.ar   45  PHE45      -0.0042
     52  CD2      -50.9400   10.0720   20.8800 C.ar   45  PHE45      -0.0042
     53  CE1      -53.6870    9.9830   20.6380 C.ar   45  PHE45      -0.0003
     54  CE2      -51.6140   11.1190   20.2760 C.ar   45  PHE45      -0.0003
     55  CZ       -52.9900   11.0740   20.1550 C.ar   45  PHE45      -0.0000
     56  N        -48.2070   11.6390   11.6910 N.3   104  SER104     -0.1202
     57  CA       -49.3750   12.5120   11.6830 C.3   104  SER104      0.2020
     58  C        -49.3380   13.4390   10.4750 C.2   104  SER104      0.2619
     59  O        -48.3350   13.5030    9.7670 O.2   104  SER104     -0.2717
     60  CB       -49.4450   13.3280   12.9710 C.3   104  SER104      0.2103
     61  OG       -48.3100   14.1690   13.0940 O.3   104  SER104     -0.2182
     62  N        -50.4400   14.1440   10.2350 N.am  105  ALA105     -0.1965
     63  CA       -50.4870   15.1410    9.1710 C.3   105  ALA105      0.1728
     64  C        -49.5290   16.2860    9.4800 C.2   105  ALA105      0.2616
     65  O        -48.8870   16.8280    8.5830 O.2   105  ALA105     -0.2715
     66  CB       -51.9040   15.6660    8.9910 C.3   105  ALA105      0.0334
     67  N        -49.4350   16.6440   10.7570 N.am  106  ASP106     -0.1957
     68  CA       -48.5490   17.7190   11.1960 C.3   106  ASP106      0.1840
     69  C        -47.0880   17.3850   10.9170 C.2   106  ASP106      0.2621
     70  O        -46.3470   18.2060   10.3740 O.2   106  ASP106     -0.2715
     71  CB       -48.7370   18.0000   12.6880 C.3   106  ASP106      0.1450
     72  CG       -47.9750   19.2380   13.1560 C.2   106  ASP106      0.3671
     73  OD1      -48.1540   20.3210   12.5550 O.co2 106  ASP106     -0.2456
     74  OD2      -47.1930   19.1250   14.1260 O.co2 106  ASP106     -0.2456
     75  N        -46.6740   16.1790   11.2910 N.am  107  LEU107     -0.1977
     76  CA       -45.2870   15.7840   11.1000 C.3   107  LEU107      0.1596
     77  C        -44.9730   15.6910    9.6110 C.2   107  LEU107      0.2287
     78  O        -43.8940   16.0880    9.1710 O.2   107  LEU107     -0.2864
     79  CB       -44.9990   14.4570   11.8000 C.3   107  LEU107      0.0297
     80  CG       -43.5760   13.9130   11.6460 C.3   107  LEU107      0.0022
     81  CD1      -42.5510   14.9530   12.0800 C.3   107  LEU107      0.0001
     82  CD2      -43.4180   12.6370   12.4540 C.3   107  LEU107      0.0001
     83  N        -44.5520   19.1850    8.4720 N.3   110  LYS110     -0.1245
     84  CA       -43.2770   19.7130    8.9610 C.3   110  LYS110      0.1561
     85  C        -42.0980   19.1600    8.1670 C.2   110  LYS110      0.2260
     86  O        -41.1680   19.8970    7.8310 O.2   110  LYS110     -0.2867
     87  CB       -43.0860   19.3980   10.4430 C.3   110  LYS110      0.0271
     88  CG       -43.9780   20.1970   11.3840 C.3   110  LYS110      0.0035
     89  CD       -43.3000   20.3440   12.7300 C.3   110  LYS110      0.0206
     90  CE       -44.2590   20.1250   13.8860 C.3   110  LYS110      0.1093
     91  NZ       -45.1660   21.2830   14.1260 N.3   110  LYS110     -0.1314
     92  N        -50.9480    8.2990    9.2120 N.3   138  ALA138     -0.1231
     93  CA       -52.0380    7.8070   10.0410 C.3   138  ALA138      0.1694
     94  C        -52.8310    8.9860   10.5680 C.2   138  ALA138      0.2592
     95  O        -52.3680    9.7150   11.4460 O.2   138  ALA138     -0.2718
     96  CB       -51.5110    6.9680   11.1830 C.3   138  ALA138      0.0304
     97  N        -54.0270    9.1760   10.0260 N.am  139  MET139     -0.1965
     98  CA       -54.8010   10.3600   10.3500 C.3   139  MET139      0.1736
     99  C        -56.2780   10.1720   10.0520 C.2   139  MET139      0.2616
    100  O        -56.6730    9.2170    9.3790 O.2   139  MET139     -0.2715
    101  CB       -54.2530   11.5720    9.5820 C.3   139  MET139      0.0427
    102  CG       -54.2920   11.4380    8.0640 C.3   139  MET139      0.0599
    103  SD       -53.2810   12.6760    7.2160 S.3   139  MET139     -0.1393
    104  CE       -51.6460   11.9680    7.4180 C.3   139  MET139      0.0692
    105  N        -57.0900   11.0830   10.5800 N.am  140  ASN140     -0.1972
    106  CA       -58.5030   11.1280   10.2520 C.3   140  ASN140      0.1688
    107  C        -58.6420   11.2240    8.7420 C.2   140  ASN140      0.2292
    108  O        -57.8370   11.8870    8.0850 O.2   140  ASN140     -0.2864
    109  CB       -59.1860   12.3070   10.9440 C.3   140  ASN140      0.1181
    110  CG       -60.6280   12.4750   10.5170 C.2   140  ASN140      0.2629
    111  OD1      -60.9360   13.2830    9.6430 O.2   140  ASN140     -0.2716
    112  ND2      -61.5200   11.7060   11.1290 N.am  140  ASN140     -0.0877
    113  N        -58.4760   14.4650    7.0950 N.3   143  MET143     -0.1245
    114  CA       -57.1420   15.0520    7.0930 C.3   143  MET143      0.1570
    115  C        -56.3360   14.4790    5.9350 C.2   143  MET143      0.2261
    116  O        -55.5940   15.2000    5.2710 O.2   143  MET143     -0.2867
    117  CB       -56.4140   14.8050    8.4160 C.3   143  MET143      0.0387
    118  CG       -56.8070   15.7580    9.5340 C.3   143  MET143      0.0595
    119  SD       -55.5360   15.8500   10.8100 S.3   143  MET143     -0.1393
    120  CE       -56.2970   16.9780   11.9760 C.3   143  MET143      0.0692
@<TRIPOS>BOND
     1   116   115    2
     2   115   114    1
     3   114   113    1
     4   114   117    1
     5   103   104    1
     6   103   102    1
     7    86    85    2
     8   102   101    1
     9   108   107    2
    10    85    84    1
    11   117   118    1
    12    83    84    1
    13    65    64    2
    14   107   106    1
    15    84    87    1
    16    66    63    1
    17    63    64    1
    18    63    62    1
    19    78    77    2
    20    92    93    1
    21   100    99    2
    22    64    67   am
    23   118   119    1
    24   101    98    1
    25    77    76    1
    26   111   110    2
    27    59    58    2
    28    97    98    1
    29    97    94   am
    30    93    94    1
    31    93    96    1
    32    99    98    1
    33    99   105   am
    34    62    58   am
    35   106   105    1
    36   106   109    1
    37    70    69    2
    38    87    88    1
    39    58    57    1
    40   110   109    1
    41   110   112   am
    42    94    95    2
    43    67    68    1
    44   119   120    1
    45    69    68    1
    46    69    75   am
    47    76    75    1
    48    76    79    1
    49    68    71    1
    50    88    89    1
    51    80    79    1
    52    80    81    1
    53    80    82    1
    54    57    56    1
    55    57    60    1
    56    73    72   ar
    57    71    72    1
    58    89    90    1
    59    60    61    1
    60    72    74   ar
    61    90    91    1
    62     6     5    1
    63    16    15    1
    64    15    12    1
    65     5     2    1
    66    12    11    1
    67    12    13    1
    68     1     2    1
    69    23    21    1
    70     2     3    1
    71    11     9   am
    72    10     9    2
    73     3     7   am
    74     3     4    2
    75     9     8    1
    76     7     8    1
    77    17    13   am
    78    17    18    1
    79    30    28    1
    80    13    14    2
    81    19    18    1
    82    19    20    2
    83    21    18    1
    84    21    22    1
    85    28    29    1
    86    28    25    1
    87    24    25    1
    88    25    26    1
    89    44    41    1
    90    55    54   ar
    91    55    53   ar
    92    54    52   ar
    93    53    51   ar
    94    26    31   am
    95    26    27    2
    96    52    50   ar
    97    41    42    1
    98    41    40    1
    99    31    32    1
   100    42    43    2
   101    40    33   am
   102    51    50   ar
   103    50    49    1
   104    49    46    1
   105    33    32    1
   106    33    34    2
   107    32    35    1
   108    35    36    1
   109    46    45    1
   110    46    47    1
   111    36    37    1
   112    47    48    2
   113    37    38    1
   114    38    39    1
