@<TRIPOS>MOLECULE
tmp/6eoeA01.pdb
 150 141 0 0 0
SMALL
GASTEIGER

@<TRIPOS>ATOM
      1  N        -41.5300  -10.0920   -9.9220 N.3     6  ASP6       -0.1239
      2  CA       -41.2440   -8.7440  -10.3880 C.3     6  ASP6        0.1674
      3  C        -40.9600   -7.9030   -9.1370 C.2     6  ASP6        0.2266
      4  O        -41.8820   -7.5700   -8.4140 O.2     6  ASP6       -0.2867
      5  CB       -42.4200   -8.1510  -11.1600 C.3     6  ASP6        0.1410
      6  CG       -42.1490   -6.7470  -11.6590 C.2     6  ASP6        0.3668
      7  OD1      -40.9520   -6.3410  -11.7090 O.co2   6  ASP6       -0.2456
      8  OD2      -43.1250   -6.0400  -12.0240 O.co2   6  ASP6       -0.2456
      9  N        -40.3090   -4.5940   -7.9530 N.3     8  GLY8       -0.1210
     10  CA       -40.4860   -3.2440   -8.5080 C.3     8  GLY8        0.1956
     11  C        -40.1730   -2.1240   -7.5220 C.2     8  GLY8        0.2613
     12  O        -40.0630   -2.3480   -6.3180 O.2     8  GLY8       -0.2717
     13  N        -40.0060   -0.9210   -8.0490 N.am    9  THR9       -0.1938
     14  CA       -39.6460    0.2290   -7.2220 C.3     9  THR9        0.2028
     15  C        -40.7270    0.4830   -6.1700 C.2     9  THR9        0.2643
     16  O        -40.4440    0.6500   -4.9730 O.2     9  THR9       -0.2714
     17  CB       -39.4440    1.5070   -8.0780 C.3     9  THR9        0.1808
     18  OG1      -38.4130    1.2800   -9.0580 O.3     9  THR9       -0.2208
     19  CG2      -39.0570    2.6780   -7.1820 C.3     9  THR9        0.0379
     20  N        -41.9690    0.5380   -6.6260 N.am   10  THR10      -0.1936
     21  CA       -43.0950    0.8700   -5.7370 C.3    10  THR10       0.2028
     22  C        -43.9340   -0.3440   -5.3340 C.2    10  THR10       0.2642
     23  O        -44.4010   -0.4120   -4.1900 O.2    10  THR10      -0.2714
     24  CB       -43.9990    1.9640   -6.3370 C.3    10  THR10       0.1808
     25  OG1      -44.6410    1.4560   -7.4890 O.3    10  THR10      -0.2208
     26  CG2      -43.2060    3.1570   -6.7510 C.3    10  THR10       0.0379
     27  N        -44.1140   -1.2930   -6.2530 N.am   11  TYR11      -0.1973
     28  CA       -44.8420   -2.5510   -6.0090 C.3    11  TYR11       0.1639
     29  C        -44.0910   -3.7430   -6.5390 C.2    11  TYR11       0.2290
     30  O        -43.3820   -3.6310   -7.5350 O.2    11  TYR11      -0.2864
     31  CB       -46.1850   -2.5670   -6.7310 C.3    11  TYR11       0.0560
     32  CG       -47.1970   -1.5980   -6.2000 C.ar   11  TYR11      -0.0198
     33  CD1      -47.4140   -0.3760   -6.8220 C.ar   11  TYR11      -0.0009
     34  CD2      -47.9460   -1.9020   -5.0660 C.ar   11  TYR11      -0.0009
     35  CE1      -48.3420    0.5280   -6.3120 C.ar   11  TYR11       0.0417
     36  CE2      -48.8820   -1.0140   -4.5670 C.ar   11  TYR11       0.0417
     37  CZ       -49.0740    0.2010   -5.1940 C.ar   11  TYR11       0.1957
     38  OH       -50.0190    1.0670   -4.6860 O.3    11  TYR11      -0.2866
     39  N        -50.7680   -7.2950   -6.1450 N.3    33  ILE33      -0.1245
     40  CA       -49.4740   -6.6210   -6.0330 C.3    33  ILE33       0.1561
     41  C        -49.2450   -6.1800   -4.5850 C.2    33  ILE33       0.2260
     42  O        -50.1940   -5.9480   -3.8440 O.2    33  ILE33      -0.2867
     43  CB       -49.3430   -5.4300   -7.0230 C.3    33  ILE33       0.0252
     44  CG1      -50.3760   -4.3210   -6.7490 C.3    33  ILE33       0.0019
     45  CG2      -49.4200   -5.9450   -8.4590 C.3    33  ILE33       0.0019
     46  CD1      -50.2650   -3.1290   -7.6910 C.3    33  ILE33       0.0001
     47  N        -42.3610    2.4660  -15.0910 N.3   198  GLY198     -0.1210
     48  CA       -42.8500    2.0450  -13.7800 C.3   198  GLY198      0.1956
     49  C        -42.7410    3.1200  -12.7290 C.2   198  GLY198      0.2612
     50  O        -42.9390    4.3010  -13.0130 O.2   198  GLY198     -0.2717
     51  N        -42.4470    2.7090  -11.4930 N.am  199  GLY199     -0.1956
     52  CA       -42.3500    3.6450  -10.3870 C.3   199  GLY199      0.1869
     53  C        -41.0270    4.3600  -10.2830 C.2   199  GLY199      0.2309
     54  O        -40.9460    5.4490   -9.7140 O.2   199  GLY199     -0.2863
     55  N        -42.6140    6.9690  -11.9960 N.3   227  GLY227     -0.1210
     56  CA       -43.7510    7.5660  -11.3000 C.3   227  GLY227      0.1956
     57  C        -43.3930    8.3180  -10.0290 C.2   227  GLY227      0.2611
     58  O        -44.0040    9.3390   -9.7140 O.2   227  GLY227     -0.2717
     59  N        -42.3900    7.8280   -9.3090 N.am  228  GLU228     -0.1979
     60  CA       -41.9230    8.5120   -8.0910 C.3   228  GLU228      0.1602
     61  C        -41.4080    9.9270   -8.3960 C.2   228  GLU228      0.2287
     62  O        -41.6330   10.8500   -7.6000 O.2   228  GLU228     -0.2864
     63  CB       -40.8850    7.6760   -7.3490 C.3   228  GLU228      0.0415
     64  CG       -41.4500    6.4180   -6.6780 C.3   228  GLU228      0.1163
     65  CD       -42.3590    6.7190   -5.4810 C.2   228  GLU228      0.3649
     66  OE1      -43.5670    6.9590   -5.6670 O.co2 228  GLU228     -0.2457
     67  OE2      -41.8650    6.7130   -4.3400 O.co2 228  GLU228     -0.2457
     68  N        -49.9040   11.0650   -4.5820 N.3   265  GLU265     -0.1245
     69  CA       -50.0400    9.7690   -5.2650 C.3   265  GLU265      0.1567
     70  C        -51.5090    9.5030   -5.5890 C.2   265  GLU265      0.2260
     71  O        -51.8450    9.1630   -6.7210 O.2   265  GLU265     -0.2867
     72  CB       -49.4220    8.6370   -4.4160 C.3   265  GLU265      0.0388
     73  CG       -49.6340    7.2050   -4.9220 C.3   265  GLU265      0.1160
     74  CD       -48.8980    6.8460   -6.2110 C.2   265  GLU265      0.3649
     75  OE1      -47.9480    7.5600   -6.6410 O.co2 265  GLU265     -0.2457
     76  OE2      -49.2650    5.7930   -6.7920 O.co2 265  GLU265     -0.2457
     77  N        -52.6330   11.9890   -8.3660 N.3   268  LYS268     -0.1231
     78  CA       -52.0860   11.5540   -9.6510 C.3   268  LYS268      0.1693
     79  C        -52.9210   10.4450  -10.3060 C.2   268  LYS268      0.2591
     80  O        -53.2300   10.5180  -11.4890 O.2   268  LYS268     -0.2718
     81  CB       -50.6450   11.0710   -9.4860 C.3   268  LYS268      0.0285
     82  CG       -50.0040   10.5970  -10.7940 C.3   268  LYS268      0.0035
     83  CD       -48.5800   10.1190  -10.6060 C.3   268  LYS268      0.0206
     84  CE       -48.5330    8.8530   -9.7580 C.3   268  LYS268      0.1093
     85  NZ       -47.1720    8.2720   -9.7700 N.3   268  LYS268     -0.1314
     86  N        -53.2530    9.4170   -9.5350 N.am  269  ARG269     -0.1980
     87  CA       -54.0450    8.2830  -10.0410 C.3   269  ARG269      0.1597
     88  C        -55.4320    8.7270  -10.4910 C.2   269  ARG269      0.2287
     89  O        -55.8800    8.3490  -11.5660 O.2   269  ARG269     -0.2864
     90  CB       -54.2030    7.2060   -8.9640 C.3   269  ARG269      0.0334
     91  CG       -52.9300    6.4580   -8.6450 C.3   269  ARG269      0.0492
     92  CD       -53.1040    5.6250   -7.3780 C.3   269  ARG269      0.2205
     93  NE       -52.0450    4.6360   -7.2600 N.pl3 269  ARG269     -0.0865
     94  CZ       -52.0170    3.4380   -7.8610 C.cat 269  ARG269      0.5346
     95  NH1      -53.0080    3.0140   -8.6560 N.pl3 269  ARG269      0.1354
     96  NH2      -50.9700    2.6500   -7.6710 N.pl3 269  ARG269      0.1354
     97  N        -55.6900   10.4050  -13.9300 N.3   272  SER272     -0.1217
     98  CA       -55.7200    9.5490  -15.1250 C.3   272  SER272      0.1889
     99  C        -57.1320    9.2800  -15.6570 C.2   272  SER272      0.2288
    100  O        -57.2700    8.8540  -16.8060 O.2   272  SER272     -0.2866
    101  CB       -55.0130    8.2110  -14.8840 C.3   272  SER272      0.2089
    102  OG       -53.6150    8.3820  -14.7380 O.3   272  SER272     -0.2183
    103  N        -45.7700   -1.1900  -16.9760 N.3   335  GLY335     -0.1210
    104  CA       -45.4940   -0.2490  -15.8990 C.3   335  GLY335      0.1956
    105  C        -46.7050    0.6150  -15.6260 C.2   335  GLY335      0.2612
    106  O        -47.3610    1.1180  -16.5600 O.2   335  GLY335     -0.2717
    107  N        -47.0020    0.8320  -14.3460 N.am  336  GLY336     -0.1942
    108  CA       -48.2250    1.5620  -13.9650 C.3   336  GLY336      0.2014
    109  C        -48.3490    2.9990  -14.4810 C.2   336  GLY336      0.2639
    110  O        -49.4690    3.4830  -14.7050 O.2   336  GLY336     -0.2714
    111  N        -47.2160    3.6710  -14.6880 N.am  337  SER337     -0.1949
    112  CA       -47.2080    5.0570  -15.1720 C.3   337  SER337      0.1924
    113  C        -47.6340    5.2080  -16.6310 C.2   337  SER337      0.2314
    114  O        -47.8970    6.3360  -17.0780 O.2   337  SER337     -0.2863
    115  CB       -45.8390    5.7090  -14.9750 C.3   337  SER337      0.2116
    116  OG       -45.4820    5.7890  -13.6150 O.3   337  SER337     -0.2180
    117  N        -50.4260    4.3060  -17.5480 N.3   339  ARG339     -0.1231
    118  CA       -51.8270    4.7160  -17.4320 C.3   339  ARG339      0.1694
    119  C        -52.0600    6.2220  -17.5750 C.2   339  ARG339      0.2591
    120  O        -53.1980    6.6310  -17.8240 O.2   339  ARG339     -0.2718
    121  CB       -52.4170    4.2500  -16.1080 C.3   339  ARG339      0.0321
    122  CG       -52.5220    2.7450  -16.0200 C.3   339  ARG339      0.0489
    123  CD       -53.4230    2.3310  -14.8880 C.3   339  ARG339      0.2205
    124  NE       -53.6020    0.8780  -14.8780 N.pl3 339  ARG339     -0.0865
    125  CZ       -53.1220    0.0420  -13.9660 C.cat 339  ARG339      0.5346
    126  NH1      -52.4160    0.4850  -12.9220 N.pl3 339  ARG339      0.1354
    127  NH2      -53.3700   -1.2680  -14.0850 N.pl3 339  ARG339      0.1354
    128  N        -51.0100    7.0320  -17.4140 N.am  340  ILE340     -0.1980
    129  CA       -51.1210    8.4950  -17.5130 C.3   340  ILE340      0.1595
    130  C        -51.5450    8.8660  -18.9370 C.2   340  ILE340      0.2287
    131  O        -50.8310    8.5510  -19.8910 O.2   340  ILE340     -0.2864
    132  CB       -49.7960    9.2290  -17.1360 C.3   340  ILE340      0.0276
    133  CG1      -49.4540    8.9990  -15.6570 C.3   340  ILE340      0.0022
    134  CG2      -49.9430   10.7390  -17.3870 C.3   340  ILE340      0.0022
    135  CD1      -48.0650    9.4120  -15.2320 C.3   340  ILE340      0.0001
    136  N        -50.7100   -3.4520  -17.2820 N.3   362  PRO362     -0.2102
    137  CA       -49.3340   -2.9430  -17.1510 C.3   362  PRO362      0.1504
    138  C        -48.7020   -3.1550  -15.7660 C.2   362  PRO362      0.2575
    139  O        -47.4670   -3.0320  -15.6260 O.2   362  PRO362     -0.2718
    140  CB       -49.4810   -1.4440  -17.4700 C.3   362  PRO362      0.0282
    141  CG       -50.9070   -1.1220  -17.1480 C.3   362  PRO362      0.0208
    142  CD       -51.6730   -2.3520  -17.5060 C.3   362  PRO362      0.0893
    143  N        -49.5220   -3.4560  -14.7570 N.am  363  ASP363     -0.1974
    144  CA       -49.0220   -3.7780  -13.4190 C.3   363  ASP363      0.1708
    145  C        -48.5480   -5.2160  -13.2690 C.2   363  ASP363      0.2293
    146  O        -47.7840   -5.4760  -12.3480 O.2   363  ASP363     -0.2864
    147  CB       -50.0940   -3.5650  -12.3310 C.3   363  ASP363      0.1436
    148  CG       -50.4450   -2.1010  -12.0920 C.2   363  ASP363      0.3671
    149  OD1      -51.6270   -1.8570  -11.7700 O.co2 363  ASP363     -0.2456
    150  OD2      -49.5920   -1.1910  -12.1970 O.co2 363  ASP363     -0.2456
@<TRIPOS>BOND
     1   131   130    2
     2   130   129    1
     3   120   119    2
     4   119   118    1
     5   119   128   am
     6   117   118    1
     7   129   128    1
     8   129   132    1
     9   142   136    1
    10   142   141    1
    11   140   137    1
    12   140   141    1
    13   118   121    1
    14   134   132    1
    15   136   137    1
    16   137   138    1
    17   132   133    1
    18   114   113    2
    19   103   104    1
    20   100    99    2
    21   113   112    1
    22   106   105    2
    23   121   122    1
    24   122   123    1
    25   104   105    1
    26   138   139    2
    27   138   143   am
    28   133   135    1
    29    99    98    1
    30   105   107   am
    31   112   115    1
    32   112   111    1
    33    98   101    1
    34    98    97    1
    35    47    48    1
    36   115   116    1
    37   123   124    1
    38   101   102    1
    39   124   125    2
    40   143   144    1
    41   110   109    2
    42   111   109   am
    43   109   108    1
    44   107   108    1
    45   127   125    1
    46   125   126    1
    47    48    49    1
    48   144   145    1
    49   144   147    1
    50   145   146    2
    51    50    49    2
    52    49    51   am
    53   147   148    1
    54   150   148   ar
    55   148   149   ar
    56     8     6   ar
    57    55    56    1
    58     7     6   ar
    59     6     5    1
    60    89    88    2
    61    51    52    1
    62    80    79    2
    63    56    57    1
    64     5     2    1
    65    82    83    1
    66    82    81    1
    67    83    84    1
    68    88    87    1
    69     2     1    1
    70     2     3    1
    71    52    53    1
    72    79    78    1
    73    79    86   am
    74    53    54    2
    75    87    86    1
    76    87    90    1
    77    57    58    2
    78    57    59   am
    79    85    84    1
    80    78    81    1
    81    78    77    1
    82    59    60    1
    83     3     4    2
    84    18    17    1
    85    90    91    1
    86    95    94    1
    87    91    92    1
    88    10     9    1
    89    10    11    1
    90    45    43    1
    91    61    60    1
    92    61    62    2
    93    60    63    1
    94    17    14    1
    95    17    19    1
    96    13    11   am
    97    13    14    1
    98    94    96    1
    99    94    93    2
   100    46    44    1
   101    30    29    2
   102    11    12    2
   103    25    24    1
   104    92    93    1
   105    63    64    1
   106    14    15    1
   107    43    44    1
   108    43    40    1
   109    33    35   ar
   110    33    32   ar
   111    76    74   ar
   112    26    24    1
   113    31    32    1
   114    31    28    1
   115    71    70    2
   116    64    65    1
   117    75    74   ar
   118    20    15   am
   119    20    21    1
   120    29    28    1
   121    24    21    1
   122    35    37   ar
   123    27    28    1
   124    27    22   am
   125    74    73    1
   126    32    34   ar
   127    15    16    2
   128    39    40    1
   129    40    41    1
   130    21    22    1
   131    66    65   ar
   132    70    69    1
   133    65    67   ar
   134    22    23    2
   135    69    68    1
   136    69    72    1
   137    37    38    1
   138    37    36   ar
   139    34    36   ar
   140    73    72    1
   141    41    42    2
