@<TRIPOS>MOLECULE
tmp/6eogA00.pdb
 120 113 0 0 0
SMALL
GASTEIGER

@<TRIPOS>ATOM
      1  N         -1.9840    7.0800    0.8330 N.3     5  PRO5       -0.2116
      2  CA        -2.6750    5.8120    0.8710 C.3     5  PRO5        0.1372
      3  C         -1.7500    4.6000    0.7920 C.2     5  PRO5        0.2244
      4  O         -0.7670    4.6550    0.0850 O.2     5  PRO5       -0.2868
      5  CB        -3.6590    5.8490   -0.3270 C.3     5  PRO5        0.0268
      6  CG        -3.6700    7.2160   -0.8360 C.3     5  PRO5        0.0207
      7  CD        -2.4050    7.8750   -0.3290 C.3     5  PRO5        0.0892
      8  N        -11.8600   12.4540    7.2660 N.3    32  ARG32      -0.1182
      9  CA       -12.3250   11.1620    6.7100 C.3    32  ARG32       0.1910
     10  C        -11.1920   10.1190    6.8120 C.2    32  ARG32       0.2634
     11  O        -10.0510   10.5040    6.7740 O.2    32  ARG32      -0.2714
     12  CB       -12.7090   11.3640    5.2430 C.2    32  ARG32       0.0007
     13  CG       -11.5780   11.7870    4.3160 C.2    32  ARG32       0.0176
     14  CD       -11.9910   12.1000    2.8640 C.3    32  ARG32       0.2464
     15  NE       -10.7890   12.3400    2.0760 N.pl3  32  ARG32      -0.0815
     16  CZ       -10.7230   12.2690    0.7470 C.cat  32  ARG32       0.5349
     17  NH1      -11.8180   12.0940    0.0240 N.pl3  32  ARG32       0.1354
     18  NH2       -9.5730   12.3170    0.1880 N.pl3  32  ARG32       0.1354
     19  N        -11.6450    8.8560    6.9120 N.am   33  ILE33      -0.1963
     20  CA       -10.7450    7.7020    6.8240 C.3    33  ILE33       0.1727
     21  C        -11.4940    6.7120    5.9080 C.2    33  ILE33       0.2616
     22  O        -12.6960    6.6340    5.9610 O.2    33  ILE33      -0.2715
     23  CB       -10.5090    7.0910    8.2130 C.3    33  ILE33       0.0290
     24  CG1       -9.9030    8.1240    9.1580 C.3    33  ILE33       0.0022
     25  CG2       -9.6740    5.8320    8.1380 C.3    33  ILE33       0.0023
     26  CD1       -9.9310    7.7170   10.5880 C.3    33  ILE33       0.0001
     27  N        -10.7220    5.8960    5.1750 N.am   34  ALA34      -0.1977
     28  CA       -11.3610    4.8120    4.4590 C.3    34  ALA34       0.1597
     29  C        -10.4760    3.5720    4.4000 C.2    34  ALA34       0.2287
     30  O         -9.2840    3.6160    4.1510 O.2    34  ALA34      -0.2864
     31  CB       -11.6900    5.1980    3.0220 C.3    34  ALA34       0.0319
     32  N        -10.7080    0.1280    2.0680 N.3    36  ASP36      -0.1239
     33  CA       -11.3380   -0.3920    0.8030 C.3    36  ASP36       0.1674
     34  C        -10.7770   -1.7780    0.5330 C.2    36  ASP36       0.2266
     35  O         -9.6590   -1.9760    0.0880 O.2    36  ASP36      -0.2867
     36  CB       -11.0190    0.5380   -0.3490 C.3    36  ASP36       0.1410
     37  CG       -11.8190    1.8530   -0.2790 C.2    36  ASP36       0.3668
     38  OD1      -12.9910    1.8040   -0.5340 O.co2  36  ASP36      -0.2456
     39  OD2      -11.1730    2.8640    0.1240 O.co2  36  ASP36      -0.2456
     40  N        -16.2480   -1.1370    1.7450 N.3    46  HIS46      -0.1241
     41  CA       -15.7330    0.2180    2.0470 C.3    46  HIS46       0.1621
     42  C        -16.2230    0.5770    3.4570 C.2    46  HIS46       0.2264
     43  O        -17.4250    0.5040    3.7100 O.2    46  HIS46      -0.2867
     44  CB       -16.3850    1.1660    1.0070 C.3    46  HIS46       0.0745
     45  CG       -16.0600    2.6390    1.1770 C.ar   46  HIS46       0.0817
     46  ND1      -14.8800    3.2290    0.7750 N.ar   46  HIS46      -0.2268
     47  CD2      -16.8780    3.6560    1.5650 C.ar   46  HIS46       0.1154
     48  CE1      -14.9650    4.5400    0.9460 C.ar   46  HIS46       0.1986
     49  NE2      -16.1620    4.8510    1.3970 N.ar   46  HIS46      -0.2212
     50  N        -15.8930    3.6450    6.1010 N.3    48  ASN48      -0.1240
     51  CA       -15.5530    5.0680    5.9110 C.3    48  ASN48       0.1653
     52  C        -16.0730    5.9250    7.0660 C.2    48  ASN48       0.2266
     53  O        -17.1480    6.5550    6.9780 O.2    48  ASN48      -0.2867
     54  CB       -16.1510    5.4900    4.5850 C.3    48  ASN48       0.1155
     55  CG       -16.0630    6.9730    4.2350 C.2    48  ASN48       0.2627
     56  OD1      -17.0300    7.4830    3.6250 O.2    48  ASN48      -0.2716
     57  ND2      -15.0110    7.6910    4.5890 N.am   48  ASN48      -0.0877
     58  N        -16.5310    9.2860    8.7370 N.3    50  ARG50      -0.1245
     59  CA       -16.6950   10.6880    8.3390 C.3    50  ARG50       0.1563
     60  C        -16.8490   11.5030    9.6600 C.2    50  ARG50       0.2260
     61  O        -17.7580   11.2830   10.4160 O.2    50  ARG50      -0.2867
     62  CB       -17.9270   10.8780    7.4360 C.3    50  ARG50       0.0307
     63  CG       -17.8700   10.0760    6.1550 C.3    50  ARG50       0.0489
     64  CD       -19.0880   10.3010    5.2690 C.3    50  ARG50       0.2205
     65  NE       -18.9520    9.4360    4.0820 N.pl3  50  ARG50      -0.0865
     66  CZ       -19.8360    9.4110    3.1160 C.cat  50  ARG50       0.5346
     67  NH1      -20.9270   10.1660    3.1470 N.pl3  50  ARG50       0.1354
     68  NH2      -19.6590    8.5680    2.0930 N.pl3  50  ARG50       0.1354
     69  N        -19.7990    5.2300    7.3870 N.3    60  VAL60      -0.1245
     70  CA       -20.5380    4.7800    6.1850 C.3    60  VAL60       0.1561
     71  C        -19.8460    3.5210    5.6360 C.2    60  VAL60       0.2260
     72  O        -18.6550    3.5110    5.4470 O.2    60  VAL60      -0.2867
     73  CB       -20.5520    5.9000    5.1120 C.3    60  VAL60       0.0252
     74  CG1      -21.3050    5.4050    3.8820 C.3    60  VAL60       0.0019
     75  CG2      -21.2170    7.1560    5.6920 C.3    60  VAL60       0.0019
     76  N        -20.2580    0.5410    2.4530 N.3    62  ASN62      -0.1240
     77  CA       -20.8740    0.3160    1.1560 C.3    62  ASN62       0.1653
     78  C        -19.9670   -0.5900    0.3050 C.2    62  ASN62       0.2266
     79  O        -18.8900   -1.0040    0.6880 O.2    62  ASN62      -0.2867
     80  CB       -21.1710    1.6800    0.4510 C.3    62  ASN62       0.1155
     81  CG       -22.2950    1.6400   -0.5300 C.2    62  ASN62       0.2627
     82  OD1      -22.9060    0.5960   -0.8560 O.2    62  ASN62      -0.2716
     83  ND2      -22.7060    2.8280   -0.9760 N.am   62  ASN62      -0.0877
     84  N        -21.6540    3.0390   -6.5180 N.3    69  TRP69      -0.1227
     85  CA       -21.9100    2.7870   -5.1290 C.3    69  TRP69       0.1737
     86  C        -23.3420    2.2670   -4.9320 C.2    69  TRP69       0.2596
     87  O        -24.2560    2.7710   -5.5530 O.2    69  TRP69      -0.2718
     88  CB       -21.6260    4.0300   -4.2620 C.3    69  TRP69       0.0564
     89  CG       -20.2020    4.3990   -4.2140 C.ar   69  TRP69       0.0003
     90  CD1      -19.5150    5.4230   -4.8650 C.ar   69  TRP69       0.0946
     91  CD2      -19.1670    3.6800   -3.4610 C.ar   69  TRP69       0.0152
     92  NE1      -18.1830    5.3800   -4.5600 N.ar   69  TRP69      -0.2442
     93  CE2      -17.9560    4.3340   -3.6820 C.ar   69  TRP69       0.0810
     94  CE3      -19.1690    2.5500   -2.6050 C.ar   69  TRP69       0.0012
     95  CZ2      -16.7840    3.8950   -3.0860 C.ar   69  TRP69       0.0191
     96  CZ3      -18.0370    2.1310   -2.0570 C.ar   69  TRP69       0.0001
     97  CH2      -16.8900    2.7870   -2.2560 C.ar   69  TRP69       0.0015
     98  N        -23.4820    1.3190   -4.0030 N.am   70  GLY70      -0.1957
     99  CA       -24.7040    0.6940   -3.6870 C.3    70  GLY70       0.1869
    100  C        -25.4110    1.4160   -2.5340 C.2    70  GLY70       0.2309
    101  O        -25.1950    2.6320   -2.2730 O.2    70  GLY70      -0.2863
    102  N        -25.9350    2.4270    1.1070 N.3    72  GLU72      -0.1245
    103  CA       -25.0860    2.6110    2.2580 C.3    72  GLU72       0.1567
    104  C        -25.6900    1.9700    3.4820 C.2    72  GLU72       0.2260
    105  O        -26.9240    1.9180    3.6500 O.2    72  GLU72      -0.2867
    106  CB       -24.8850    4.1090    2.5500 C.3    72  GLU72       0.0388
    107  CG       -24.1090    4.8410    1.5010 C.3    72  GLU72       0.1160
    108  CD       -23.8870    6.3250    1.7820 C.2    72  GLU72       0.3649
    109  OE1      -24.6610    6.9290    2.5920 O.co2  72  GLU72      -0.2457
    110  OE2      -23.0070    6.8820    1.1330 O.co2  72  GLU72      -0.2457
    111  N         -6.7160    4.7450    3.3950 N.3   125  SER125     -0.1202
    112  CA        -6.5580    6.1550    2.9730 C.3   125  SER125      0.2020
    113  C         -7.2120    7.0680    4.0270 C.2   125  SER125      0.2619
    114  O         -7.9490    6.6420    4.8930 O.2   125  SER125     -0.2717
    115  CB        -7.1770    6.3750    1.6310 C.3   125  SER125      0.2103
    116  OG        -8.4930    6.0610    1.5670 O.3   125  SER125     -0.2182
    117  N         -6.8630    8.3240    3.8820 N.am  126  GLY126     -0.1956
    118  CA        -7.4570    9.3860    4.6660 C.3   126  GLY126      0.1869
    119  C         -6.5490    9.9020    5.7760 C.2   126  GLY126      0.2309
    120  O         -5.3360    9.8780    5.7020 O.2   126  GLY126     -0.2863
@<TRIPOS>BOND
     1    84    85    1
     2    87    86    2
     3    85    86    1
     4    85    88    1
     5    86    98   am
     6    90    92   ar
     7    90    89   ar
     8    92    93   ar
     9    88    89    1
    10    89    91   ar
    11    98    99    1
    12    99   100    1
    13    93    91   ar
    14    93    95   ar
    15    91    94   ar
    16    95    97   ar
    17    94    96   ar
    18   100   101    2
    19    97    96   ar
    20    83    81   am
    21    82    81    2
    22     6     7    1
    23     6     5    1
    24    38    37   ar
    25    81    80    1
    26    36    37    1
    27    36    33    1
    28     7     1    1
    29     5     2    1
    30    37    39   ar
    31    17    16    1
    32     4     3    2
    33    35    34    2
    34    18    16    1
    35    78    79    2
    36    78    77    1
    37    80    77    1
    38    34    33    1
    39    16    15    2
    40    46    48   ar
    41    46    45   ar
    42     3     2    1
    43    33    32    1
    44     1     2    1
    45    48    49   ar
    46    44    45    1
    47    44    41    1
    48   102   103    1
    49   110   108   ar
    50    77    76    1
    51    45    47   ar
    52    49    47   ar
    53   107   108    1
    54   107   106    1
    55   116   115    1
    56   115   112    1
    57    40    41    1
    58   108   109   ar
    59    41    42    1
    60    15    14    1
    61    68    66    1
    62   103   106    1
    63   103   104    1
    64    14    13    1
    65   112   111    1
    66   112   113    1
    67    31    28    1
    68    66    67    1
    69    66    65    2
    70    42    43    2
    71   104   105    2
    72    56    55    2
    73    74    73    1
    74   117   113   am
    75   117   118    1
    76   113   114    2
    77    65    64    1
    78    30    29    2
    79    55    54    1
    80    55    57   am
    81    13    12    2
    82    29    28    1
    83    28    27    1
    84    54    51    1
    85   118   119    1
    86    73    75    1
    87    73    70    1
    88    27    21   am
    89    12     9    1
    90    64    63    1
    91    72    71    2
    92    71    70    1
    93   120   119    2
    94    21    22    2
    95    21    20    1
    96    51    50    1
    97    51    52    1
    98    63    62    1
    99    70    69    1
   100     9    10    1
   101     9     8    1
   102    11    10    2
   103    10    19   am
   104    20    19    1
   105    20    23    1
   106    53    52    2
   107    62    59    1
   108    25    23    1
   109    23    24    1
   110    59    58    1
   111    59    60    1
   112    24    26    1
   113    60    61    2
