@<TRIPOS>MOLECULE
tmp/6eomA00.pdb
 100 95 0 0 0
SMALL
GASTEIGER

@<TRIPOS>ATOM
      1  N          0.6940    4.6160  -27.1400 N.3   280  THR280     -0.1218
      2  CA         0.0170    4.5520  -25.8490 C.3   280  THR280      0.1862
      3  C         -1.4310    5.0190  -25.9320 C.2   280  THR280      0.2287
      4  O         -2.2730    4.5530  -25.1560 O.2   280  THR280     -0.2866
      5  CB         0.7780    5.3760  -24.8120 C.3   280  THR280      0.1770
      6  OG1        0.0930    5.3110  -23.5540 O.3   280  THR280     -0.2211
      7  CG2        0.9010    6.8310  -25.2540 C.3   280  THR280      0.0375
      8  N         -6.8690    1.0830  -24.9430 N.3   284  VAL284     -0.1231
      9  CA        -6.8970    1.3270  -23.5050 C.3   284  VAL284      0.1692
     10  C         -5.7350    2.2350  -23.1260 C.2   284  VAL284      0.2592
     11  O         -4.6220    2.1040  -23.6530 O.2   284  VAL284     -0.2718
     12  CB        -6.8490   -0.0050  -22.7330 C.3   284  VAL284      0.0266
     13  CG1       -6.5850    0.2320  -21.2560 C.3   284  VAL284      0.0020
     14  CG2       -8.1430   -0.7780  -22.9290 C.3   284  VAL284      0.0020
     15  N         -5.9870    3.1580  -22.2010 N.am  285  GLN285     -0.1966
     16  CA        -5.0120    4.1700  -21.8300 C.3   285  GLN285      0.1733
     17  C         -4.0620    3.6650  -20.7520 C.2   285  GLN285      0.2617
     18  O         -4.4080    2.8090  -19.9330 O.2   285  GLN285     -0.2715
     19  CB        -5.7140    5.4390  -21.3500 C.3   285  GLN285      0.0408
     20  CG        -6.6330    6.0290  -22.3950 C.3   285  GLN285      0.0908
     21  CD        -5.9430    6.1870  -23.7340 C.2   285  GLN285      0.2608
     22  OE1       -4.9140    6.8530  -23.8380 O.2   285  GLN285     -0.2717
     23  NE2       -6.5030    5.5680  -24.7650 N.am  285  GLN285     -0.0878
     24  N         -2.8530    4.2170  -20.7640 N.am  286  THR286     -0.1937
     25  CA        -1.8210    3.8350  -19.8160 C.3   286  THR286      0.2028
     26  C         -2.0290    4.5430  -18.4830 C.2   286  THR286      0.2642
     27  O         -2.3210    5.7420  -18.4380 O.2   286  THR286     -0.2714
     28  CB        -0.4390    4.1730  -20.3800 C.3   286  THR286      0.1808
     29  OG1       -0.2520    3.4920  -21.6270 O.3   286  THR286     -0.2208
     30  CG2        0.6570    3.7600  -19.4140 C.3   286  THR286      0.0379
     31  N         -1.8910    3.7850  -17.3950 N.am  287  LEU287     -0.1963
     32  CA        -1.9010    4.3490  -16.0520 C.3   287  LEU287      0.1728
     33  C         -0.5110    4.7240  -15.5630 C.2   287  LEU287      0.2616
     34  O         -0.3820    5.6330  -14.7350 O.2   287  LEU287     -0.2715
     35  CB        -2.5290    3.3620  -15.0620 C.3   287  LEU287      0.0311
     36  CG        -4.0520    3.2290  -15.0680 C.3   287  LEU287      0.0022
     37  CD1       -4.4920    2.2140  -14.0260 C.3   287  LEU287      0.0001
     38  CD2       -4.6990    4.5800  -14.8120 C.3   287  LEU287      0.0001
     39  N          0.5230    4.0470  -16.0590 N.am  288  ALA288     -0.1977
     40  CA         1.9070    4.2870  -15.6780 C.3   288  ALA288      0.1597
     41  C          2.8000    3.5220  -16.6400 C.2   288  ALA288      0.2287
     42  O          2.4460    2.4220  -17.0680 O.2   288  ALA288     -0.2864
     43  CB         2.1780    3.8420  -14.2340 C.3   288  ALA288      0.0319
     44  N         -9.9190    7.1500  -14.4930 N.3   315  LYS315     -0.1245
     45  CA       -10.3150    5.7470  -14.4320 C.3   315  LYS315      0.1561
     46  C        -11.0440    5.4330  -13.1310 C.2   315  LYS315      0.2260
     47  O        -11.9670    4.6100  -13.1110 O.2   315  LYS315     -0.2867
     48  CB        -9.0850    4.8530  -14.6000 C.3   315  LYS315      0.0271
     49  CG        -8.4470    4.9480  -15.9790 C.3   315  LYS315      0.0035
     50  CD        -8.0510    3.5830  -16.5190 C.3   315  LYS315      0.0206
     51  CE        -6.9140    3.6950  -17.5240 C.3   315  LYS315      0.1093
     52  NZ        -6.8630    2.5230  -18.4370 N.3   315  LYS315     -0.1314
     53  N        -12.1220   -4.6050  -12.5420 N.3   419  ARG419     -0.1231
     54  CA       -11.7780   -3.6960  -13.6300 C.3   419  ARG419      0.1694
     55  C        -10.6960   -4.3090  -14.5090 C.2   419  ARG419      0.2592
     56  O        -10.7870   -4.2750  -15.7410 O.2   419  ARG419     -0.2718
     57  CB       -11.3150   -2.3460  -13.0770 C.3   419  ARG419      0.0321
     58  CG       -10.9840   -1.3230  -14.1590 C.3   419  ARG419      0.0489
     59  CD       -10.3130   -0.0820  -13.5850 C.3   419  ARG419      0.2205
     60  NE        -8.9550   -0.3580  -13.1240 N.pl3 419  ARG419     -0.0865
     61  CZ        -7.8750   -0.3020  -13.8970 C.cat 419  ARG419      0.5346
     62  NH1       -7.9890    0.0210  -15.1780 N.pl3 419  ARG419      0.1354
     63  NH2       -6.6800   -0.5710  -13.3900 N.pl3 419  ARG419      0.1354
     64  N         -9.6730   -4.8930  -13.8800 N.am  420  THR420     -0.1953
     65  CA        -8.5770   -5.5020  -14.6250 C.3   420  THR420      0.1897
     66  C         -9.0480   -6.7110  -15.4250 C.2   420  THR420      0.2313
     67  O         -8.6640   -6.8830  -16.5880 O.2   420  THR420     -0.2863
     68  CB        -7.4580   -5.9050  -13.6620 C.3   420  THR420      0.1794
     69  OG1       -6.9380   -4.7380  -13.0130 O.3   420  THR420     -0.2208
     70  CG2       -6.3350   -6.6160  -14.4010 C.3   420  THR420      0.0378
     71  N        -10.5690   -6.6670  -18.9940 N.3   423  PHE423     -0.1241
     72  CA        -9.6770   -6.5760  -20.1430 C.3   423  PHE423      0.1605
     73  C         -9.3800   -7.9390  -20.7530 C.2   423  PHE423      0.2264
     74  O         -8.9670   -8.0060  -21.9160 O.2   423  PHE423     -0.2867
     75  CB        -8.3670   -5.8970  -19.7420 C.3   423  PHE423      0.0534
     76  CG        -8.5160   -4.4430  -19.4040 C.ar  423  PHE423     -0.0203
     77  CD1       -9.3120   -3.6170  -20.1810 C.ar  423  PHE423     -0.0042
     78  CD2       -7.8630   -3.9020  -18.3100 C.ar  423  PHE423     -0.0042
     79  CE1       -9.4520   -2.2780  -19.8740 C.ar  423  PHE423     -0.0003
     80  CE2       -7.9990   -2.5620  -17.9970 C.ar  423  PHE423     -0.0003
     81  CZ        -8.7940   -1.7500  -18.7820 C.ar  423  PHE423     -0.0000
     82  N         -4.7260  -12.5180  -20.3870 N.3   427  GLU427     -0.1245
     83  CA        -3.5640  -11.6520  -20.2610 C.3   427  GLU427      0.1567
     84  C         -2.8960  -11.8740  -18.9080 C.2   427  GLU427      0.2260
     85  O         -3.5290  -12.3070  -17.9420 O.2   427  GLU427     -0.2867
     86  CB        -3.9640  -10.1850  -20.4230 C.3   427  GLU427      0.0388
     87  CG        -4.7930   -9.9540  -21.6870 C.3   427  GLU427      0.1160
     88  CD        -5.2390   -8.5370  -21.9510 C.2   427  GLU427      0.3649
     89  OE1       -4.8670   -7.6240  -21.2300 O.co2 427  GLU427     -0.2457
     90  OE2       -6.0790   -8.3210  -22.8880 O.co2 427  GLU427     -0.2457
     91  N         -1.7020   -9.8640  -16.5740 N.3   429  HIS429     -0.1241
     92  CA        -2.2350   -9.1100  -15.4450 C.3   429  HIS429      0.1621
     93  C         -3.6030   -9.6360  -15.0260 C.2   429  HIS429      0.2264
     94  O         -3.8740   -9.7940  -13.8300 O.2   429  HIS429     -0.2867
     95  CB        -2.3140   -7.6260  -15.7980 C.3   429  HIS429      0.0745
     96  CG        -2.5410   -6.7360  -14.6160 C.ar  429  HIS429      0.0817
     97  ND1       -3.0290   -5.4520  -14.7340 N.ar  429  HIS429     -0.2268
     98  CD2       -2.3420   -6.9440  -13.2930 C.ar  429  HIS429      0.1154
     99  CE1       -3.1230   -4.9090  -13.5330 C.ar  429  HIS429      0.1986
    100  NE2       -2.7120   -5.7930  -12.6420 N.ar  429  HIS429     -0.2212
@<TRIPOS>BOND
     1     1     2    1
     2     3     2    1
     3     3     4    2
     4     2     5    1
     5     7     5    1
     6     8     9    1
     7     5     6    1
     8    23    21   am
     9    22    21    2
    10    21    20    1
    11    11    10    2
    12     9    10    1
    13     9    12    1
    14    10    15   am
    15    14    12    1
    16    90    88   ar
    17    12    13    1
    18    20    19    1
    19    15    16    1
    20    88    87    1
    21    88    89   ar
    22    74    73    2
    23    16    19    1
    24    16    17    1
    25    87    86    1
    26    29    28    1
    27    24    17   am
    28    24    25    1
    29    73    72    1
    30    17    18    2
    31    86    83    1
    32    82    83    1
    33    28    25    1
    34    28    30    1
    35    83    84    1
    36    77    79   ar
    37    77    76   ar
    38    72    75    1
    39    72    71    1
    40    79    81   ar
    41    25    26    1
    42    75    76    1
    43    76    78   ar
    44    84    85    2
    45    81    80   ar
    46    26    27    2
    47    26    31   am
    48    52    51    1
    49    78    80   ar
    50    51    50    1
    51    31    32    1
    52    42    41    2
    53    41    40    1
    54    67    66    2
    55    91    92    1
    56    50    49    1
    57    39    40    1
    58    39    33   am
    59    32    33    1
    60    32    35    1
    61    49    48    1
    62    95    92    1
    63    95    96    1
    64    56    55    2
    65    40    43    1
    66    33    34    2
    67    92    93    1
    68    66    65    1
    69    62    61    1
    70    36    35    1
    71    36    38    1
    72    36    37    1
    73    93    94    2
    74    97    96   ar
    75    97    99   ar
    76    65    64    1
    77    65    68    1
    78    96    98   ar
    79    48    45    1
    80    55    64   am
    81    55    54    1
    82    44    45    1
    83    45    46    1
    84    70    68    1
    85    58    59    1
    86    58    57    1
    87    61    63    1
    88    61    60    2
    89    68    69    1
    90    54    57    1
    91    54    53    1
    92    59    60    1
    93    99   100   ar
    94    98   100   ar
    95    46    47    2
