@<TRIPOS>MOLECULE
tmp/6eonA00.pdb
 166 165 0 0 0
SMALL
GASTEIGER

@<TRIPOS>ATOM
      1  N        -16.1130  -37.2530   35.6630 N.3    52  TYR52      -0.1241
      2  CA       -14.8250  -36.6140   35.8730 C.3    52  TYR52       0.1605
      3  C        -15.0540  -35.1450   36.1960 C.2    52  TYR52       0.2264
      4  O        -16.0750  -34.5680   35.7910 O.2    52  TYR52      -0.2867
      5  CB       -14.0220  -36.6880   34.5860 C.3    52  TYR52       0.0534
      6  CG       -13.3550  -38.0310   34.2730 C.ar   52  TYR52      -0.0201
      7  CD1      -12.5490  -38.6590   35.1950 C.ar   52  TYR52      -0.0009
      8  CD2      -13.4890  -38.6020   33.0230 C.ar   52  TYR52      -0.0009
      9  CE1      -11.9030  -39.8470   34.9050 C.ar   52  TYR52       0.0417
     10  CE2      -12.8710  -39.7910   32.6940 C.ar   52  TYR52       0.0417
     11  CZ       -12.0600  -40.4150   33.6180 C.ar   52  TYR52       0.1957
     12  OH       -11.4390  -41.5970   33.2470 O.3    52  TYR52      -0.2866
     13  N         -7.4800  -36.8850   33.9640 N.3    95  VAL95      -0.1231
     14  CA        -8.6670  -37.6930   33.7100 C.3    95  VAL95       0.1692
     15  C         -8.6930  -38.4190   32.3680 C.2    95  VAL95       0.2592
     16  O         -9.6030  -39.2190   32.1540 O.2    95  VAL95      -0.2718
     17  CB        -9.9490  -36.8530   33.8670 C.3    95  VAL95       0.0266
     18  CG1      -10.0370  -36.2730   35.2680 C.3    95  VAL95       0.0020
     19  CG2      -10.0330  -35.7480   32.8240 C.3    95  VAL95       0.0020
     20  N         -7.7180  -38.1580   31.4790 N.am   96  CYS96      -0.1956
     21  CA        -7.6130  -38.8350   30.1760 C.3    96  CYS96       0.1843
     22  C         -8.8250  -38.4870   29.2990 C.2    96  CYS96       0.2625
     23  O         -8.8770  -37.3800   28.7460 O.2    96  CYS96      -0.2714
     24  CB        -7.4290  -40.3560   30.3810 C.3    96  CYS96       0.0997
     25  SG        -6.9430  -41.2990   28.9250 S.3    96  CYS96      -0.0797
     26  N         -9.8180  -39.3830   29.2280 N.am   97  ALA97      -0.1963
     27  CA       -11.1540  -39.0540   28.7380 C.3    97  ALA97       0.1728
     28  C        -11.2660  -38.5510   27.2940 C.2    97  ALA97       0.2616
     29  O        -12.2380  -37.8510   26.9730 O.2    97  ALA97      -0.2715
     30  CB       -11.7970  -38.0350   29.6730 C.3    97  ALA97       0.0334
     31  N        -10.2820  -38.8390   26.4510 N.am   98  GLU98      -0.1977
     32  CA       -10.2320  -38.3010   25.0850 C.3    98  GLU98       0.1602
     33  C        -10.4630  -36.7570   25.0420 C.2    98  GLU98       0.2287
     34  O        -11.1900  -36.2310   24.1890 O.2    98  GLU98      -0.2864
     35  CB       -11.2310  -39.0160   24.1630 C.3    98  GLU98       0.0415
     36  CG       -10.8880  -40.4690   23.8430 C.3    98  GLU98       0.1163
     37  CD       -11.0190  -41.3850   25.0300 C.2    98  GLU98       0.3649
     38  OE1      -12.1790  -41.6390   25.4470 O.co2  98  GLU98      -0.2457
     39  OE2       -9.9700  -41.8850   25.5360 O.co2  98  GLU98      -0.2457
     40  N         -6.0320  -41.3620   37.8160 N.3   156  ASN156     -0.1225
     41  CA        -6.7610  -42.1440   36.7960 C.3   156  ASN156      0.1785
     42  C         -5.8420  -43.0550   36.0110 C.2   156  ASN156      0.2597
     43  O         -5.0070  -42.5690   35.2240 O.2   156  ASN156     -0.2718
     44  CB        -7.4640  -41.1780   35.8150 C.3   156  ASN156      0.1169
     45  CG        -8.3770  -41.8910   34.8300 C.2   156  ASN156      0.2627
     46  OD1       -9.5580  -42.1380   35.1290 O.2   156  ASN156     -0.2716
     47  ND2       -7.8370  -42.2470   33.6610 N.am  156  ASN156     -0.0877
     48  N         -5.9760  -44.3660   36.2300 N.am  157  ALA157     -0.1979
     49  CA        -5.2740  -45.3800   35.4450 C.3   157  ALA157      0.1597
     50  C         -3.7830  -45.1220   35.3340 C.2   157  ALA157      0.2287
     51  O         -3.1770  -45.1710   34.2490 O.2   157  ALA157     -0.2864
     52  CB        -5.9120  -45.4920   34.0630 C.3   157  ALA157      0.0319
     53  N         -6.0440  -51.3900   34.7850 N.3   190  TRP190     -0.1241
     54  CA        -6.3490  -52.6100   34.0450 C.3   190  TRP190      0.1605
     55  C         -6.0010  -53.8340   34.8920 C.2   190  TRP190      0.2264
     56  O         -5.1870  -53.7540   35.8300 O.2   190  TRP190     -0.2867
     57  CB        -5.5440  -52.6470   32.7650 C.3   190  TRP190      0.0550
     58  CG        -5.7760  -51.5180   31.8280 C.ar  190  TRP190      0.0003
     59  CD1       -6.8780  -50.7040   31.7560 C.ar  190  TRP190      0.0946
     60  CD2       -4.8990  -51.1060   30.7810 C.ar  190  TRP190      0.0152
     61  NE1       -6.7490  -49.8220   30.6990 N.ar  190  TRP190     -0.2442
     62  CE2       -5.5240  -50.0220   30.1080 C.ar  190  TRP190      0.0810
     63  CE3       -3.6300  -51.5240   30.3600 C.ar  190  TRP190      0.0012
     64  CZ2       -4.9380  -49.3800   29.0080 C.ar  190  TRP190      0.0191
     65  CZ3       -3.0420  -50.8580   29.2720 C.ar  190  TRP190      0.0001
     66  CH2       -3.7010  -49.8110   28.6150 C.ar  190  TRP190      0.0015
     67  N        -10.8710  -51.5840   35.0180 N.3   207  ASN207     -0.1240
     68  CA       -11.5380  -51.1000   33.8040 C.3   207  ASN207      0.1653
     69  C        -11.3630  -52.1130   32.6550 C.2   207  ASN207      0.2266
     70  O        -10.2580  -52.6250   32.4270 O.2   207  ASN207     -0.2867
     71  CB       -10.9030  -49.7640   33.3840 C.3   207  ASN207      0.1155
     72  CG       -11.0420  -48.6710   34.4440 C.2   207  ASN207      0.2627
     73  OD1      -11.9590  -48.7010   35.2930 O.2   207  ASN207     -0.2716
     74  ND2      -10.1410  -47.6760   34.3880 N.am  207  ASN207     -0.0877
     75  N        -14.8640  -48.6120   34.9120 N.3   234  GLU234     -0.1245
     76  CA       -15.2250  -48.2400   33.5270 C.3   234  GLU234      0.1567
     77  C        -15.4700  -49.4980   32.7280 C.2   234  GLU234      0.2260
     78  O        -14.5390  -50.2510   32.4570 O.2   234  GLU234     -0.2867
     79  CB       -14.1090  -47.4460   32.8350 C.3   234  GLU234      0.0388
     80  CG       -13.7020  -46.1290   33.4670 C.3   234  GLU234      0.1160
     81  CD       -12.5230  -45.5070   32.7350 C.2   234  GLU234      0.3649
     82  OE1      -12.2660  -45.8750   31.5400 O.co2 234  GLU234     -0.2457
     83  OE2      -11.8470  -44.6590   33.3550 O.co2 234  GLU234     -0.2457
     84  N        -16.4950  -50.4170   29.1560 N.3   236  TRP236     -0.1241
     85  CA       -16.5640  -49.6480   27.9260 C.3   236  TRP236      0.1605
     86  C        -17.7370  -50.1370   27.0630 C.2   236  TRP236      0.2264
     87  O        -17.7980  -51.3020   26.6750 O.2   236  TRP236     -0.2867
     88  CB       -15.2330  -49.5840   27.1550 C.3   236  TRP236      0.0550
     89  CG       -14.1460  -49.0300   28.0360 C.ar  236  TRP236      0.0003
     90  CD1      -14.1810  -47.8690   28.7500 C.ar  236  TRP236      0.0946
     91  CD2      -12.8750  -49.6320   28.2940 C.ar  236  TRP236      0.0152
     92  NE1      -13.0040  -47.7220   29.4630 N.ar  236  TRP236     -0.2442
     93  CE2      -12.1920  -48.7960   29.2010 C.ar  236  TRP236      0.0810
     94  CE3      -12.2580  -50.8140   27.8530 C.ar  236  TRP236      0.0012
     95  CZ2      -10.9070  -49.1090   29.6980 C.ar  236  TRP236      0.0191
     96  CZ3      -10.9910  -51.1370   28.3270 C.ar  236  TRP236      0.0001
     97  CH2      -10.3250  -50.2800   29.2580 C.ar  236  TRP236      0.0015
     98  N        -16.8450  -47.2600   21.7830 N.3   239  TRP239     -0.1227
     99  CA       -15.4960  -46.6900   21.6970 C.3   239  TRP239      0.1737
    100  C        -15.5430  -45.3460   21.0100 C.2   239  TRP239      0.2595
    101  O        -16.5530  -44.9600   20.4250 O.2   239  TRP239     -0.2718
    102  CB       -14.5670  -47.6460   20.9420 C.3   239  TRP239      0.0564
    103  CG       -13.1000  -47.6090   21.2950 C.ar  239  TRP239      0.0003
    104  CD1      -12.0530  -47.4290   20.4250 C.ar  239  TRP239      0.0946
    105  CD2      -12.5220  -47.7930   22.5860 C.ar  239  TRP239      0.0152
    106  NE1      -10.8570  -47.4920   21.1030 N.ar  239  TRP239     -0.2442
    107  CE2      -11.1240  -47.7260   22.4330 C.ar  239  TRP239      0.0810
    108  CE3      -13.0510  -48.0010   23.8700 C.ar  239  TRP239      0.0012
    109  CZ2      -10.2510  -47.8610   23.5110 C.ar  239  TRP239      0.0191
    110  CZ3      -12.1790  -48.1250   24.9470 C.ar  239  TRP239      0.0001
    111  CH2      -10.7910  -48.0690   24.7530 C.ar  239  TRP239      0.0015
    112  N        -14.4230  -44.6340   21.0680 N.am  240  PHE240     -0.1976
    113  CA       -14.2820  -43.3190   20.4560 C.3   240  PHE240      0.1639
    114  C        -13.7320  -43.4720   19.0240 C.2   240  PHE240      0.2290
    115  O        -13.1160  -44.4990   18.6730 O.2   240  PHE240     -0.2864
    116  CB       -13.3170  -42.4340   21.2860 C.3   240  PHE240      0.0560
    117  CG       -12.0110  -43.1070   21.5790 C.ar  240  PHE240     -0.0200
    118  CD1      -10.9830  -43.1470   20.6200 C.ar  240  PHE240     -0.0042
    119  CD2      -11.8230  -43.7840   22.7820 C.ar  240  PHE240     -0.0042
    120  CE1       -9.8220  -43.8610   20.8670 C.ar  240  PHE240     -0.0003
    121  CE2      -10.6380  -44.4640   23.0430 C.ar  240  PHE240     -0.0003
    122  CZ        -9.6420  -44.5140   22.0950 C.ar  240  PHE240     -0.0000
    123  N        -19.1720  -46.7720   30.7580 N.3   272  TYR272     -0.1241
    124  CA       -18.4060  -45.6710   30.1780 C.3   272  TYR272      0.1605
    125  C        -18.4530  -45.8110   28.6570 C.2   272  TYR272      0.2264
    126  O        -17.9080  -46.7780   28.1750 O.2   272  TYR272     -0.2867
    127  CB       -16.9240  -45.7350   30.6500 C.3   272  TYR272      0.0534
    128  CG       -16.1040  -44.5130   30.2310 C.ar  272  TYR272     -0.0201
    129  CD1      -15.7300  -44.3100   28.8800 C.ar  272  TYR272     -0.0009
    130  CD2      -15.7610  -43.5310   31.1530 C.ar  272  TYR272     -0.0009
    131  CE1      -15.0270  -43.1950   28.4820 C.ar  272  TYR272      0.0417
    132  CE2      -15.0450  -42.4010   30.7710 C.ar  272  TYR272      0.0417
    133  CZ       -14.6930  -42.2130   29.4370 C.ar  272  TYR272      0.1957
    134  OH       -14.0500  -41.0480   29.0460 O.3   272  TYR272     -0.2866
    135  N        -19.7460  -42.3090   20.8720 N.3   300  TYR300     -0.1241
    136  CA       -19.1490  -43.4630   21.5290 C.3   300  TYR300      0.1605
    137  C        -19.8660  -44.7880   21.2290 C.2   300  TYR300      0.2264
    138  O        -19.4660  -45.8360   21.7240 O.2   300  TYR300     -0.2867
    139  CB       -19.1020  -43.2460   23.0630 C.3   300  TYR300      0.0534
    140  CG       -17.9140  -43.8860   23.7870 C.ar  300  TYR300     -0.0201
    141  CD1      -16.6940  -43.2240   23.9050 C.ar  300  TYR300     -0.0009
    142  CD2      -18.0400  -45.1380   24.4120 C.ar  300  TYR300     -0.0009
    143  CE1      -15.6240  -43.7800   24.6030 C.ar  300  TYR300      0.0417
    144  CE2      -16.9770  -45.7130   25.1100 C.ar  300  TYR300      0.0417
    145  CZ       -15.7660  -45.0410   25.1950 C.ar  300  TYR300      0.1957
    146  OH       -14.7270  -45.6120   25.8930 O.3   300  TYR300     -0.2866
    147  N         -3.0250  -39.0960   26.7750 N.3   448  PHE448     -0.1241
    148  CA        -2.7250  -40.4820   27.1740 C.3   448  PHE448      0.1605
    149  C         -1.2160  -40.7170   27.0760 C.2   448  PHE448      0.2264
    150  O         -0.5290  -40.1040   26.2410 O.2   448  PHE448     -0.2867
    151  CB        -3.5970  -41.4450   26.3310 C.3   448  PHE448      0.0534
    152  CG        -3.6620  -42.8830   26.8270 C.ar  448  PHE448     -0.0203
    153  CD1       -3.7980  -43.2060   28.1870 C.ar  448  PHE448     -0.0042
    154  CD2       -3.6490  -43.9150   25.9050 C.ar  448  PHE448     -0.0042
    155  CE1       -3.8840  -44.5310   28.5990 C.ar  448  PHE448     -0.0003
    156  CE2       -3.7240  -45.2570   26.3030 C.ar  448  PHE448     -0.0003
    157  CZ        -3.8440  -45.5610   27.6600 C.ar  448  PHE448     -0.0000
    158  N         -4.1820  -49.9070   24.0220 N.3   693  GLN693     -0.1245
    159  CA        -5.5630  -50.2110   24.3930 C.3   693  GLN693      0.1566
    160  C         -5.7150  -51.7430   24.3050 C.2   693  GLN693      0.2260
    161  O         -5.6710  -52.3280   23.2160 O.2   693  GLN693     -0.2867
    162  CB        -6.5440  -49.5000   23.4620 C.3   693  GLN693      0.0367
    163  CG        -6.4520  -47.9800   23.4720 C.3   693  GLN693      0.0905
    164  CD        -6.9180  -47.3380   24.7680 C.2   693  GLN693      0.2608
    165  OE1       -7.4550  -47.9850   25.6720 O.2   693  GLN693     -0.2717
    166  NE2       -6.6920  -46.0360   24.8590 N.am  693  GLN693     -0.0878
@<TRIPOS>BOND
     1   115   114    2
     2   114   113    1
     3   104   106   ar
     4   104   103   ar
     5   101   100    2
     6   113   112    1
     7   113   116    1
     8   118   120   ar
     9   118   117   ar
    10   120   122   ar
    11   135   136    1
    12   102   103    1
    13   102    99    1
    14   100   112   am
    15   100    99    1
    16   106   107   ar
    17   137   136    1
    18   137   138    2
    19   116   117    1
    20   103   105   ar
    21   136   139    1
    22   117   119   ar
    23    99    98    1
    24   122   121   ar
    25   107   105   ar
    26   107   109   ar
    27   105   108   ar
    28   119   121   ar
    29   139   140    1
    30   161   160    2
    31   162   163    1
    32   162   159    1
    33   163   164    1
    34   109   111   ar
    35   140   141   ar
    36   140   142   ar
    37    36    35    1
    38    36    37    1
    39   108   110   ar
    40   141   143   ar
    41   158   159    1
    42    35    32    1
    43    34    33    2
    44   160   159    1
    45   142   144   ar
    46   143   145   ar
    47   111   110   ar
    48   164   166   am
    49   164   165    2
    50    37    38   ar
    51    37    39   ar
    52    33    32    1
    53    32    31    1
    54   144   145   ar
    55   145   146    1
    56   154   156   ar
    57   154   152   ar
    58   150   149    2
    59   156   157   ar
    60   151   152    1
    61   151   148    1
    62    31    28   am
    63    87    86    2
    64   147   148    1
    65   152   153   ar
    66    29    28    2
    67    86    85    1
    68   149   148    1
    69    88    85    1
    70    88    89    1
    71    28    27    1
    72   157   155   ar
    73    94    91   ar
    74    94    96   ar
    75    85    84    1
    76    89    91   ar
    77    89    90   ar
    78   126   125    2
    79   153   155   ar
    80    91    93   ar
    81    96    97   ar
    82   131   129   ar
    83   131   133   ar
    84    66    64   ar
    85    66    65   ar
    86   125   124    1
    87    27    26    1
    88    27    30    1
    89    23    22    2
    90    90    92   ar
    91   129   128   ar
    92    25    24    1
    93    64    62   ar
    94   134   133    1
    95    93    92   ar
    96    93    95   ar
    97    26    22   am
    98    97    95   ar
    99    65    63   ar
   100    22    21    1
   101   133   132   ar
   102    62    61   ar
   103    62    60   ar
   104    21    24    1
   105    21    20    1
   106   124   127    1
   107   124   123    1
   108   128   127    1
   109   128   130   ar
   110    63    60   ar
   111    61    59   ar
   112   132   130   ar
   113    60    58   ar
   114    20    15   am
   115    82    81   ar
   116    59    58   ar
   117    58    57    1
   118    16    15    2
   119    15    14    1
   120    70    69    2
   121    78    77    2
   122    69    68    1
   123    10     8   ar
   124    10    11   ar
   125    77    76    1
   126    81    83   ar
   127    81    80    1
   128    57    54    1
   129    19    17    1
   130    79    80    1
   131    79    76    1
   132     8     6   ar
   133    12    11    1
   134    71    68    1
   135    71    72    1
   136    76    75    1
   137    11     9   ar
   138    47    45   am
   139    14    17    1
   140    14    13    1
   141    68    67    1
   142    17    18    1
   143    54    53    1
   144    54    55    1
   145    52    49    1
   146    51    50    2
   147     6     5    1
   148     6     7   ar
   149    74    72   am
   150    72    73    2
   151     5     2    1
   152    45    46    2
   153    45    44    1
   154    55    56    2
   155     9     7   ar
   156    43    42    2
   157    50    49    1
   158    49    48    1
   159     1     2    1
   160     4     3    2
   161    44    41    1
   162     2     3    1
   163    42    48   am
   164    42    41    1
   165    41    40    1
