@<TRIPOS>MOLECULE
tmp/6eopA02.pdb
 170 166 0 0 0
SMALL
GASTEIGER

@<TRIPOS>ATOM
      1  N         14.9000   19.8720  255.7920 N.3    18  LEU18      -0.1245
      2  CA        16.1550   20.2510  256.4420 C.3    18  LEU18       0.1561
      3  C         16.9950   21.2070  255.5880 C.2    18  LEU18       0.2260
      4  O         17.5780   22.1560  256.1140 O.2    18  LEU18      -0.2867
      5  CB        16.9640   19.0020  256.8140 C.3    18  LEU18       0.0270
      6  CG        16.3830   18.1520  257.9510 C.3    18  LEU18       0.0019
      7  CD1       16.9860   16.7570  257.9430 C.3    18  LEU18       0.0001
      8  CD2       16.5980   18.8110  259.3070 C.3    18  LEU18       0.0001
      9  N         17.9020   16.0930  274.8250 N.3   611  PHE611     -0.1227
     10  CA        19.2720   16.3430  274.3770 C.3   611  PHE611      0.1736
     11  C         20.1710   16.5290  275.5970 C.2   611  PHE611      0.2595
     12  O         19.8500   17.3100  276.4970 O.2   611  PHE611     -0.2718
     13  CB        19.3740   17.5580  273.4610 C.3   611  PHE611      0.0547
     14  CG        20.7570   17.7640  272.9040 C.ar  611  PHE611     -0.0202
     15  CD1       21.1860   17.0460  271.7940 C.ar  611  PHE611     -0.0042
     16  CD2       21.6480   18.6540  273.5100 C.ar  611  PHE611     -0.0042
     17  CE1       22.4700   17.2220  271.2860 C.ar  611  PHE611     -0.0003
     18  CE2       22.9340   18.8310  273.0070 C.ar  611  PHE611     -0.0003
     19  CZ        23.3430   18.1180  271.8910 C.ar  611  PHE611     -0.0000
     20  N         21.3030   15.8250  275.6050 N.am  612  ILE612     -0.1966
     21  CA        22.1700   15.7530  276.7840 C.3   612  ILE612      0.1727
     22  C         23.6470   15.8790  276.4240 C.2   612  ILE612      0.2616
     23  O         24.0920   15.3800  275.3930 O.2   612  ILE612     -0.2715
     24  CB        21.9270   14.4400  277.5770 C.3   612  ILE612      0.0290
     25  CG1       22.6610   14.4570  278.9220 C.3   612  ILE612      0.0022
     26  CG2       22.3110   13.2080  276.7580 C.3   612  ILE612      0.0023
     27  CD1       22.2130   13.3570  279.8600 C.3   612  ILE612      0.0001
     28  N         24.3820   16.5890  277.2750 N.am  613  TYR613     -0.1974
     29  CA        25.8280   16.4650  277.3450 C.3   613  TYR613      0.1639
     30  C         26.1780   15.8770  278.7180 C.2   613  TYR613      0.2290
     31  O         26.6440   14.7420  278.7970 O.2   613  TYR613     -0.2864
     32  CB        26.5430   17.7930  277.0910 C.3   613  TYR613      0.0560
     33  CG        28.0260   17.6000  277.1660 C.ar  613  TYR613     -0.0198
     34  CD1       28.6940   16.8970  276.1750 C.ar  613  TYR613     -0.0009
     35  CD2       28.7550   18.0550  278.2560 C.ar  613  TYR613     -0.0009
     36  CE1       30.0560   16.6780  276.2530 C.ar  613  TYR613      0.0417
     37  CE2       30.1190   17.8400  278.3520 C.ar  613  TYR613      0.0417
     38  CZ        30.7690   17.1480  277.3480 C.ar  613  TYR613      0.1957
     39  OH        32.1250   16.9350  277.4320 O.3   613  TYR613     -0.2866
     40  N         31.5950   21.7600  280.8160 N.3   618  VAL618     -0.1245
     41  CA        30.5530   22.2880  279.9220 C.3   618  VAL618      0.1561
     42  C         29.3000   22.6860  280.7160 C.2   618  VAL618      0.2260
     43  O         28.9220   22.0110  281.6780 O.2   618  VAL618     -0.2867
     44  CB        30.1720   21.2480  278.8400 C.3   618  VAL618      0.0252
     45  CG1       28.9780   21.6950  278.0020 C.3   618  VAL618      0.0019
     46  CG2       31.3550   20.9690  277.9260 C.3   618  VAL618      0.0019
     47  N         25.4740   23.6210  279.2790 N.3   620  LEU620     -0.1245
     48  CA        24.5270   23.8070  278.1680 C.3   620  LEU620      0.1561
     49  C         23.4240   24.8280  278.4430 C.2   620  LEU620      0.2260
     50  O         22.9090   25.4380  277.5040 O.2   620  LEU620     -0.2867
     51  CB        23.8610   22.4800  277.7910 C.3   620  LEU620      0.0270
     52  CG        24.7170   21.3570  277.2060 C.3   620  LEU620      0.0019
     53  CD1       23.8180   20.2130  276.7620 C.3   620  LEU620      0.0001
     54  CD2       25.5650   21.8240  276.0340 C.3   620  LEU620      0.0001
     55  N         24.0240   26.9960  266.9800 N.3   629  LYS629     -0.1231
     56  CA        24.5680   25.6500  267.1780 C.3   629  LYS629      0.1693
     57  C         23.4910   24.6160  267.4940 C.2   629  LYS629      0.2592
     58  O         23.5720   23.4760  267.0310 O.2   629  LYS629     -0.2718
     59  CB        25.6120   25.6780  268.2960 C.3   629  LYS629      0.0285
     60  CG        26.5260   24.4600  268.3670 C.3   629  LYS629      0.0035
     61  CD        27.7960   24.7910  269.1450 C.3   629  LYS629      0.0206
     62  CE        28.7510   23.6140  269.2390 C.3   629  LYS629      0.1093
     63  NZ        28.3180   22.6290  270.2640 N.3   629  LYS629     -0.1314
     64  N         22.4900   25.0250  268.2750 N.am  630  TYR630     -0.1976
     65  CA        21.3580   24.1610  268.6360 C.3   630  TYR630      0.1639
     66  C         20.0640   24.5720  267.9120 C.2   630  TYR630      0.2290
     67  O         18.9680   24.5020  268.4790 O.2   630  TYR630     -0.2864
     68  CB        21.1880   24.1490  270.1600 C.3   630  TYR630      0.0560
     69  CG        22.4610   23.7520  270.8800 C.ar  630  TYR630     -0.0198
     70  CD1       22.7990   22.4080  271.0550 C.ar  630  TYR630     -0.0009
     71  CD2       23.3480   24.7210  271.3590 C.ar  630  TYR630     -0.0009
     72  CE1       23.9710   22.0400  271.7050 C.ar  630  TYR630      0.0417
     73  CE2       24.5230   24.3640  272.0100 C.ar  630  TYR630      0.0417
     74  CZ        24.8310   23.0230  272.1800 C.ar  630  TYR630      0.1957
     75  OH        25.9950   22.6640  272.8240 O.3   630  TYR630     -0.2866
     76  N         18.6730   22.9700  265.4660 N.3   632  ARG632     -0.1231
     77  CA        17.8660   21.7840  265.1830 C.3   632  ARG632      0.1694
     78  C         17.0230   21.2760  266.3490 C.2   632  ARG632      0.2591
     79  O         16.1390   20.4530  266.1340 O.2   632  ARG632     -0.2718
     80  CB        18.7470   20.6630  264.6270 C.3   632  ARG632      0.0321
     81  CG        19.3740   20.9740  263.2710 C.3   632  ARG632      0.0489
     82  CD        18.3170   21.3280  262.2370 C.3   632  ARG632      0.2205
     83  NE        18.8370   21.4550  260.8820 N.pl3 632  ARG632     -0.0865
     84  CZ        18.1370   21.9150  259.8460 C.cat 632  ARG632      0.5346
     85  NH1       16.8690   22.3030  259.9890 N.pl3 632  ARG632      0.1354
     86  NH2       18.7060   21.9910  258.6510 N.pl3 632  ARG632      0.1354
     87  N         17.2800   21.7540  267.5660 N.am  633  LEU633     -0.1980
     88  CA        16.3600   21.5160  268.6820 C.3   633  LEU633      0.1596
     89  C         15.0390   22.2490  268.4340 C.2   633  LEU633      0.2287
     90  O         13.9660   21.7130  268.7120 O.2   633  LEU633     -0.2864
     91  CB        16.9790   21.9400  270.0170 C.3   633  LEU633      0.0297
     92  CG        18.3170   21.2960  270.4050 C.3   633  LEU633      0.0022
     93  CD1       18.6540   21.6260  271.8510 C.3   633  LEU633      0.0001
     94  CD2       18.3310   19.7860  270.2050 C.3   633  LEU633      0.0001
     95  N         13.9990   22.9420  265.3500 N.3   635  THR635     -0.1203
     96  CA        13.4360   22.1380  264.2510 C.3   635  THR635      0.1994
     97  C         12.6480   20.9330  264.7720 C.2   635  THR635      0.2617
     98  O         11.5880   20.6120  264.2310 O.2   635  THR635     -0.2717
     99  CB        14.5280   21.6540  263.2700 C.3   635  THR635      0.1784
    100  OG1       15.2820   22.7740  262.7940 O.3   635  THR635     -0.2211
    101  CG2       13.9200   20.9350  262.0630 C.3   635  THR635      0.0376
    102  N         13.1670   20.2740  265.8110 N.am  636  LEU636     -0.1979
    103  CA        12.4580   19.1700  266.4730 C.3   636  LEU636      0.1596
    104  C         11.1630   19.6640  267.1190 C.2   636  LEU636      0.2287
    105  O         10.1200   19.0160  266.9960 O.2   636  LEU636     -0.2864
    106  CB        13.3490   18.4750  267.5210 C.3   636  LEU636      0.0297
    107  CG        14.4960   17.5800  267.0340 C.3   636  LEU636      0.0022
    108  CD1       15.3780   17.1640  268.2050 C.3   636  LEU636      0.0001
    109  CD2       13.9850   16.3460  266.3030 C.3   636  LEU636      0.0001
    110  N         19.5010   11.7610  273.3560 N.3   695  HIS695     -0.1241
    111  CA        20.5370   11.9390  272.3310 C.3   695  HIS695      0.1621
    112  C         21.6350   12.8850  272.7960 C.2   695  HIS695      0.2264
    113  O         21.3610   13.9290  273.3830 O.2   695  HIS695     -0.2867
    114  CB        19.9320   12.4520  271.0230 C.3   695  HIS695      0.0745
    115  CG        20.9460   12.7430  269.9580 C.ar  695  HIS695      0.0817
    116  ND1       21.9560   11.8640  269.6280 N.ar  695  HIS695     -0.2268
    117  CD2       21.1050   13.8160  269.1470 C.ar  695  HIS695      0.1154
    118  CE1       22.6940   12.3830  268.6620 C.ar  695  HIS695      0.1986
    119  NE2       22.1970   13.5650  268.3490 N.ar  695  HIS695     -0.2212
    120  N         26.3110   13.6750  272.1410 N.3   697  TRP697     -0.1241
    121  CA        27.6030   13.3650  271.5280 C.3   697  TRP697      0.1605
    122  C         28.6940   13.2970  272.5830 C.2   697  TRP697      0.2264
    123  O         28.6550   14.0200  273.5850 O.2   697  TRP697     -0.2867
    124  CB        27.9760   14.4180  270.4880 C.3   697  TRP697      0.0550
    125  CG        27.2740   14.2440  269.1960 C.ar  697  TRP697      0.0003
    126  CD1       26.1180   14.8490  268.8110 C.ar  697  TRP697      0.0946
    127  CD2       27.6700   13.4000  268.1110 C.ar  697  TRP697      0.0152
    128  NE1       25.7700   14.4440  267.5490 N.ar  697  TRP697     -0.2442
    129  CE2       26.7040   13.5520  267.0920 C.ar  697  TRP697      0.0810
    130  CE3       28.7510   12.5330  267.8960 C.ar  697  TRP697      0.0012
    131  CZ2       26.7840   12.8670  265.8660 C.ar  697  TRP697      0.0191
    132  CZ3       28.8310   11.8490  266.6760 C.ar  697  TRP697      0.0001
    133  CH2       27.8510   12.0230  265.6770 C.ar  697  TRP697      0.0015
    134  N         23.6630   12.9540  258.8960 N.3   819  TYR819     -0.1227
    135  CA        23.4370   12.7690  260.3340 C.3   819  TYR819      0.1736
    136  C         22.0960   13.3430  260.7850 C.2   819  TYR819      0.2595
    137  O         21.3170   12.6590  261.4540 O.2   819  TYR819     -0.2718
    138  CB        24.5930   13.3820  261.1470 C.3   819  TYR819      0.0548
    139  CG        24.2120   13.8600  262.5320 C.ar  819  TYR819     -0.0200
    140  CD1       23.7200   12.9740  263.4890 C.ar  819  TYR819     -0.0009
    141  CD2       24.3430   15.2010  262.8860 C.ar  819  TYR819     -0.0009
    142  CE1       23.3580   13.4140  264.7520 C.ar  819  TYR819      0.0417
    143  CE2       23.9930   15.6460  264.1490 C.ar  819  TYR819      0.0417
    144  CZ        23.4970   14.7500  265.0740 C.ar  819  TYR819      0.1957
    145  OH        23.1520   15.1870  266.3310 O.3   819  TYR819     -0.2866
    146  N         21.8450   14.5990  260.4260 N.am  820  GLU820     -0.1979
    147  CA        20.5880   15.2690  260.7750 C.3   820  GLU820      0.1602
    148  C         19.3870   14.5770  260.1460 C.2   820  GLU820      0.2287
    149  O         18.3640   14.3840  260.8040 O.2   820  GLU820     -0.2864
    150  CB        20.6220   16.7400  260.3640 C.3   820  GLU820      0.0415
    151  CG        21.4890   17.5960  261.2770 C.3   820  GLU820      0.1163
    152  CD        21.5660   19.0500  260.8490 C.2   820  GLU820      0.3649
    153  OE1       20.7840   19.4690  259.9650 O.co2 820  GLU820     -0.2457
    154  OE2       22.4140   19.7780  261.4040 O.co2 820  GLU820     -0.2457
    155  N         18.9570   10.9920  261.8250 N.3   823  LEU823     -0.1231
    156  CA        18.4750   11.1670  263.1930 C.3   823  LEU823      0.1693
    157  C         16.9950   11.5360  263.2210 C.2   823  LEU823      0.2591
    158  O         16.2060   10.9410  263.9610 O.2   823  LEU823     -0.2718
    159  CB        19.2870   12.2490  263.9120 C.3   823  LEU823      0.0284
    160  CG        18.8750   12.6310  265.3430 C.3   823  LEU823      0.0019
    161  CD1       18.6640   11.4100  266.2240 C.3   823  LEU823      0.0001
    162  CD2       19.9250   13.5390  265.9660 C.3   823  LEU823      0.0001
    163  N         16.6340   12.5230  262.4100 N.am  824  LEU824     -0.1980
    164  CA        15.2540   12.9850  262.3180 C.3   824  LEU824      0.1596
    165  C         14.3130   11.8740  261.8540 C.2   824  LEU824      0.2287
    166  O         13.2130   11.7170  262.3940 O.2   824  LEU824     -0.2864
    167  CB        15.1660   14.1850  261.3730 C.3   824  LEU824      0.0297
    168  CG        13.8850   15.0160  261.4150 C.3   824  LEU824      0.0022
    169  CD1       13.7260   15.7160  262.7570 C.3   824  LEU824      0.0001
    170  CD2       13.9010   16.0380  260.2910 C.3   824  LEU824      0.0001
@<TRIPOS>BOND
     1     3     4    2
     2     3     2    1
     3     1     2    1
     4     2     5    1
     5     5     6    1
     6     7     6    1
     7     6     8    1
     8    86    84    1
     9   134   135    1
    10    84    85    1
    11    84    83    2
    12   153   152   ar
    13   148   147    1
    14   148   149    2
    15   170   168    1
    16   135   136    1
    17   135   138    1
    18   150   147    1
    19   150   151    1
    20   146   147    1
    21   146   136   am
    22   136   137    2
    23   152   151    1
    24   152   154   ar
    25    83    82    1
    26   138   139    1
    27   167   168    1
    28   167   164    1
    29   168   169    1
    30   155   156    1
    31   165   164    1
    32   165   166    2
    33   101    99    1
    34    82    81    1
    35   164   163    1
    36   163   157   am
    37   139   141   ar
    38   139   140   ar
    39   100    99    1
    40   141   143   ar
    41   156   157    1
    42   156   159    1
    43   157   158    2
    44    99    96    1
    45    81    80    1
    46   140   142   ar
    47   159   160    1
    48   143   144   ar
    49    98    97    2
    50    96    97    1
    51    96    95    1
    52    80    77    1
    53   142   144   ar
    54    97   102   am
    55   144   145    1
    56    77    76    1
    57    77    78    1
    58   160   162    1
    59   160   161    1
    60   133   131   ar
    61   133   132   ar
    62   102   103    1
    63   131   129   ar
    64    79    78    2
    65   109   107    1
    66    78    87   am
    67   103   104    1
    68   103   106    1
    69   132   130   ar
    70    55    56    1
    71   105   104    2
    72    58    57    2
    73   107   106    1
    74   107   108    1
    75   129   128   ar
    76   129   127   ar
    77    56    57    1
    78    56    59    1
    79    57    64   am
    80   128   126   ar
    81    87    88    1
    82   130   127   ar
    83    66    67    2
    84    66    65    1
    85   127   125   ar
    86    64    65    1
    87    59    60    1
    88   119   118   ar
    89   119   117   ar
    90    60    61    1
    91    89    88    1
    92    89    90    2
    93    65    68    1
    94   118   116   ar
    95    88    91    1
    96   126   125   ar
    97    61    62    1
    98   117   115   ar
    99   125   124    1
   100    62    63    1
   101   116   115   ar
   102   115   114    1
   103    91    92    1
   104    68    69    1
   105    94    92    1
   106    92    93    1
   107   124   121    1
   108    69    70   ar
   109    69    71   ar
   110   114   111    1
   111    70    72   ar
   112    17    15   ar
   113    17    19   ar
   114    71    73   ar
   115   121   120    1
   116   121   122    1
   117    72    74   ar
   118    15    14   ar
   119    19    18   ar
   120    73    74   ar
   121    74    75    1
   122   111   112    1
   123   111   110    1
   124   122   123    2
   125   112   113    2
   126    14    13    1
   127    14    16   ar
   128    18    16   ar
   129    13    10    1
   130    10     9    1
   131    10    11    1
   132    23    22    2
   133    11    20   am
   134    11    12    2
   135    20    21    1
   136    54    52    1
   137    34    36   ar
   138    34    33   ar
   139    36    38   ar
   140    22    21    1
   141    22    28   am
   142    26    24    1
   143    53    52    1
   144    21    24    1
   145    32    33    1
   146    32    29    1
   147    33    35   ar
   148    52    51    1
   149    28    29    1
   150    29    30    1
   151    38    39    1
   152    38    37   ar
   153    50    49    2
   154    24    25    1
   155    51    48    1
   156    46    44    1
   157    45    44    1
   158    48    49    1
   159    48    47    1
   160    35    37   ar
   161    30    31    2
   162    44    41    1
   163    25    27    1
   164    41    42    1
   165    41    40    1
   166    42    43    2
