@<TRIPOS>MOLECULE
tmp/6eorD00.pdb
 210 204 0 0 0
SMALL
GASTEIGER

@<TRIPOS>ATOM
      1  N        -22.1910  -18.2320  138.6000 N.3    94  LYS94      -0.1231
      2  CA       -21.0270  -17.5310  139.1550 C.3    94  LYS94       0.1693
      3  C        -21.1540  -17.1970  140.6620 C.2    94  LYS94       0.2591
      4  O        -20.1800  -16.7470  141.2680 O.2    94  LYS94      -0.2718
      5  CB       -20.7780  -16.2390  138.3780 C.3    94  LYS94       0.0285
      6  CG       -20.3370  -16.4290  136.9330 C.3    94  LYS94       0.0035
      7  CD       -20.5820  -15.1490  136.1340 C.3    94  LYS94       0.0206
      8  CE       -19.7380  -15.0370  134.8760 C.3    94  LYS94       0.1093
      9  NZ       -18.3010  -14.8290  135.1990 N.3    94  LYS94      -0.1314
     10  N        -22.3390  -17.4010  141.2500 N.am   95  ARG95      -0.1980
     11  CA       -22.6440  -17.0490  142.6540 C.3    95  ARG95       0.1597
     12  C        -22.3450  -15.5780  142.9490 C.2    95  ARG95       0.2287
     13  O        -21.5930  -15.2440  143.8680 O.2    95  ARG95      -0.2864
     14  CB       -21.9510  -17.9960  143.6540 C.3    95  ARG95       0.0334
     15  CG       -22.7160  -19.2880  143.9270 C.3    95  ARG95       0.0492
     16  CD       -22.2860  -20.4280  143.0170 C.3    95  ARG95       0.2205
     17  NE       -22.9950  -21.6700  143.3180 N.pl3  95  ARG95      -0.0865
     18  CZ       -22.7690  -22.8550  142.7430 C.cat  95  ARG95       0.5346
     19  NH1      -21.8340  -23.0050  141.8030 N.pl3  95  ARG95       0.1354
     20  NH2      -23.4860  -23.9140  143.1180 N.pl3  95  ARG95       0.1354
     21  N        -22.1380  -25.1660  136.1120 N.3   206  GLU206     -0.1231
     22  CA       -22.3680  -25.5560  137.5290 C.3   206  GLU206      0.1699
     23  C        -21.2680  -26.3920  138.1520 C.2   206  GLU206      0.2592
     24  O        -20.9560  -26.2050  139.3210 O.2   206  GLU206     -0.2718
     25  CB       -23.6810  -26.3410  137.7140 C.3   206  GLU206      0.0402
     26  CG       -24.7560  -25.6530  138.5510 C.3   206  GLU206      0.1161
     27  CD       -24.3250  -25.2930  139.9710 C.2   206  GLU206      0.3649
     28  OE1      -23.6390  -26.1110  140.6220 O.co2 206  GLU206     -0.2457
     29  OE2      -24.6870  -24.1910  140.4500 O.co2 206  GLU206     -0.2457
     30  N        -20.7200  -27.3330  137.3940 N.am  207  GLU207     -0.1979
     31  CA       -19.8290  -28.3520  137.9450 C.3   207  GLU207      0.1602
     32  C        -18.3950  -28.3230  137.4030 C.2   207  GLU207      0.2287
     33  O        -17.5030  -28.9840  137.9520 O.2   207  GLU207     -0.2864
     34  CB       -20.4640  -29.7360  137.7290 C.3   207  GLU207      0.0415
     35  CG       -21.9940  -29.8190  137.9500 C.3   207  GLU207      0.1163
     36  CD       -22.4530  -29.5200  139.3830 C.2   207  GLU207      0.3649
     37  OE1      -21.6030  -29.3680  140.2850 O.co2 207  GLU207     -0.2457
     38  OE2      -23.6780  -29.4580  139.6230 O.co2 207  GLU207     -0.2457
     39  N        -17.1980  -24.9370  136.1020 N.3   209  ASP209     -0.1239
     40  CA       -16.8290  -23.5300  136.1780 C.3   209  ASP209      0.1674
     41  C        -16.2000  -22.9710  134.9000 C.2   209  ASP209      0.2266
     42  O        -15.1610  -22.3110  134.9120 O.2   209  ASP209     -0.2867
     43  CB       -15.9630  -23.2940  137.4100 C.3   209  ASP209      0.1410
     44  CG       -16.7190  -23.5820  138.6880 C.2   209  ASP209      0.3668
     45  OD1      -17.1640  -24.7550  138.8820 O.co2 209  ASP209     -0.2456
     46  OD2      -16.8910  -22.6180  139.4790 O.co2 209  ASP209     -0.2456
     47  N        -11.0330  -21.8860  141.2110 N.3   453  HIS453     -0.1241
     48  CA       -11.7050  -20.7030  141.7590 C.3   453  HIS453      0.1621
     49  C        -11.1240  -19.4000  141.2490 C.2   453  HIS453      0.2264
     50  O        -11.2260  -18.3650  141.9040 O.2   453  HIS453     -0.2867
     51  CB       -11.6730  -20.7300  143.2960 C.3   453  HIS453      0.0745
     52  CG       -12.5450  -21.7890  143.8810 C.ar  453  HIS453      0.0817
     53  ND1      -12.0520  -22.8690  144.5810 N.ar  453  HIS453     -0.2268
     54  CD2      -13.8890  -21.9380  143.8490 C.ar  453  HIS453      0.1154
     55  CE1      -13.0570  -23.6300  144.9690 C.ar  453  HIS453      0.1986
     56  NE2      -14.1810  -23.0870  144.5380 N.ar  453  HIS453     -0.2212
     57  N        -21.1940  -28.4030  156.4490 N.3   593  TYR593     -0.1241
     58  CA       -21.2050  -28.5560  155.0260 C.3   593  TYR593      0.1605
     59  C        -20.5260  -29.9000  154.7820 C.2   593  TYR593      0.2264
     60  O        -21.1980  -30.8860  154.5520 O.2   593  TYR593     -0.2867
     61  CB       -20.4730  -27.4250  154.3300 C.3   593  TYR593      0.0534
     62  CG       -20.5710  -27.6020  152.8510 C.ar  593  TYR593     -0.0201
     63  CD1      -21.6770  -27.1580  152.1630 C.ar  593  TYR593     -0.0009
     64  CD2      -19.5910  -28.2860  152.1510 C.ar  593  TYR593     -0.0009
     65  CE1      -21.7830  -27.3530  150.8100 C.ar  593  TYR593      0.0417
     66  CE2      -19.6860  -28.4890  150.8000 C.ar  593  TYR593      0.0417
     67  CZ       -20.7820  -28.0210  150.1340 C.ar  593  TYR593      0.1957
     68  OH       -20.8780  -28.2290  148.7790 O.3   593  TYR593     -0.2866
     69  N        -17.2560  -32.0580  148.9740 N.3   596  PRO596     -0.2102
     70  CA       -16.1720  -31.6130  148.1030 C.3   596  PRO596      0.1504
     71  C        -16.2590  -30.1410  147.6930 C.2   596  PRO596      0.2576
     72  O        -17.3560  -29.5800  147.5970 O.2   596  PRO596     -0.2718
     73  CB       -16.3090  -32.5090  146.8700 C.3   596  PRO596      0.0282
     74  CG       -17.7060  -33.0030  146.9030 C.3   596  PRO596      0.0208
     75  CD       -18.0260  -33.1490  148.3570 C.3   596  PRO596      0.0893
     76  N        -15.0850  -29.5530  147.4680 N.am  597  GLN597     -0.1966
     77  CA       -14.9020  -28.2070  146.9140 C.3   597  GLN597      0.1733
     78  C        -14.9070  -27.0810  147.9740 C.2   597  GLN597      0.2616
     79  O        -14.8000  -25.9060  147.6140 O.2   597  GLN597     -0.2715
     80  CB       -15.9140  -27.9120  145.7730 C.3   597  GLN597      0.0408
     81  CG       -15.9620  -28.9390  144.6340 C.3   597  GLN597      0.0908
     82  CD       -17.1520  -28.7510  143.6880 C.2   597  GLN597      0.2608
     83  OE1      -17.5370  -27.6220  143.3710 O.2   597  GLN597     -0.2717
     84  NE2      -17.7330  -29.8590  143.2270 N.am  597  GLN597     -0.0878
     85  N        -15.0030  -27.4230  149.2620 N.am  598  VAL598     -0.1977
     86  CA       -15.1520  -26.4090  150.3310 C.3   598  VAL598      0.1596
     87  C        -14.1830  -26.6580  151.5000 C.2   598  VAL598      0.2287
     88  O        -13.9050  -27.8070  151.8450 O.2   598  VAL598     -0.2864
     89  CB       -16.6100  -26.3720  150.8670 C.3   598  VAL598      0.0276
     90  CG1      -16.7620  -25.4540  152.0730 C.3   598  VAL598      0.0022
     91  CG2      -17.5700  -25.9270  149.7790 C.3   598  VAL598      0.0022
     92  N        -20.1980  -13.3910  156.1670 N.3   609  LYS609     -0.1245
     93  CA       -21.0410  -14.4930  155.6780 C.3   609  LYS609      0.1561
     94  C        -21.6020  -15.3660  156.8160 C.2   609  LYS609      0.2260
     95  O        -22.6780  -15.9510  156.6800 O.2   609  LYS609     -0.2867
     96  CB       -20.2600  -15.3640  154.6840 C.3   609  LYS609      0.0271
     97  CG       -19.7990  -14.6220  153.4280 C.3   609  LYS609      0.0035
     98  CD       -19.5140  -15.5480  152.2410 C.3   609  LYS609      0.0206
     99  CE       -19.4560  -14.7650  150.9300 C.3   609  LYS609      0.1093
    100  NZ       -18.7840  -15.5430  149.8510 N.3   609  LYS609     -0.1314
    101  N        -27.3550  -26.7490  151.7710 N.3   679  SER679     -0.1202
    102  CA       -26.8410  -27.4800  150.6070 C.3   679  SER679      0.2020
    103  C        -26.3120  -28.9080  150.9570 C.2   679  SER679      0.2618
    104  O        -27.0920  -29.7410  151.4180 O.2   679  SER679     -0.2717
    105  CB       -25.8180  -26.5690  149.9210 C.3   679  SER679      0.2103
    106  OG       -25.7150  -26.8810  148.5620 O.3   679  SER679     -0.2182
    107  N        -25.0240  -29.2060  150.7540 N.am  680  TYR680     -0.1975
    108  CA       -24.4120  -30.4470  151.2810 C.3   680  TYR680      0.1639
    109  C        -24.5780  -30.5440  152.8070 C.2   680  TYR680      0.2290
    110  O        -24.7030  -31.6500  153.3650 O.2   680  TYR680     -0.2864
    111  CB       -22.9210  -30.5140  150.9050 C.3   680  TYR680      0.0560
    112  CG       -22.3240  -31.9080  150.8540 C.ar  680  TYR680     -0.0198
    113  CD1      -21.9910  -32.5940  152.0190 C.ar  680  TYR680     -0.0009
    114  CD2      -22.0740  -32.5310  149.6360 C.ar  680  TYR680     -0.0009
    115  CE1      -21.4340  -33.8630  151.9810 C.ar  680  TYR680      0.0417
    116  CE2      -21.5200  -33.8010  149.5820 C.ar  680  TYR680      0.0417
    117  CZ       -21.1920  -34.4600  150.7570 C.ar  680  TYR680      0.1957
    118  OH       -20.6430  -35.7150  150.6950 O.3   680  TYR680     -0.2866
    119  N        -27.9680  -31.9200  153.6450 N.3   683  PHE683     -0.1241
    120  CA       -27.7950  -33.3580  153.3960 C.3   683  PHE683      0.1605
    121  C        -27.1230  -34.0630  154.5780 C.2   683  PHE683      0.2264
    122  O        -27.6110  -35.0920  155.0410 O.2   683  PHE683     -0.2867
    123  CB       -27.0250  -33.5590  152.0760 C.3   683  PHE683      0.0534
    124  CG       -26.2710  -34.8540  151.9740 C.ar  683  PHE683     -0.0203
    125  CD1      -26.9340  -36.0640  152.0560 C.ar  683  PHE683     -0.0042
    126  CD2      -24.9010  -34.8600  151.7260 C.ar  683  PHE683     -0.0042
    127  CE1      -26.2400  -37.2590  151.9200 C.ar  683  PHE683     -0.0003
    128  CE2      -24.2060  -36.0570  151.5940 C.ar  683  PHE683     -0.0003
    129  CZ       -24.8740  -37.2570  151.6860 C.ar  683  PHE683     -0.0000
    130  N        -31.8110  -26.9790  151.8360 N.3   703  ALA703     -0.1245
    131  CA       -31.5250  -27.3820  150.4450 C.3   703  ALA703      0.1562
    132  C        -30.7440  -28.6860  150.2660 C.2   703  ALA703      0.2260
    133  O        -29.7500  -28.6980  149.5470 O.2   703  ALA703     -0.2867
    134  CB       -30.8300  -26.2490  149.7040 C.3   703  ALA703      0.0290
    135  N        -29.7170  -32.5570  149.0940 N.3   705  VAL705     -0.1245
    136  CA       -29.8910  -33.5820  148.0730 C.3   705  VAL705      0.1561
    137  C        -30.3460  -34.8400  148.8230 C.2   705  VAL705      0.2260
    138  O        -29.5710  -35.4510  149.5630 O.2   705  VAL705     -0.2867
    139  CB       -28.6190  -33.7950  147.2160 C.3   705  VAL705      0.0252
    140  CG1      -28.6450  -35.1370  146.4960 C.3   705  VAL705      0.0019
    141  CG2      -28.4940  -32.6820  146.1790 C.3   705  VAL705      0.0019
    142  N        -29.7930  -38.9790  145.3840 N.3   708  TRP708     -0.1241
    143  CA       -28.6010  -38.7680  144.5310 C.3   708  TRP708      0.1605
    144  C        -28.8640  -38.9870  143.0360 C.2   708  TRP708      0.2264
    145  O        -28.3410  -38.2480  142.2020 O.2   708  TRP708     -0.2867
    146  CB       -27.4040  -39.6070  145.0020 C.3   708  TRP708      0.0550
    147  CG       -26.7050  -38.9810  146.1710 C.ar  708  TRP708      0.0003
    148  CD1      -26.6030  -39.4860  147.4260 C.ar  708  TRP708      0.0946
    149  CD2      -26.0460  -37.7090  146.1960 C.ar  708  TRP708      0.0152
    150  NE1      -25.9080  -38.6170  148.2370 N.ar  708  TRP708     -0.2442
    151  CE2      -25.5550  -37.5190  147.5020 C.ar  708  TRP708      0.0810
    152  CE3      -25.8150  -36.7120  145.2340 C.ar  708  TRP708      0.0012
    153  CZ2      -24.8570  -36.3800  147.8710 C.ar  708  TRP708      0.0191
    154  CZ3      -25.1290  -35.5870  145.5980 C.ar  708  TRP708      0.0001
    155  CH2      -24.6540  -35.4270  146.9050 C.ar  708  TRP708      0.0015
    156  N        -29.9040  -35.8940  141.2120 N.3   711  TYR711     -0.1241
    157  CA       -28.8680  -34.8660  140.9990 C.3   711  TYR711      0.1605
    158  C        -28.1340  -35.1320  139.6710 C.2   711  TYR711      0.2264
    159  O        -28.4050  -36.1370  139.0120 O.2   711  TYR711     -0.2867
    160  CB       -27.9120  -34.7760  142.2160 C.3   711  TYR711      0.0534
    161  CG       -27.2750  -33.4120  142.3440 C.ar  711  TYR711     -0.0201
    162  CD1      -28.0610  -32.2760  142.4680 C.ar  711  TYR711     -0.0009
    163  CD2      -25.8950  -33.2490  142.2980 C.ar  711  TYR711     -0.0009
    164  CE1      -27.4960  -31.0100  142.5450 C.ar  711  TYR711      0.0417
    165  CE2      -25.3220  -31.9870  142.3780 C.ar  711  TYR711      0.0417
    166  CZ       -26.1290  -30.8660  142.4940 C.ar  711  TYR711      0.1957
    167  OH       -25.5730  -29.6060  142.5650 O.3   711  TYR711     -0.2866
    168  N        -21.3340  -33.5900  138.7800 N.3   715  TYR715     -0.1241
    169  CA       -21.0680  -33.6470  140.2080 C.3   715  TYR715      0.1605
    170  C        -21.1300  -35.0760  140.7170 C.2   715  TYR715      0.2264
    171  O        -20.1620  -35.5910  141.2580 O.2   715  TYR715     -0.2867
    172  CB       -22.0900  -32.7950  140.9610 C.3   715  TYR715      0.0534
    173  CG       -21.8000  -32.6850  142.4260 C.ar  715  TYR715     -0.0201
    174  CD1      -20.9830  -31.6750  142.9220 C.ar  715  TYR715     -0.0009
    175  CD2      -22.3280  -33.6000  143.3170 C.ar  715  TYR715     -0.0009
    176  CE1      -20.7060  -31.5870  144.2800 C.ar  715  TYR715      0.0417
    177  CE2      -22.0560  -33.5320  144.6730 C.ar  715  TYR715      0.0417
    178  CZ       -21.2540  -32.5300  145.1570 C.ar  715  TYR715      0.1957
    179  OH       -21.0120  -32.4780  146.5130 O.3   715  TYR715     -0.2866
    180  N        -30.8700  -25.8300  140.9950 N.3   759  ASN759     -0.1225
    181  CA       -29.6670  -26.6110  141.1750 C.3   759  ASN759      0.1785
    182  C        -30.0880  -27.8550  141.9310 C.2   759  ASN759      0.2597
    183  O        -30.0940  -28.9560  141.3710 O.2   759  ASN759     -0.2718
    184  CB       -28.6320  -25.7620  141.9440 C.3   759  ASN759      0.1169
    185  CG       -27.3830  -26.5270  142.3210 C.2   759  ASN759      0.2627
    186  OD1      -27.1950  -27.6870  141.9450 O.2   759  ASN759     -0.2716
    187  ND2      -26.5080  -25.8700  143.0680 N.am  759  ASN759     -0.0877
    188  N        -30.4480  -27.6680  143.1990 N.am  760  VAL760     -0.1980
    189  CA       -31.0500  -28.7160  144.0120 C.3   760  VAL760      0.1595
    190  C        -32.5500  -28.4680  143.8990 C.2   760  VAL760      0.2287
    191  O        -33.0820  -27.5780  144.5210 O.2   760  VAL760     -0.2864
    192  CB       -30.5690  -28.6530  145.4790 C.3   760  VAL760      0.0276
    193  CG1      -31.2460  -29.7230  146.3190 C.3   760  VAL760      0.0022
    194  CG2      -29.0670  -28.8410  145.5650 C.3   760  VAL760      0.0022
    195  N        -31.1510  -21.3610  145.1660 N.3   789  HIS789     -0.1226
    196  CA       -30.2970  -22.1570  146.0780 C.3   789  HIS789      0.1752
    197  C        -29.6980  -21.3880  147.2690 C.2   789  HIS789      0.2596
    198  O        -29.5050  -21.9590  148.3400 O.2   789  HIS789     -0.2718
    199  CB       -29.1730  -22.8160  145.2760 C.3   789  HIS789      0.0759
    200  CG       -28.4740  -23.9330  145.9930 C.ar  789  HIS789      0.0818
    201  ND1      -29.1290  -25.0640  146.4360 N.ar  789  HIS789     -0.2268
    202  CD2      -27.1670  -24.1130  146.3010 C.ar  789  HIS789      0.1154
    203  CE1      -28.2580  -25.8790  147.0050 C.ar  789  HIS789      0.1986
    204  NE2      -27.0620  -25.3270  146.9330 N.ar  789  HIS789     -0.2212
    205  N        -29.3600  -20.1200  147.0560 N.am  790  SER790     -0.1952
    206  CA       -28.9170  -19.2090  148.1180 C.3   790  SER790      0.1924
    207  C        -30.1340  -18.4620  148.6410 C.2   790  SER790      0.2314
    208  O        -31.2370  -18.6830  148.1640 O.2   790  SER790     -0.2863
    209  CB       -27.8940  -18.2210  147.5460 C.3   790  SER790      0.2116
    210  OG       -28.3410  -17.7060  146.2980 O.3   790  SER790     -0.2180
@<TRIPOS>BOND
     1     8     9    1
     2     8     7    1
     3    41    42    2
     4    41    40    1
     5    39    40    1
     6    21    22    1
     7     7     6    1
     8    40    43    1
     9     6     5    1
    10    30    31    1
    11    30    23   am
    12    32    31    1
    13    32    33    2
    14    43    44    1
    15    22    25    1
    16    22    23    1
    17    25    26    1
    18    34    31    1
    19    34    35    1
    20    35    36    1
    21    23    24    2
    22     5     2    1
    23    26    27    1
    24     1     2    1
    25    44    45   ar
    26    44    46   ar
    27   168   169    1
    28   159   158    2
    29     2     3    1
    30    36    38   ar
    31    36    37   ar
    32   158   157    1
    33    27    29   ar
    34    27    28   ar
    35   169   170    1
    36   169   172    1
    37     3    10   am
    38     3     4    2
    39   170   171    2
    40   172   173    1
    41   180   181    1
    42   157   156    1
    43   157   160    1
    44   181   182    1
    45   181   184    1
    46    47    48    1
    47    49    48    1
    48    49    50    2
    49    10    11    1
    50   183   182    2
    51    48    51    1
    52    19    18    1
    53   182   188   am
    54   184   185    1
    55   186   185    2
    56   145   144    2
    57   160   161    1
    58   163   161   ar
    59   163   165   ar
    60   185   187   am
    61   161   162   ar
    62   165   166   ar
    63   173   174   ar
    64   173   175   ar
    65   162   164   ar
    66   166   164   ar
    67   166   167    1
    68    11    12    1
    69    11    14    1
    70    18    20    1
    71    18    17    2
    72   174   176   ar
    73    12    13    2
    74    16    17    1
    75    16    15    1
    76   144   143    1
    77   188   189    1
    78    84    82   am
    79    51    52    1
    80   175   177   ar
    81    83    82    2
    82    14    15    1
    83    82    81    1
    84    54    52   ar
    85    54    56   ar
    86    52    53   ar
    87   190   189    1
    88   190   191    2
    89   189   192    1
    90   176   178   ar
    91   143   146    1
    92   143   142    1
    93    56    55   ar
    94    53    55   ar
    95    81    80    1
    96   177   178   ar
    97   146   147    1
    98   178   179    1
    99   195   196    1
   100   152   154   ar
   101   152   149   ar
   102   199   200    1
   103   199   196    1
   104   192   194    1
   105   192   193    1
   106   154   155   ar
   107    80    77    1
   108   200   202   ar
   109   200   201   ar
   110   196   197    1
   111   147   149   ar
   112   147   148   ar
   113   141   139    1
   114   149   151   ar
   115   210   209    1
   116   202   204   ar
   117   201   203   ar
   118   140   139    1
   119    73    74    1
   120    73    70    1
   121    74    75    1
   122   155   153   ar
   123    77    76    1
   124    77    78    1
   125   204   203   ar
   126   205   197   am
   127   205   206    1
   128   139   136    1
   129   197   198    2
   130   148   150   ar
   131    76    71   am
   132   151   153   ar
   133   151   150   ar
   134   209   206    1
   135    72    71    2
   136    79    78    2
   137    71    70    1
   138    78    85   am
   139   136   137    1
   140   136   135    1
   141    70    69    1
   142   206   207    1
   143   208   207    2
   144    75    69    1
   145   106   105    1
   146    68    67    1
   147   137   138    2
   148    85    86    1
   149   133   132    2
   150   116   114   ar
   151   116   117   ar
   152   114   112   ar
   153   134   131    1
   154    91    89    1
   155   100    99    1
   156   105   102    1
   157    67    66   ar
   158    67    65   ar
   159   132   131    1
   160    86    89    1
   161    86    87    1
   162   131   130    1
   163   102   103    1
   164   102   101    1
   165   118   117    1
   166   107   103   am
   167   107   108    1
   168   117   115   ar
   169    66    64   ar
   170    65    63   ar
   171   112   111    1
   172   112   113   ar
   173    89    90    1
   174   111   108    1
   175    99    98    1
   176   103   104    2
   177   108   109    1
   178    87    88    2
   179   128   129   ar
   180   128   126   ar
   181   129   127   ar
   182   126   124   ar
   183   127   125   ar
   184   124   125   ar
   185   124   123    1
   186   115   113   ar
   187   123   120    1
   188    64    62   ar
   189    63    62   ar
   190    98    97    1
   191   109   110    2
   192    62    61    1
   193   120   119    1
   194   120   121    1
   195    97    96    1
   196    61    58    1
   197    60    59    2
   198   121   122    2
   199    96    93    1
   200    59    58    1
   201    58    57    1
   202    93    92    1
   203    93    94    1
   204    95    94    2
