@<TRIPOS>MOLECULE
tmp/6eowB00.pdb
 128 127 0 0 0
SMALL
GASTEIGER

@<TRIPOS>ATOM
      1  N          8.4930   12.7290   40.9880 N.3    47  PRO47      -0.2102
      2  CA         8.4340   13.6500   39.8450 C.3    47  PRO47       0.1504
      3  C          7.0350   14.0330   39.3820 C.2    47  PRO47       0.2575
      4  O          6.8550   15.1740   38.9130 O.2    47  PRO47      -0.2718
      5  CB         9.2010   12.8920   38.7480 C.3    47  PRO47       0.0282
      6  CG        10.2730   12.1010   39.5390 C.3    47  PRO47       0.0208
      7  CD         9.4720   11.6430   40.7990 C.3    47  PRO47       0.0893
      8  N          6.0410   13.1280   39.4680 N.am   48  TYR48      -0.1977
      9  CA         4.7170   13.4590   38.9560 C.3    48  TYR48       0.1639
     10  C          4.0980   14.6420   39.6830 C.2    48  TYR48       0.2290
     11  O          3.0890   15.1850   39.2110 O.2    48  TYR48      -0.2864
     12  CB         3.7320   12.2760   39.0790 C.3    48  TYR48       0.0560
     13  CG         3.2160   12.1130   40.5000 C.ar   48  TYR48      -0.0198
     14  CD1        2.0690   12.7970   40.9420 C.ar   48  TYR48      -0.0009
     15  CD2        3.8760   11.2930   41.3980 C.ar   48  TYR48      -0.0009
     16  CE1        1.6050   12.6850   42.2600 C.ar   48  TYR48       0.0417
     17  CE2        3.4090   11.1810   42.7520 C.ar   48  TYR48       0.0417
     18  CZ         2.2810   11.8780   43.1410 C.ar   48  TYR48       0.1957
     19  OH         1.8240   11.7990   44.4510 O.3    48  TYR48      -0.2866
     20  N         -4.3760   13.6330   34.5960 N.3    57  TYR57      -0.1241
     21  CA        -4.8230   12.3360   35.1140 C.3    57  TYR57       0.1605
     22  C         -5.3340   12.3560   36.5520 C.2    57  TYR57       0.2264
     23  O         -5.9700   11.3840   36.9720 O.2    57  TYR57      -0.2867
     24  CB        -3.7110   11.2720   35.0080 C.3    57  TYR57       0.0534
     25  CG        -2.3470   11.6770   35.5350 C.ar   57  TYR57      -0.0201
     26  CD1       -1.4190   12.2920   34.7000 C.ar   57  TYR57      -0.0009
     27  CD2       -1.9790   11.4420   36.8620 C.ar   57  TYR57      -0.0009
     28  CE1       -0.1650   12.6700   35.1630 C.ar   57  TYR57       0.0417
     29  CE2       -0.7140   11.8210   37.3390 C.ar   57  TYR57       0.0417
     30  CZ         0.1830   12.4320   36.4770 C.ar   57  TYR57       0.1957
     31  OH         1.4320   12.8210   36.9090 O.3    57  TYR57      -0.2866
     32  N          2.3790   10.7820   48.3270 N.3    70  TYR70      -0.1241
     33  CA         2.5860    9.5130   49.0180 C.3    70  TYR70       0.1605
     34  C          3.4160    9.6930   50.2780 C.2    70  TYR70       0.2264
     35  O          4.4240   10.4120   50.2880 O.2    70  TYR70      -0.2867
     36  CB         3.2910    8.5140   48.1130 C.3    70  TYR70       0.0534
     37  CG         2.3800    7.9390   47.0830 C.ar   70  TYR70      -0.0201
     38  CD1        1.4220    6.9950   47.4440 C.ar   70  TYR70      -0.0009
     39  CD2        2.4670    8.3250   45.7590 C.ar   70  TYR70      -0.0009
     40  CE1        0.5620    6.4520   46.5030 C.ar   70  TYR70       0.0417
     41  CE2        1.6150    7.7760   44.7970 C.ar   70  TYR70       0.0417
     42  CZ         0.6670    6.8330   45.1840 C.ar   70  TYR70       0.1957
     43  OH        -0.1880    6.2620   44.2470 O.3    70  TYR70      -0.2866
     44  N         -1.6920    8.1760   50.1600 N.3    92  PHE92      -0.1241
     45  CA        -1.7170    9.6290   50.0580 C.3    92  PHE92       0.1605
     46  C         -1.9690   10.2570   51.4200 C.2    92  PHE92       0.2264
     47  O         -2.9170    9.8820   52.1170 O.2    92  PHE92      -0.2867
     48  CB        -2.7800   10.0880   49.0590 C.3    92  PHE92       0.0534
     49  CG        -2.4020    9.8300   47.6190 C.ar   92  PHE92      -0.0203
     50  CD1       -1.3470   10.5210   47.0420 C.ar   92  PHE92      -0.0042
     51  CD2       -3.0810    8.8880   46.8600 C.ar   92  PHE92      -0.0042
     52  CE1       -0.9730   10.2950   45.7220 C.ar   92  PHE92      -0.0003
     53  CE2       -2.7110    8.6330   45.5310 C.ar   92  PHE92      -0.0003
     54  CZ        -1.6560    9.3530   44.9590 C.ar   92  PHE92      -0.0000
     55  N          4.8990    3.0740   45.8180 N.3   124  MET124     -0.1245
     56  CA         4.5170    3.3190   44.4330 C.3   124  MET124      0.1570
     57  C          5.6840    3.2080   43.4540 C.2   124  MET124      0.2261
     58  O          5.4840    2.6260   42.3650 O.2   124  MET124     -0.2867
     59  CB         3.8210    4.6830   44.3520 C.3   124  MET124      0.0387
     60  CG         3.3650    5.0430   42.9700 C.3   124  MET124      0.0595
     61  SD         4.7230    5.8280   42.0300 S.3   124  MET124     -0.1393
     62  CE         4.9120    7.4050   42.8690 C.3   124  MET124      0.0692
     63  N          5.9030    0.5850   40.3320 N.3   128  THR128     -0.1218
     64  CA         6.0900    1.0890   38.9700 C.3   128  THR128      0.1862
     65  C          7.1710    0.3190   38.2310 C.2   128  THR128      0.2287
     66  O          7.0010   -0.0620   37.0570 O.2   128  THR128     -0.2866
     67  CB         6.4360    2.5750   39.0520 C.3   128  THR128      0.1770
     68  OG1        5.3330    3.2700   39.6510 O.3   128  THR128     -0.2211
     69  CG2        6.6760    3.1240   37.6310 C.3   128  THR128      0.0375
     70  N          7.5560    4.9220   30.7560 N.3   240  CYS240     -0.1221
     71  CA         7.2440    5.1530   32.1770 C.3   240  CYS240      0.1808
     72  C          7.1100    6.6330   32.5060 C.2   240  CYS240      0.2601
     73  O          6.1060    7.0730   33.0750 O.2   240  CYS240     -0.2717
     74  CB         8.3480    4.5150   33.0160 C.3   240  CYS240      0.0970
     75  SG         8.0800    4.6580   34.8060 S.3   240  CYS240     -0.0800
     76  N          8.1240    7.4270   32.1870 N.am  241  GLY241     -0.1957
     77  CA         8.0620    8.8490   32.4590 C.3   241  GLY241      0.1869
     78  C          8.8240    9.5760   31.3700 C.2   241  GLY241      0.2309
     79  O          9.5340    8.9520   30.5600 O.2   241  GLY241     -0.2863
     80  N          8.6290   17.7830   31.8200 N.3   246  TYR246     -0.1241
     81  CA         7.5470   18.0830   32.7610 C.3   246  TYR246      0.1605
     82  C          7.4580   19.5690   33.0770 C.2   246  TYR246      0.2264
     83  O          6.4020   20.0250   33.5320 O.2   246  TYR246     -0.2867
     84  CB         7.7210   17.3260   34.0790 C.3   246  TYR246      0.0534
     85  CG         7.5670   15.8190   33.9980 C.ar  246  TYR246     -0.0201
     86  CD1        7.1030   15.1980   32.8440 C.ar  246  TYR246     -0.0009
     87  CD2        7.8480   15.0220   35.1010 C.ar  246  TYR246     -0.0009
     88  CE1        6.9540   13.8230   32.7940 C.ar  246  TYR246      0.0417
     89  CE2        7.7130   13.6430   35.0450 C.ar  246  TYR246      0.0417
     90  CZ         7.2620   13.0540   33.8890 C.ar  246  TYR246      0.1957
     91  OH         7.1240   11.6640   33.8210 O.3   246  TYR246     -0.2866
     92  N          2.2700    3.2040   30.3180 N.3   270  PHE270     -0.1227
     93  CA         1.5170    2.5450   31.3810 C.3   270  PHE270      0.1736
     94  C          1.4660    3.4860   32.5750 C.2   270  PHE270      0.2595
     95  O          2.2970    4.3860   32.7350 O.2   270  PHE270     -0.2718
     96  CB         2.1450    1.1940   31.7830 C.3   270  PHE270      0.0547
     97  CG         3.4370    1.3650   32.5320 C.ar  270  PHE270     -0.0202
     98  CD1        4.6090    1.6120   31.8210 C.ar  270  PHE270     -0.0042
     99  CD2        3.4770    1.3510   33.9260 C.ar  270  PHE270     -0.0042
    100  CE1        5.7910    1.8010   32.4750 C.ar  270  PHE270     -0.0003
    101  CE2        4.6630    1.5460   34.5960 C.ar  270  PHE270     -0.0003
    102  CZ         5.8170    1.7940   33.8800 C.ar  270  PHE270     -0.0000
    103  N          0.4660    3.2660   33.4370 N.am  271  MET271     -0.1965
    104  CA         0.3460    3.9890   34.6940 C.3   271  MET271      0.1736
    105  C          0.2610    3.0090   35.8330 C.2   271  MET271      0.2616
    106  O         -0.5200    2.0530   35.7620 O.2   271  MET271     -0.2715
    107  CB        -0.9080    4.8490   34.7070 C.3   271  MET271      0.0427
    108  CG        -0.9390    5.6880   33.5280 C.3   271  MET271      0.0599
    109  SD        -0.3400    7.2530   34.0310 S.3   271  MET271     -0.1393
    110  CE        -1.9540    7.9230   34.1460 C.3   271  MET271      0.0692
    111  N          1.0390    3.2700   36.9000 N.am  272  VAL272     -0.1963
    112  CA         1.1770    2.2700   37.9530 C.3   272  VAL272      0.1727
    113  C         -0.1700    2.0450   38.6240 C.2   272  VAL272      0.2616
    114  O         -0.4470    0.9430   39.1100 O.2   272  VAL272     -0.2715
    115  CB         2.2560    2.6860   38.9680 C.3   272  VAL272      0.0290
    116  CG1        1.9300    4.0320   39.6100 C.3   272  VAL272      0.0023
    117  CG2        2.4430    1.5970   40.0460 C.3   272  VAL272      0.0023
    118  N         -1.0310    3.0540   38.6080 N.am  273  PHE273     -0.1974
    119  CA        -2.3610    2.9060   39.2150 C.3   273  PHE273      0.1639
    120  C         -3.1060    1.7020   38.7030 C.2   273  PHE273      0.2290
    121  O         -3.9430    1.1350   39.4300 O.2   273  PHE273     -0.2864
    122  CB        -3.2210    4.1200   38.9300 C.3   273  PHE273      0.0560
    123  CG        -2.7070    5.3340   39.5440 C.ar  273  PHE273     -0.0200
    124  CD1       -2.8810    5.5370   40.8990 C.ar  273  PHE273     -0.0042
    125  CD2       -2.0490    6.2760   38.7840 C.ar  273  PHE273     -0.0042
    126  CE1       -2.4060    6.6610   41.4900 C.ar  273  PHE273     -0.0003
    127  CE2       -1.5850    7.4010   39.3610 C.ar  273  PHE273     -0.0003
    128  CZ        -1.7700    7.5990   40.7210 C.ar  273  PHE273     -0.0000
@<TRIPOS>BOND
     1    92    93    1
     2    79    78    2
     3    70    71    1
     4    78    77    1
     5    93    96    1
     6    93    94    1
     7    96    97    1
     8    80    81    1
     9    98   100   ar
    10    98    97   ar
    11    71    72    1
    12    71    74    1
    13    76    77    1
    14    76    72   am
    15   100   102   ar
    16    72    73    2
    17    97    99   ar
    18    94    95    2
    19    94   103   am
    20    81    82    1
    21    81    84    1
    22    88    86   ar
    23    88    90   ar
    24    86    85   ar
    25    74    75    1
    26    82    83    2
    27   103   104    1
    28   108   109    1
    29   108   107    1
    30    91    90    1
    31   102   101   ar
    32    90    89   ar
    33    99   101   ar
    34    85    84    1
    35    85    87   ar
    36   109   110    1
    37    20    21    1
    38   104   107    1
    39   104   105    1
    40    26    28   ar
    41    26    25   ar
    42    24    21    1
    43    24    25    1
    44    89    87   ar
    45    21    22    1
    46    28    30   ar
    47    25    27   ar
    48   106   105    2
    49   105   111   am
    50    30    31    1
    51    30    29   ar
    52    22    23    2
    53    27    29   ar
    54   111   112    1
    55    66    65    2
    56    69    67    1
    57   112   113    1
    58   112   115    1
    59    65    64    1
    60   118   113   am
    61   118   119    1
    62   113   114    2
    63   120   119    1
    64   120   121    2
    65     5     6    1
    66     5     2    1
    67   125   127   ar
    68   125   123   ar
    69     4     3    2
    70   122   119    1
    71   122   123    1
    72     9    12    1
    73     9     8    1
    74     9    10    1
    75   115   116    1
    76   115   117    1
    77    64    67    1
    78    64    63    1
    79    67    68    1
    80    12    13    1
    81    11    10    2
    82   127   128   ar
    83     3     8   am
    84     3     2    1
    85     6     7    1
    86   123   124   ar
    87     2     1    1
    88    13    14   ar
    89    13    15   ar
    90   128   126   ar
    91     7     1    1
    92   124   126   ar
    93    14    16   ar
    94    15    17   ar
    95    61    62    1
    96    61    60    1
    97    16    18   ar
    98    58    57    2
    99    17    18   ar
   100    60    59    1
   101    18    19    1
   102    57    56    1
   103    43    42    1
   104    59    56    1
   105    56    55    1
   106    41    42   ar
   107    41    39   ar
   108    54    53   ar
   109    54    52   ar
   110    42    40   ar
   111    53    51   ar
   112    52    50   ar
   113    39    37   ar
   114    40    38   ar
   115    51    49   ar
   116    50    49   ar
   117    37    38   ar
   118    37    36    1
   119    49    48    1
   120    36    33    1
   121    32    33    1
   122    33    34    1
   123    48    45    1
   124    45    44    1
   125    45    46    1
   126    34    35    2
   127    46    47    2
