@<TRIPOS>MOLECULE
tmp/6eoxA00.pdb
 165 164 0 0 0
SMALL
GASTEIGER

@<TRIPOS>ATOM
      1  N         -4.2110  -19.9610    3.1720 N.3    74  GLY74      -0.1210
      2  CA        -3.9920  -18.8080    2.3680 C.3    74  GLY74       0.1956
      3  C         -3.3450  -17.6730    3.1640 C.2    74  GLY74       0.2612
      4  O         -2.3390  -17.8850    3.8570 O.2    74  GLY74      -0.2717
      5  N         -3.9650  -16.5070    3.0920 N.am   75  ILE75      -0.1965
      6  CA        -3.4830  -15.3310    3.8270 C.3    75  ILE75       0.1727
      7  C         -3.7020  -15.5710    5.3360 C.2    75  ILE75       0.2616
      8  O         -4.7930  -15.9310    5.7590 O.2    75  ILE75      -0.2715
      9  CB        -4.2640  -14.0570    3.3900 C.3    75  ILE75       0.0290
     10  CG1       -4.0100  -13.7810    1.9460 C.3    75  ILE75       0.0022
     11  CG2       -3.7870  -12.8710    4.2810 C.3    75  ILE75       0.0023
     12  CD1       -2.5910  -13.6220    1.7840 C.3    75  ILE75       0.0001
     13  N         -2.6600  -15.3480    6.0940 N.am   76  LEU76      -0.1963
     14  CA        -2.7020  -15.5420    7.5470 C.3    76  LEU76       0.1728
     15  C         -2.9490  -14.2440    8.2840 C.2    76  LEU76       0.2616
     16  O         -3.5840  -14.2480    9.3460 O.2    76  LEU76      -0.2715
     17  CB        -1.3860  -16.1400    8.0130 C.3    76  LEU76       0.0311
     18  CG        -0.9730  -17.3700    7.2870 C.3    76  LEU76       0.0022
     19  CD1        0.4200  -17.7510    7.7090 C.3    76  LEU76       0.0001
     20  CD2       -1.9370  -18.5200    7.5140 C.3    76  LEU76       0.0001
     21  N         -2.4160  -13.1360    7.7660 N.am   77  ALA77      -0.1963
     22  CA        -2.4370  -11.8570    8.4350 C.3    77  ALA77       0.1728
     23  C         -1.9410  -10.7980    7.4680 C.2    77  ALA77       0.2616
     24  O         -1.4230  -11.1300    6.3720 O.2    77  ALA77      -0.2715
     25  CB        -1.5110  -11.9050    9.6510 C.3    77  ALA77       0.0334
     26  N         -2.1710   -9.5650    7.7880 N.am   78  HIS78      -0.1973
     27  CA        -1.5730   -8.4650    7.0150 C.3    78  HIS78       0.1656
     28  C         -1.4620   -7.2540    7.9150 C.2    78  HIS78       0.2291
     29  O         -2.0830   -7.1630    8.9760 O.2    78  HIS78      -0.2864
     30  CB        -2.3420   -8.1400    5.7560 C.3    78  HIS78       0.0771
     31  CG        -3.7840   -7.7390    5.9450 C.ar   78  HIS78       0.0820
     32  ND1       -4.7930   -8.1620    5.0800 N.ar   78  HIS78      -0.2267
     33  CD2       -4.4150   -7.0450    6.9260 C.ar   78  HIS78       0.1154
     34  CE1       -5.9360   -7.6500    5.4660 C.ar   78  HIS78       0.1986
     35  NE2       -5.7450   -6.9950    6.6060 N.ar   78  HIS78      -0.2212
     36  N          5.4390  -15.7580   15.8470 N.3   109  LEU109     -0.1231
     37  CA         6.2170  -15.6430   14.5960 C.3   109  LEU109      0.1693
     38  C          5.4960  -14.8110   13.5730 C.2   109  LEU109      0.2592
     39  O          6.1310  -13.9800   12.8650 O.2   109  LEU109     -0.2718
     40  CB         6.5120  -17.0100   14.0140 C.3   109  LEU109      0.0284
     41  CG         7.4840  -17.9220   14.7800 C.3   109  LEU109      0.0019
     42  CD1        7.5280  -19.3240   14.1750 C.3   109  LEU109      0.0001
     43  CD2        8.8430  -17.3060   14.8630 C.3   109  LEU109      0.0001
     44  N          4.1890  -14.9860   13.4450 N.am  110  THR110     -0.1953
     45  CA         3.4030  -14.2220   12.5060 C.3   110  THR110      0.1897
     46  C          3.4330  -12.7230   12.8770 C.2   110  THR110      0.2313
     47  O          3.5460  -11.8480   12.0010 O.2   110  THR110     -0.2863
     48  CB         1.9820  -14.7750   12.3750 C.3   110  THR110      0.1794
     49  OG1        2.0250  -16.1620   12.0620 O.3   110  THR110     -0.2208
     50  CG2        1.2100  -14.0400   11.2850 C.3   110  THR110      0.0378
     51  N          6.6380  -10.9400   11.9350 N.3   113  HIS113     -0.1226
     52  CA         6.6060  -10.5540   10.5350 C.3   113  HIS113      0.1752
     53  C          5.6460   -9.3600   10.2900 C.2   113  HIS113      0.2595
     54  O          6.0560   -8.3700    9.6180 O.2   113  HIS113     -0.2718
     55  CB         6.0930  -11.7470    9.7330 C.3   113  HIS113      0.0759
     56  CG         5.9700  -11.5100    8.2510 C.ar  113  HIS113      0.0818
     57  ND1        6.9460  -11.9100    7.3630 N.ar  113  HIS113     -0.2268
     58  CD2        4.9790  -10.9750    7.5430 C.ar  113  HIS113      0.1154
     59  CE1        6.5390  -11.6010    6.1320 C.ar  113  HIS113      0.1986
     60  NE2        5.3640  -11.0140    6.2150 N.ar  113  HIS113     -0.2212
     61  N          4.4390   -9.4070   10.7990 N.am  114  GLU114     -0.1979
     62  CA         3.4730   -8.3240   10.5680 C.3   114  GLU114      0.1602
     63  C          3.9450   -7.0070   11.1360 C.2   114  GLU114      0.2287
     64  O          3.8180   -5.9610   10.4910 O.2   114  GLU114     -0.2864
     65  CB         2.0760   -8.6690   11.0240 C.3   114  GLU114      0.0415
     66  CG         1.4710   -9.8730   10.3180 C.3   114  GLU114      0.1163
     67  CD         1.4870   -9.7380    8.8100 C.2   114  GLU114      0.3649
     68  OE1        1.5830  -10.7770    8.0910 O.co2 114  GLU114     -0.2457
     69  OE2        1.4310   -8.5660    8.3090 O.co2 114  GLU114     -0.2457
     70  N          6.1400   -5.1450    9.0000 N.3   117  HIS117     -0.1241
     71  CA         5.4040   -4.3130    8.0520 C.3   117  HIS117      0.1621
     72  C          4.8530   -3.0510    8.7290 C.2   117  HIS117      0.2264
     73  O          4.9070   -1.9590    8.1600 O.2   117  HIS117     -0.2867
     74  CB         4.2560   -5.0690    7.4230 C.3   117  HIS117      0.0745
     75  CG         4.6650   -6.1840    6.5190 C.ar  117  HIS117      0.0817
     76  ND1        5.6210   -6.0240    5.5370 N.ar  117  HIS117     -0.2268
     77  CD2        4.1830   -7.4350    6.4100 C.ar  117  HIS117      0.1154
     78  CE1        5.7380   -7.1750    4.8700 C.ar  117  HIS117      0.1986
     79  NE2        4.8490   -8.0400    5.3610 N.ar  117  HIS117     -0.2212
     80  N          9.1480   -7.1370    1.9940 N.3   123  HIS123     -0.1241
     81  CA         9.5310   -8.5100    2.0500 C.3   123  HIS123      0.1621
     82  C         10.9390   -8.7280    1.6010 C.2   123  HIS123      0.2264
     83  O         11.4290   -8.0550    0.6670 O.2   123  HIS123     -0.2867
     84  CB         8.6330   -9.3540    1.1560 C.3   123  HIS123      0.0745
     85  CG         7.3010   -9.6270    1.7440 C.ar  123  HIS123      0.0817
     86  ND1        6.1920   -9.7800    0.9820 N.ar  123  HIS123     -0.2268
     87  CD2        6.9010   -9.7740    3.0360 C.ar  123  HIS123      0.1154
     88  CE1        5.1430  -10.0190    1.7660 C.ar  123  HIS123      0.1986
     89  NE2        5.5490   -9.9680    3.0090 N.ar  123  HIS123     -0.2212
     90  N         14.9650  -15.1210    6.4830 N.3   129  ALA129     -0.1231
     91  CA        14.4700  -13.8660    7.0870 C.3   129  ALA129      0.1694
     92  C         13.1000  -14.0320    7.5880 C.2   129  ALA129      0.2591
     93  O         12.2370  -14.7050    6.9880 O.2   129  ALA129     -0.2718
     94  CB        14.4930  -12.7200    6.0250 C.3   129  ALA129      0.0304
     95  N         12.8120  -13.3590    8.7280 N.am  130  VAL130     -0.1980
     96  CA        11.4430  -13.3610    9.1990 C.3   130  VAL130      0.1595
     97  C         10.4890  -12.6430    8.2240 C.2   130  VAL130      0.2287
     98  O          9.3120  -12.9560    8.1530 O.2   130  VAL130     -0.2864
     99  CB        11.3120  -12.8170   10.6130 C.3   130  VAL130      0.0276
    100  CG1       11.3680  -11.3070   10.6530 C.3   130  VAL130      0.0022
    101  CG2       10.0360  -13.3240   11.2050 C.3   130  VAL130      0.0022
    102  N         10.5880  -12.9430    5.0650 N.3   132  PHE132     -0.1228
    103  CA        10.3350  -13.7550    3.8780 C.3   132  PHE132      0.1721
    104  C          8.8510  -13.9640    3.7560 C.2   132  PHE132      0.2437
    105  O          8.1240  -13.9690    4.7920 O.2   132  PHE132     -0.2733
    106  CB        11.0410  -15.0910    4.0170 C.3   132  PHE132      0.0547
    107  CG        11.0190  -15.9650    2.7750 C.ar  132  PHE132     -0.0202
    108  CD1       11.6780  -15.5800    1.6400 C.ar  132  PHE132     -0.0042
    109  CD2       10.3580  -17.1480    2.7710 C.ar  132  PHE132     -0.0042
    110  CE1       11.6870  -16.4360    0.4850 C.ar  132  PHE132     -0.0003
    111  CE2       10.3710  -17.9760    1.6550 C.ar  132  PHE132     -0.0003
    112  CZ        11.0120  -17.5560    0.5190 C.ar  132  PHE132     -0.0000
    113  N          8.3130  -13.9670    2.5260 N.am  133  PRO133     -0.2718
    114  CA         6.8880  -13.9260    2.3900 C.3   133  PRO133      0.1535
    115  C          6.1490  -15.1450    2.9090 C.2   133  PRO133      0.2599
    116  O          4.9460  -15.0360    3.0540 O.2   133  PRO133     -0.2715
    117  CB         6.6990  -13.7620    0.8710 C.3   133  PRO133      0.0310
    118  CG         7.9380  -13.0610    0.4470 C.3   133  PRO133      0.0237
    119  CD         9.0070  -13.6190    1.2870 C.3   133  PRO133      0.0939
    120  N          6.8340  -16.2450    3.1920 N.am  134  THR134     -0.1937
    121  CA         6.2480  -17.5510    3.4660 C.3   134  THR134      0.2028
    122  C          6.4150  -17.9630    4.8980 C.2   134  THR134      0.2642
    123  O          7.5250  -17.9520    5.4640 O.2   134  THR134     -0.2714
    124  CB         6.9290  -18.6430    2.5610 C.3   134  THR134      0.1808
    125  OG1        6.7370  -18.2910    1.1770 O.3   134  THR134     -0.2208
    126  CG2        6.3370  -19.9950    2.8320 C.3   134  THR134      0.0379
    127  N          5.3130  -18.3940    5.4680 N.am  135  TYR135     -0.1959
    128  CA         5.3110  -18.7870    6.8770 C.3   135  TYR135      0.1771
    129  C          5.9600  -20.1610    7.0070 C.2   135  TYR135      0.2619
    130  O          5.5990  -21.0660    6.3180 O.2   135  TYR135     -0.2715
    131  CB         3.8930  -18.8370    7.4650 C.3   135  TYR135      0.0574
    132  CG         3.8270  -19.4770    8.8340 C.ar  135  TYR135     -0.0198
    133  CD1        3.9750  -18.7270    9.9850 C.ar  135  TYR135     -0.0009
    134  CD2        3.6280  -20.8390    8.9880 C.ar  135  TYR135     -0.0009
    135  CE1        3.9570  -19.3250   11.2130 C.ar  135  TYR135      0.0417
    136  CE2        3.5770  -21.4350   10.2430 C.ar  135  TYR135      0.0417
    137  CZ         3.7400  -20.6560   11.3770 C.ar  135  TYR135      0.1957
    138  OH         3.6710  -21.2510   12.5880 O.3   135  TYR135     -0.2866
    139  N          6.9040  -20.2830    7.9270 N.am  136  LYS136     -0.1977
    140  CA         7.3890  -21.5990    8.3430 C.3   136  LYS136      0.1596
    141  C          7.7230  -21.5260    9.8210 C.2   136  LYS136      0.2287
    142  O          8.3110  -20.5260   10.2810 O.2   136  LYS136     -0.2864
    143  CB         8.6040  -22.0240    7.5390 C.3   136  LYS136      0.0298
    144  CG         9.8930  -21.3210    7.9110 C.3   136  LYS136      0.0038
    145  CD        11.0950  -22.1420    7.4760 C.3   136  LYS136      0.0206
    146  CE        12.3960  -21.4090    7.7330 C.3   136  LYS136      0.1093
    147  NZ        13.5140  -22.0530    6.9930 N.3   136  LYS136     -0.1314
    148  N          9.5810  -22.0630   13.1750 N.3   138  VAL138     -0.1245
    149  CA        10.8970  -22.3220   13.7100 C.3   138  VAL138      0.1561
    150  C         10.7220  -22.2100   15.2350 C.2   138  VAL138      0.2260
    151  O          9.8910  -21.4500   15.7070 O.2   138  VAL138     -0.2867
    152  CB        11.9660  -21.3440   13.2050 C.3   138  VAL138      0.0252
    153  CG1       12.0050  -21.3540   11.6880 C.3   138  VAL138      0.0019
    154  CG2       11.7600  -19.9310   13.7360 C.3   138  VAL138      0.0019
    155  N         14.2720  -18.1490   18.6650 N.3   143  PHE143     -0.1241
    156  CA        14.1110  -17.3510   17.4610 C.3   143  PHE143      0.1605
    157  C         15.0990  -16.2070   17.4050 C.2   143  PHE143      0.2264
    158  O         15.3070  -15.5300   18.4160 O.2   143  PHE143     -0.2867
    159  CB        12.7100  -16.7690   17.3990 C.3   143  PHE143      0.0534
    160  CG        12.5500  -15.7710   16.3120 C.ar  143  PHE143     -0.0203
    161  CD1       12.3440  -16.1980   15.0110 C.ar  143  PHE143     -0.0042
    162  CD2       12.6410  -14.3980   16.5660 C.ar  143  PHE143     -0.0042
    163  CE1       12.2150  -15.2890   13.9780 C.ar  143  PHE143     -0.0003
    164  CE2       12.5410  -13.4830   15.5230 C.ar  143  PHE143     -0.0003
    165  CZ        12.3060  -13.9080   14.2280 C.ar  143  PHE143     -0.0000
@<TRIPOS>BOND
     1   118   117    1
     2   118   119    1
     3   110   112   ar
     4   110   108   ar
     5   112   111   ar
     6    83    82    2
     7   117   114    1
     8    86    85   ar
     9    86    88   ar
    10    84    85    1
    11    84    81    1
    12   125   124    1
    13   119   113    1
    14    82    81    1
    15   108   107   ar
    16   111   109   ar
    17    85    87   ar
    18    88    89   ar
    19    12    10    1
    20    10     9    1
    21    80    81    1
    22     2     3    1
    23     2     1    1
    24   114   113    1
    25   114   115    1
    26   113   104   am
    27   124   126    1
    28   124   121    1
    29   109   107   ar
    30   107   106    1
    31   115   116    2
    32   115   120   am
    33    89    87   ar
    34     5     3   am
    35     5     6    1
    36     3     4    2
    37   120   121    1
    38     9     6    1
    39     9    11    1
    40   121   122    1
    41   104   103    1
    42   104   105    2
    43     6     7    1
    44   103   106    1
    45   103   102    1
    46    78    79   ar
    47    78    76   ar
    48   122   123    2
    49   122   127   am
    50    32    34   ar
    51    32    31   ar
    52     7     8    2
    53     7    13   am
    54    79    77   ar
    55    34    35   ar
    56   127   128    1
    57    76    75   ar
    58    30    31    1
    59    30    27    1
    60    31    33   ar
    61    94    91    1
    62    13    14    1
    63    59    60   ar
    64    59    57   ar
    65    60    58   ar
    66   130   129    2
    67    24    23    2
    68    77    75   ar
    69    90    91    1
    70    75    74    1
    71    35    33   ar
    72   128   129    1
    73   128   131    1
    74    93    92    2
    75   147   146    1
    76   129   139   am
    77    27    26    1
    78    27    28    1
    79    91    92    1
    80    18    20    1
    81    18    19    1
    82    18    17    1
    83    57    56   ar
    84    74    71    1
    85   131   132    1
    86    23    26   am
    87    23    22    1
    88   145   146    1
    89   145   144    1
    90   143   144    1
    91   143   140    1
    92    58    56   ar
    93    14    17    1
    94    14    15    1
    95    92    95   am
    96    21    15   am
    97    21    22    1
    98    28    29    2
    99   139   140    1
   100    71    72    1
   101    71    70    1
   102    68    67   ar
   103    98    97    2
   104    73    72    2
   105    97    96    1
   106    56    55    1
   107    15    16    2
   108    69    67   ar
   109   140   141    1
   110    22    25    1
   111    95    96    1
   112    67    66    1
   113   132   134   ar
   114   132   133   ar
   115   134   136   ar
   116    96    99    1
   117    54    53    2
   118    55    52    1
   119   141   142    2
   120   133   135   ar
   121   136   137   ar
   122    53    52    1
   123    53    61   am
   124    66    65    1
   125    64    63    2
   126    52    51    1
   127    62    61    1
   128    62    65    1
   129    62    63    1
   130    99   100    1
   131    99   101    1
   132   135   137   ar
   133    50    48    1
   134   137   138    1
   135   153   152    1
   136    47    46    2
   137    49    48    1
   138    48    45    1
   139    45    46    1
   140    45    44    1
   141    39    38    2
   142   148   149    1
   143   152   149    1
   144   152   154    1
   145    44    38   am
   146    38    37    1
   147   149   150    1
   148   163   165   ar
   149   163   161   ar
   150    40    37    1
   151    40    41    1
   152    42    41    1
   153   165   164   ar
   154    37    36    1
   155    41    43    1
   156   161   160   ar
   157   150   151    2
   158   164   162   ar
   159   160   162   ar
   160   160   159    1
   161   159   156    1
   162   157   156    1
   163   157   158    2
   164   156   155    1
