@<TRIPOS>MOLECULE
tmp/6eozA01.pdb
 160 152 0 0 0
SMALL
GASTEIGER

@<TRIPOS>ATOM
      1  N        -29.6080  -15.1780    2.2710 N.3    63  ASN63      -0.1240
      2  CA       -29.0400  -16.4540    1.8830 C.3    63  ASN63       0.1653
      3  C        -28.6640  -17.1820    3.1660 C.2    63  ASN63       0.2266
      4  O        -27.6740  -16.8420    3.8130 O.2    63  ASN63      -0.2867
      5  CB       -27.8370  -16.2430    0.9590 C.3    63  ASN63       0.1155
      6  CG       -27.2670  -17.5470    0.4300 C.2    63  ASN63       0.2627
      7  OD1      -27.3050  -18.5730    1.1050 O.2    63  ASN63      -0.2716
      8  ND2      -26.7510  -17.5140   -0.8040 N.am   63  ASN63      -0.0877
      9  N        -27.7550  -20.3400    3.3600 N.3    65  LYS65      -0.1231
     10  CA       -26.8640  -21.4540    3.0460 C.3    65  LYS65       0.1693
     11  C        -25.3890  -21.1130    3.2440 C.2    65  LYS65       0.2591
     12  O        -24.6000  -21.9710    3.6420 O.2    65  LYS65      -0.2718
     13  CB       -27.0860  -21.9030    1.5940 C.3    65  LYS65       0.0285
     14  CG       -28.4940  -22.4060    1.2910 C.3    65  LYS65       0.0035
     15  CD       -28.9100  -23.5980    2.1430 C.3    65  LYS65       0.0206
     16  CE       -27.8760  -24.7180    2.1030 C.3    65  LYS65       0.1093
     17  NZ       -28.3180  -25.9850    2.7390 N.3    65  LYS65      -0.1314
     18  N        -25.0100  -19.8800    2.9390 N.am   66  LEU66      -0.1980
     19  CA       -23.6060  -19.4790    3.0050 C.3    66  LEU66       0.1596
     20  C        -23.2240  -19.1580    4.4430 C.2    66  LEU66       0.2287
     21  O        -24.0580  -18.7490    5.2440 O.2    66  LEU66      -0.2864
     22  CB       -23.3310  -18.2900    2.0790 C.3    66  LEU66       0.0297
     23  CG       -23.5470  -18.5410    0.5760 C.3    66  LEU66       0.0022
     24  CD1      -23.3080  -17.2540   -0.1840 C.3    66  LEU66       0.0001
     25  CD2      -22.6370  -19.6530    0.0600 C.3    66  LEU66       0.0001
     26  N        -20.6390  -12.2750   -0.4490 N.3    72  LEU72      -0.1245
     27  CA       -20.9480  -12.4870   -1.8600 C.3    72  LEU72       0.1561
     28  C        -21.5630  -11.2050   -2.3980 C.2    72  LEU72       0.2260
     29  O        -22.5280  -10.7030   -1.8310 O.2    72  LEU72      -0.2867
     30  CB       -21.8900  -13.6710   -2.0320 C.3    72  LEU72       0.0270
     31  CG       -22.2200  -14.0720   -3.4860 C.3    72  LEU72       0.0019
     32  CD1      -22.5170  -15.5560   -3.5940 C.3    72  LEU72       0.0001
     33  CD2      -23.3860  -13.2610   -4.0450 C.3    72  LEU72       0.0001
     34  N        -25.7750  -15.8230  -12.6740 N.3   111  MET111     -0.1245
     35  CA       -25.1800  -14.9960  -11.6290 C.3   111  MET111      0.1570
     36  C        -23.6900  -14.8150  -11.8560 C.2   111  MET111      0.2261
     37  O        -22.9760  -15.7950  -12.0630 O.2   111  MET111     -0.2867
     38  CB       -25.3820  -15.5810  -10.2290 C.3   111  MET111      0.0387
     39  CG       -24.9680  -14.5890   -9.1510 C.3   111  MET111      0.0595
     40  SD       -25.3890  -15.0800   -7.4690 S.3   111  MET111     -0.1393
     41  CE       -24.3460  -16.5190   -7.2510 C.3   111  MET111      0.0692
     42  N        -17.0620  -13.7050   -4.5320 N.3   115  MET115     -0.1245
     43  CA       -17.1540  -14.3100   -3.2080 C.3   115  MET115      0.1570
     44  C        -15.8210  -14.1490   -2.5250 C.2   115  MET115      0.2261
     45  O        -14.7870  -14.4900   -3.0990 O.2   115  MET115     -0.2867
     46  CB       -17.4550  -15.7980   -3.2810 C.3   115  MET115      0.0387
     47  CG       -18.8430  -16.1520   -3.7250 C.3   115  MET115      0.0595
     48  SD       -19.1060  -17.9310   -3.7030 S.3   115  MET115     -0.1393
     49  CE       -19.0180  -18.3420   -1.9680 C.3   115  MET115      0.0692
     50  N        -17.5850  -25.8120    2.9820 N.3   124  GLN124     -0.1231
     51  CA       -19.0050  -25.9740    2.7200 C.3   124  GLN124      0.1683
     52  C        -19.3240  -27.4600    2.6650 C.2   124  GLN124      0.2434
     53  O        -18.4400  -28.2650    2.3610 O.2   124  GLN124     -0.2733
     54  CB       -19.3730  -25.3610    1.3760 C.3   124  GLN124      0.0380
     55  CG       -19.1250  -23.8710    1.2690 C.3   124  GLN124      0.0905
     56  CD       -19.3990  -23.3570   -0.1300 C.2   124  GLN124      0.2608
     57  OE1      -19.1010  -24.0380   -1.1150 O.2   124  GLN124     -0.2717
     58  NE2      -19.9840  -22.1660   -0.2270 N.am  124  GLN124     -0.0878
     59  N        -20.5920  -27.8340    2.9110 N.am  125  PRO125     -0.2729
     60  CA       -20.9900  -29.2090    2.6020 C.3   125  PRO125      0.1401
     61  C        -20.9160  -29.4780    1.1090 C.2   125  PRO125      0.2269
     62  O        -21.1170  -28.5520    0.3100 O.2   125  PRO125     -0.2865
     63  CB       -22.4490  -29.2650    3.0520 C.3   125  PRO125      0.0296
     64  CG       -22.9160  -27.8600    2.9270 C.3   125  PRO125      0.0237
     65  CD       -21.7440  -27.0300    3.3510 C.3   125  PRO125      0.0939
     66  N        -22.1490  -30.3220   -2.3880 N.3   127  HIS127     -0.1226
     67  CA       -23.4160  -29.9660   -2.9850 C.3   127  HIS127      0.1752
     68  C        -23.3570  -29.9180   -4.4980 C.2   127  HIS127      0.2596
     69  O        -22.2850  -29.8650   -5.1040 O.2   127  HIS127     -0.2718
     70  CB       -23.8760  -28.6000   -2.4670 C.3   127  HIS127      0.0759
     71  CG       -22.9770  -27.4600   -2.8380 C.ar  127  HIS127      0.0818
     72  ND1      -21.9620  -27.0130   -2.0180 N.ar  127  HIS127     -0.2268
     73  CD2      -22.9590  -26.6570   -3.9320 C.ar  127  HIS127      0.1154
     74  CE1      -21.3530  -25.9910   -2.5960 C.ar  127  HIS127      0.1986
     75  NE2      -21.9410  -25.7510   -3.7580 N.ar  127  HIS127     -0.2212
     76  N        -24.5370  -29.9100   -5.0900 N.am  128  ARG128     -0.1966
     77  CA       -24.7050  -29.4340   -6.4570 C.3   128  ARG128      0.1729
     78  C        -25.3120  -28.0520   -6.3830 C.2   128  ARG128      0.2616
     79  O        -26.1730  -27.7820   -5.5350 O.2   128  ARG128     -0.2715
     80  CB       -25.6100  -30.3670   -7.2380 C.3   128  ARG128      0.0348
     81  CG       -24.9550  -31.6900   -7.5370 C.3   128  ARG128      0.0492
     82  CD       -25.9440  -32.6960   -8.0860 C.3   128  ARG128      0.2205
     83  NE       -25.2670  -33.8270   -8.7140 N.pl3 128  ARG128     -0.0865
     84  CZ       -25.8160  -35.0110   -8.9850 C.cat 128  ARG128      0.5346
     85  NH1      -27.0750  -35.2960   -8.6440 N.pl3 128  ARG128      0.1354
     86  NH2      -25.0820  -35.9370   -9.5800 N.pl3 128  ARG128      0.1354
     87  N        -24.8640  -27.1670   -7.2660 N.am  129  ASP129     -0.1957
     88  CA       -25.4730  -25.8460   -7.3830 C.3   129  ASP129      0.1840
     89  C        -26.8900  -25.9430   -7.9680 C.2   129  ASP129      0.2622
     90  O        -27.3000  -26.9930   -8.4600 O.2   129  ASP129     -0.2715
     91  CB       -24.6150  -24.9180   -8.2540 C.3   129  ASP129      0.1450
     92  CG       -23.2740  -24.5550   -7.6270 C.2   129  ASP129      0.3671
     93  OD1      -23.0950  -24.6360   -6.3850 O.co2 129  ASP129     -0.2456
     94  OD2      -22.3820  -24.1230   -8.3940 O.co2 129  ASP129     -0.2456
     95  N        -27.6310  -24.8370   -7.8500 N.am  130  MET130     -0.1963
     96  CA       -28.9780  -24.6420   -8.4310 C.3   130  MET130      0.1736
     97  C        -30.1470  -25.2080   -7.6250 C.2   130  MET130      0.2616
     98  O        -31.2920  -24.9200   -7.9520 O.2   130  MET130     -0.2715
     99  CB       -29.0770  -25.1130   -9.8990 C.3   130  MET130      0.0427
    100  CG       -28.0670  -24.4590  -10.8280 C.3   130  MET130      0.0599
    101  SD       -28.4330  -22.7130  -11.1140 S.3   130  MET130     -0.1393
    102  CE       -29.7480  -22.8800  -12.3160 C.3   130  MET130      0.0692
    103  N        -29.8790  -25.9650   -6.5580 N.am  131  ARG131     -0.1963
    104  CA       -30.9610  -26.6390   -5.8320 C.3   131  ARG131      0.1729
    105  C        -31.7470  -25.7330   -4.8760 C.2   131  ARG131      0.2616
    106  O        -32.8250  -26.1160   -4.4220 O.2   131  ARG131     -0.2715
    107  CB       -30.4250  -27.8650   -5.0910 C.3   131  ARG131      0.0348
    108  CG       -30.4340  -29.1300   -5.9170 C.3   131  ARG131      0.0492
    109  CD       -29.5380  -29.0390   -7.1270 C.3   131  ARG131      0.2205
    110  NE       -29.5950  -30.2550   -7.9320 N.pl3 131  ARG131     -0.0865
    111  CZ       -29.0130  -30.3890   -9.1190 C.cat 131  ARG131      0.5346
    112  NH1      -28.3270  -29.3870   -9.6610 N.pl3 131  ARG131      0.1354
    113  NH2      -29.1330  -31.5310   -9.7870 N.pl3 131  ARG131      0.1354
    114  N        -31.2320  -24.5330   -4.6020 N.am  132  PHE132     -0.1960
    115  CA       -31.8860  -23.5840   -3.7000 C.3   132  PHE132      0.1771
    116  C        -32.5100  -22.4160   -4.4460 C.2   132  PHE132      0.2620
    117  O        -32.9160  -21.4230   -3.8520 O.2   132  PHE132     -0.2715
    118  CB       -30.8790  -23.1050   -2.6600 C.3   132  PHE132      0.0574
    119  CG       -30.3900  -24.2110   -1.7980 C.ar  132  PHE132     -0.0200
    120  CD1      -31.1800  -24.6770   -0.7510 C.ar  132  PHE132     -0.0042
    121  CD2      -29.2050  -24.8550   -2.0810 C.ar  132  PHE132     -0.0042
    122  CE1      -30.7590  -25.7350    0.0410 C.ar  132  PHE132     -0.0003
    123  CE2      -28.7790  -25.9090   -1.2890 C.ar  132  PHE132     -0.0003
    124  CZ       -29.5590  -26.3520   -0.2370 C.ar  132  PHE132     -0.0000
    125  N        -32.6020  -22.5560   -5.7620 N.am  133  SER133     -0.1950
    126  CA       -33.1680  -21.5190   -6.6250 C.3   133  SER133      0.1924
    127  C        -33.9750  -22.0970   -7.7810 C.2   133  SER133      0.2314
    128  O        -34.9790  -21.5050   -8.1890 O.2   133  SER133     -0.2863
    129  CB       -32.0530  -20.6270   -7.1770 C.3   133  SER133      0.2116
    130  OG       -31.0630  -21.3910   -7.8480 O.3   133  SER133     -0.2180
    131  N        -20.6280  -23.3900  -14.1470 N.3   150  ASN150     -0.1240
    132  CA       -20.1060  -22.3760  -13.2370 C.3   150  ASN150      0.1653
    133  C        -18.6020  -22.2690  -13.4020 C.2   150  ASN150      0.2266
    134  O        -17.8820  -23.2510  -13.1950 O.2   150  ASN150     -0.2867
    135  CB       -20.4730  -22.7560  -11.7950 C.3   150  ASN150      0.1155
    136  CG       -20.2550  -21.6320  -10.7920 C.2   150  ASN150      0.2627
    137  OD1      -19.5310  -20.6580  -11.0380 O.2   150  ASN150     -0.2716
    138  ND2      -20.8870  -21.7770   -9.6300 N.am  150  ASN150     -0.0877
    139  N        -17.3450  -16.0120   -9.3550 N.3   220  THR220     -0.1218
    140  CA       -18.1760  -17.1400   -9.7950 C.3   220  THR220      0.1862
    141  C        -19.1530  -16.6650  -10.8570 C.2   220  THR220      0.2287
    142  O        -19.9650  -15.7800  -10.5960 O.2   220  THR220     -0.2866
    143  CB       -18.9010  -17.8710   -8.6400 C.3   220  THR220      0.1770
    144  OG1      -19.8970  -18.7560   -9.1720 O.3   220  THR220     -0.2211
    145  CG2      -19.5530  -16.9200   -7.6530 C.3   220  THR220      0.0375
    146  N        -21.9570  -18.1450  -13.1310 N.3   222  THR222     -0.1218
    147  CA       -22.9070  -19.1830  -13.5140 C.3   222  THR222      0.1862
    148  C        -23.5640  -18.7360  -14.7970 C.2   222  THR222      0.2287
    149  O        -24.3060  -17.7510  -14.8200 O.2   222  THR222     -0.2866
    150  CB       -23.9710  -19.4540  -12.4360 C.3   222  THR222      0.1770
    151  OG1      -23.3230  -19.8480  -11.2250 O.3   222  THR222     -0.2211
    152  CG2      -24.9180  -20.5600  -12.8680 C.3   222  THR222      0.0375
    153  N        -30.5080  -15.8200  -11.1480 N.3   231  LEU231     -0.1245
    154  CA       -30.5400  -15.6380   -9.6950 C.3   231  LEU231      0.1561
    155  C        -30.5220  -14.1510   -9.3620 C.2   231  LEU231      0.2260
    156  O        -31.0370  -13.7460   -8.3230 O.2   231  LEU231     -0.2867
    157  CB       -29.3510  -16.3380   -9.0320 C.3   231  LEU231      0.0270
    158  CG       -29.4920  -17.8640   -8.9030 C.3   231  LEU231      0.0019
    159  CD1      -28.9930  -18.6160  -10.1310 C.3   231  LEU231      0.0001
    160  CD2      -28.7670  -18.3590   -7.6700 C.3   231  LEU231      0.0001
@<TRIPOS>BOND
     1   149   148    2
     2   148   147    1
     3   131   132    1
     4   147   146    1
     5   147   150    1
     6   133   132    1
     7   133   134    2
     8   132   135    1
     9   152   150    1
    10    34    35    1
    11   150   151    1
    12   102   101    1
    13    37    36    2
    14    36    35    1
    15   135   136    1
    16    35    38    1
    17   153   154    1
    18   101   100    1
    19   137   136    2
    20   141   142    2
    21   141   140    1
    22   100    99    1
    23   136   138   am
    24    38    39    1
    25   159   158    1
    26    99    96    1
    27   140   139    1
    28   140   143    1
    29   113   111    1
    30   154   155    1
    31   154   157    1
    32   112   111    1
    33    86    84    1
    34   155   156    2
    35   144   143    1
    36    39    40    1
    37   111   110    2
    38   157   158    1
    39    84    83    2
    40    84    85    1
    41   158   160    1
    42    83    82    1
    43   143   145    1
    44    90    89    2
    45    96    95    1
    46    96    97    1
    47    94    92   ar
    48    91    92    1
    49    91    88    1
    50   128   127    2
    51    82    81    1
    52    89    95   am
    53    89    88    1
    54    98    97    2
    55   110   109    1
    56   130   129    1
    57   127   126    1
    58    92    93   ar
    59    97   103   am
    60    81    80    1
    61    40    41    1
    62    88    87    1
    63    87    78   am
    64    80    77    1
    65   129   126    1
    66   109   108    1
    67   126   125    1
    68   103   104    1
    69    77    78    1
    70    77    76    1
    71    78    79    2
    72   108   107    1
    73   104   107    1
    74   104   105    1
    75   125   116   am
    76    69    68    2
    77    76    68   am
    78   105   114   am
    79   105   106    2
    80   114   115    1
    81    42    43    1
    82    68    67    1
    83   116   117    2
    84   116   115    1
    85    33    31    1
    86    73    75   ar
    87    73    71   ar
    88    75    74   ar
    89    47    48    1
    90    47    46    1
    91    48    49    1
    92   115   118    1
    93    32    31    1
    94    31    30    1
    95    46    43    1
    96    43    44    1
    97    45    44    2
    98    67    70    1
    99    67    66    1
   100    71    70    1
   101    71    72   ar
   102   118   119    1
   103    74    72   ar
   104    28    27    1
   105    28    29    2
   106   121   119   ar
   107   121   123   ar
   108    30    27    1
   109    27    26    1
   110   119   120   ar
   111   123   124   ar
   112    57    56    2
   113     8     6   am
   114   120   122   ar
   115   124   122   ar
   116    58    56   am
   117    24    23    1
   118    56    55    1
   119    25    23    1
   120    62    61    2
   121     6     5    1
   122     6     7    2
   123    23    22    1
   124     5     2    1
   125    61    60    1
   126    55    54    1
   127    14    13    1
   128    14    15    1
   129    54    51    1
   130    13    10    1
   131     2     1    1
   132     2     3    1
   133    22    19    1
   134    16    15    1
   135    16    17    1
   136    53    52    2
   137    60    59    1
   138    60    63    1
   139    52    51    1
   140    52    59   am
   141    51    50    1
   142    59    65    1
   143    64    63    1
   144    64    65    1
   145    18    19    1
   146    18    11   am
   147    19    20    1
   148    10    11    1
   149    10     9    1
   150     3     4    2
   151    11    12    2
   152    20    21    2
