@<TRIPOS>MOLECULE
tmp/6eozA00.pdb
 107 96 0 0 0
SMALL
GASTEIGER

@<TRIPOS>ATOM
      1  N        -25.0100  -19.8800    2.9390 N.3    66  LEU66      -0.1245
      2  CA       -23.6060  -19.4790    3.0050 C.3    66  LEU66       0.1561
      3  C        -23.2240  -19.1580    4.4430 C.2    66  LEU66       0.2260
      4  O        -24.0580  -18.7490    5.2440 O.2    66  LEU66      -0.2867
      5  CB       -23.3310  -18.2900    2.0790 C.3    66  LEU66       0.0270
      6  CG       -23.5470  -18.5410    0.5760 C.3    66  LEU66       0.0019
      7  CD1      -23.3080  -17.2540   -0.1840 C.3    66  LEU66       0.0001
      8  CD2      -22.6370  -19.6530    0.0600 C.3    66  LEU66       0.0001
      9  N        -17.0620  -13.7050   -4.5320 N.3   115  MET115     -0.1245
     10  CA       -17.1540  -14.3100   -3.2080 C.3   115  MET115      0.1570
     11  C        -15.8210  -14.1490   -2.5250 C.2   115  MET115      0.2261
     12  O        -14.7870  -14.4900   -3.0990 O.2   115  MET115     -0.2867
     13  CB       -17.4550  -15.7980   -3.2810 C.3   115  MET115      0.0387
     14  CG       -18.8430  -16.1520   -3.7250 C.3   115  MET115      0.0595
     15  SD       -19.1060  -17.9310   -3.7030 S.3   115  MET115     -0.1393
     16  CE       -19.0180  -18.3420   -1.9680 C.3   115  MET115      0.0692
     17  N        -13.9520  -15.1720    1.1360 N.3   117  LEU117     -0.1245
     18  CA       -14.0270  -16.0190    2.3190 C.3   117  LEU117      0.1561
     19  C        -13.0280  -15.4870    3.3370 C.2   117  LEU117      0.2260
     20  O        -11.8470  -15.3070    3.0200 O.2   117  LEU117     -0.2867
     21  CB       -13.7310  -17.4790    1.9600 C.3   117  LEU117      0.0270
     22  CG       -14.6280  -18.1540    0.9010 C.3   117  LEU117      0.0019
     23  CD1      -16.0980  -17.7660    1.0580 C.3   117  LEU117      0.0001
     24  CD2      -14.1720  -17.8820   -0.5290 C.3   117  LEU117      0.0001
     25  N        -17.5850  -25.8120    2.9820 N.3   124  GLN124     -0.1245
     26  CA       -19.0050  -25.9740    2.7200 C.3   124  GLN124      0.1566
     27  C        -19.3240  -27.4600    2.6650 C.2   124  GLN124      0.2260
     28  O        -18.4400  -28.2650    2.3610 O.2   124  GLN124     -0.2867
     29  CB       -19.3730  -25.3610    1.3760 C.3   124  GLN124      0.0367
     30  CG       -19.1250  -23.8710    1.2690 C.3   124  GLN124      0.0905
     31  CD       -19.3990  -23.3570   -0.1300 C.2   124  GLN124      0.2608
     32  OE1      -19.1010  -24.0380   -1.1150 O.2   124  GLN124     -0.2717
     33  NE2      -19.9840  -22.1660   -0.2270 N.am  124  GLN124     -0.0878
     34  N        -22.1490  -30.3220   -2.3880 N.3   127  HIS127     -0.1241
     35  CA       -23.4160  -29.9660   -2.9850 C.3   127  HIS127      0.1621
     36  C        -23.3570  -29.9180   -4.4980 C.2   127  HIS127      0.2264
     37  O        -22.2850  -29.8650   -5.1040 O.2   127  HIS127     -0.2867
     38  CB       -23.8760  -28.6000   -2.4670 C.3   127  HIS127      0.0745
     39  CG       -22.9770  -27.4600   -2.8380 C.ar  127  HIS127      0.0817
     40  ND1      -21.9620  -27.0130   -2.0180 N.ar  127  HIS127     -0.2268
     41  CD2      -22.9590  -26.6570   -3.9320 C.ar  127  HIS127      0.1154
     42  CE1      -21.3530  -25.9910   -2.5960 C.ar  127  HIS127      0.1986
     43  NE2      -21.9410  -25.7510   -3.7580 N.ar  127  HIS127     -0.2212
     44  N        -24.8640  -27.1670   -7.2660 N.3   129  ASP129     -0.1239
     45  CA       -25.4730  -25.8460   -7.3830 C.3   129  ASP129      0.1674
     46  C        -26.8900  -25.9430   -7.9680 C.2   129  ASP129      0.2266
     47  O        -27.3000  -26.9930   -8.4600 O.2   129  ASP129     -0.2867
     48  CB       -24.6150  -24.9180   -8.2540 C.3   129  ASP129      0.1410
     49  CG       -23.2740  -24.5550   -7.6270 C.2   129  ASP129      0.3668
     50  OD1      -23.0950  -24.6360   -6.3850 O.co2 129  ASP129     -0.2456
     51  OD2      -22.3820  -24.1230   -8.3940 O.co2 129  ASP129     -0.2456
     52  N        -20.6280  -23.3900  -14.1470 N.3   150  ASN150     -0.1240
     53  CA       -20.1060  -22.3760  -13.2370 C.3   150  ASN150      0.1653
     54  C        -18.6020  -22.2690  -13.4020 C.2   150  ASN150      0.2266
     55  O        -17.8820  -23.2510  -13.1950 O.2   150  ASN150     -0.2867
     56  CB       -20.4730  -22.7560  -11.7950 C.3   150  ASN150      0.1155
     57  CG       -20.2550  -21.6320  -10.7920 C.2   150  ASN150      0.2627
     58  OD1      -19.5310  -20.6580  -11.0380 O.2   150  ASN150     -0.2716
     59  ND2      -20.8870  -21.7770   -9.6300 N.am  150  ASN150     -0.0877
     60  N        -15.5590  -20.8700  -11.7100 N.3   152  LEU152     -0.1245
     61  CA       -15.0520  -20.3670  -10.4350 C.3   152  LEU152      0.1561
     62  C        -13.6300  -19.8590  -10.6670 C.2   152  LEU152      0.2260
     63  O        -12.6700  -20.6430  -10.7000 O.2   152  LEU152     -0.2867
     64  CB       -15.0960  -21.4560   -9.3670 C.3   152  LEU152      0.0270
     65  CG       -16.5040  -21.9120   -8.9510 C.3   152  LEU152      0.0019
     66  CD1      -16.9660  -23.0850   -9.7860 C.3   152  LEU152      0.0001
     67  CD2      -16.5490  -22.2800   -7.4770 C.3   152  LEU152      0.0001
     68  N        -11.2920  -25.1040   -3.6450 N.3   165  THR165     -0.1218
     69  CA       -12.4930  -25.8880   -3.9220 C.3   165  THR165      0.1862
     70  C        -12.1930  -27.3790   -4.0770 C.2   165  THR165      0.2287
     71  O        -11.1680  -27.7440   -4.6530 O.2   165  THR165     -0.2866
     72  CB       -13.1470  -25.3860   -5.2250 C.3   165  THR165      0.1770
     73  OG1      -13.0940  -23.9500   -5.2530 O.3   165  THR165     -0.2211
     74  CG2      -14.5960  -25.8710   -5.3590 C.3   165  THR165      0.0375
     75  N        -19.3990  -30.6510   -5.4440 N.3   204  HIS204     -0.1241
     76  CA       -18.2440  -29.8410   -5.0780 C.3   204  HIS204      0.1621
     77  C        -18.5030  -29.1000   -3.7650 C.2   204  HIS204      0.2264
     78  O        -19.6260  -29.0730   -3.2570 O.2   204  HIS204     -0.2867
     79  CB       -17.9500  -28.8240   -6.1870 C.3   204  HIS204      0.0745
     80  CG       -19.0380  -27.8150   -6.3440 C.ar  204  HIS204      0.0817
     81  ND1      -20.2510  -28.1220   -6.9220 N.ar  204  HIS204     -0.2268
     82  CD2      -19.1310  -26.5340   -5.9140 C.ar  204  HIS204      0.1154
     83  CE1      -21.0380  -27.0590   -6.8580 C.ar  204  HIS204      0.1986
     84  NE2      -20.3820  -26.0820   -6.2550 N.ar  204  HIS204     -0.2212
     85  N        -16.6220  -25.5070   -1.3930 N.3   206  GLY206     -0.1225
     86  CA       -15.5270  -24.6990   -0.8720 C.3   206  GLY206      0.1811
     87  C        -14.7770  -25.4740    0.2010 C.2   206  GLY206      0.2280
     88  O        -15.3810  -26.2340    0.9590 O.2   206  GLY206     -0.2866
     89  N         -9.3400  -15.7410    0.7940 N.3   216  ARG216     -0.1245
     90  CA        -9.4960  -16.3040   -0.5400 C.3   216  ARG216      0.1563
     91  C        -10.6550  -15.5950   -1.2290 C.2   216  ARG216      0.2260
     92  O        -11.7140  -15.3900   -0.6270 O.2   216  ARG216     -0.2867
     93  CB        -9.7610  -17.8020   -0.4280 C.3   216  ARG216      0.0307
     94  CG        -9.8380  -18.5630   -1.7350 C.3   216  ARG216      0.0489
     95  CD        -9.9370  -20.0550   -1.4960 C.3   216  ARG216      0.2205
     96  NE       -11.1760  -20.4400   -0.8080 N.pl3 216  ARG216     -0.0865
     97  CZ       -12.2880  -20.9080   -1.3860 C.cat 216  ARG216      0.5346
     98  NH1      -13.3240  -21.2380   -0.6260 N.pl3 216  ARG216      0.1354
     99  NH2      -12.3750  -21.0720   -2.7060 N.pl3 216  ARG216      0.1354
    100  N        -12.8800  -15.2240   -5.0840 N.3   218  LEU218     -0.1245
    101  CA       -13.1650  -15.7740   -6.4010 C.3   218  LEU218      0.1561
    102  C        -14.2630  -15.0000   -7.1130 C.2   218  LEU218      0.2260
    103  O        -15.0630  -14.2980   -6.4800 O.2   218  LEU218     -0.2867
    104  CB       -13.5360  -17.2570   -6.2760 C.3   218  LEU218      0.0270
    105  CG       -14.7920  -17.6150   -5.4670 C.3   218  LEU218      0.0019
    106  CD1      -16.0460  -17.6150   -6.3350 C.3   218  LEU218      0.0001
    107  CD2      -14.6530  -18.9540   -4.7650 C.3   218  LEU218      0.0001
@<TRIPOS>BOND
     1    52    53    1
     2    54    53    1
     3    54    55    2
     4    53    56    1
     5    56    57    1
     6    60    61    1
     7    58    57    2
     8    57    59   am
     9    63    62    2
    10    62    61    1
    11    61    64    1
    12    66    65    1
    13    64    65    1
    14    65    67    1
    15    47    46    2
    16    51    49   ar
    17    48    49    1
    18    48    45    1
    19    46    45    1
    20    49    50   ar
    21    45    44    1
    22   102   103    2
    23   102   101    1
    24    81    83   ar
    25    81    80   ar
    26    83    84   ar
    27   101   104    1
    28   101   100    1
    29    80    79    1
    30    80    82   ar
    31   106   105    1
    32   104   105    1
    33    84    82   ar
    34    79    76    1
    35   105   107    1
    36    75    76    1
    37    74    72    1
    38    73    72    1
    39    72    69    1
    40    37    36    2
    41    76    77    1
    42    71    70    2
    43     9    10    1
    44    36    35    1
    45    70    69    1
    46    41    43   ar
    47    41    39   ar
    48    69    68    1
    49    77    78    2
    50    43    42   ar
    51    14    15    1
    52    14    13    1
    53    15    16    1
    54    13    10    1
    55    10    11    1
    56    12    11    2
    57    35    38    1
    58    35    34    1
    59    39    38    1
    60    39    40   ar
    61    99    97    1
    62    42    40   ar
    63    94    95    1
    64    94    93    1
    65    95    96    1
    66    85    86    1
    67    97    96    2
    68    97    98    1
    69    91    92    2
    70    91    90    1
    71    32    31    2
    72    86    87    1
    73    90    93    1
    74    90    89    1
    75    24    22    1
    76    33    31   am
    77     7     6    1
    78    31    30    1
    79     8     6    1
    80    87    88    2
    81     6     5    1
    82    22    23    1
    83    22    21    1
    84    17    18    1
    85    30    29    1
    86    29    26    1
    87    21    18    1
    88     5     2    1
    89    18    19    1
    90    28    27    2
    91    27    26    1
    92    26    25    1
    93     1     2    1
    94     2     3    1
    95    20    19    2
    96     3     4    2
