@<TRIPOS>MOLECULE
tmp/6ep0A00.pdb
 169 162 0 0 0
SMALL
GASTEIGER

@<TRIPOS>ATOM
      1  N        -22.7510   19.0500    4.2200 N.3    68  ILE68      -0.1245
      2  CA       -23.2030   20.0380    5.2020 C.3    68  ILE68       0.1561
      3  C        -23.8660   21.2410    4.5260 C.2    68  ILE68       0.2260
      4  O        -23.5360   21.5870    3.3840 O.2    68  ILE68      -0.2867
      5  CB       -22.1120   20.4530    6.2410 C.3    68  ILE68       0.0252
      6  CG1      -20.7840   20.8920    5.5940 C.3    68  ILE68       0.0019
      7  CG2      -21.8930   19.3210    7.2600 C.3    68  ILE68       0.0019
      8  CD1      -19.5710   21.1720    6.6560 C.3    68  ILE68       0.0001
      9  N        -25.6110   25.3030    5.6340 N.3    70  LYS70      -0.1245
     10  CA       -25.7650   26.4240    6.5550 C.3    70  LYS70       0.1561
     11  C        -26.7380   27.3820    5.8720 C.2    70  LYS70       0.2260
     12  O        -26.3860   28.0620    4.8900 O.2    70  LYS70      -0.2867
     13  CB       -24.4040   27.0680    6.9090 C.3    70  LYS70       0.0271
     14  CG       -24.3680   27.7190    8.2900 C.3    70  LYS70       0.0035
     15  CD       -23.1120   27.3840    9.1070 C.3    70  LYS70       0.0206
     16  CE       -23.2990   27.7930   10.5630 C.3    70  LYS70       0.1093
     17  NZ       -22.1180   27.4710   11.4210 N.3    70  LYS70      -0.1314
     18  N        -27.3870   27.5320    1.8870 N.3    73  PHE73      -0.1241
     19  CA       -26.0790   27.3200    1.2480 C.3    73  PHE73       0.1605
     20  C        -25.5170   25.9180    1.4720 C.2    73  PHE73       0.2264
     21  O        -25.3740   25.4870    2.6070 O.2    73  PHE73      -0.2867
     22  CB       -25.0310   28.3830    1.6590 C.3    73  PHE73       0.0534
     23  CG       -23.7610   28.3110    0.8330 C.ar   73  PHE73      -0.0203
     24  CD1      -23.7350   28.7790   -0.4840 C.ar   73  PHE73      -0.0042
     25  CD2      -22.5920   27.7680    1.3640 C.ar   73  PHE73      -0.0042
     26  CE1      -22.5630   28.7030   -1.2530 C.ar   73  PHE73      -0.0003
     27  CE2      -21.4230   27.6880    0.5930 C.ar   73  PHE73      -0.0003
     28  CZ       -21.4160   28.1560   -0.7100 C.ar   73  PHE73      -0.0000
     29  N        -22.2240   23.5170    1.0470 N.3    75  PHE75      -0.1241
     30  CA       -20.7780   23.5210    0.8920 C.3    75  PHE75       0.1605
     31  C        -20.3650   22.4610   -0.1450 C.2    75  PHE75       0.2264
     32  O        -21.2360   21.7560   -0.6610 O.2    75  PHE75      -0.2867
     33  CB       -20.1030   23.3690    2.2650 C.3    75  PHE75       0.0534
     34  CG       -20.3730   24.5520    3.1760 C.ar   75  PHE75      -0.0203
     35  CD1      -19.6410   25.7300    3.0530 C.ar   75  PHE75      -0.0042
     36  CD2      -21.3910   24.5050    4.1240 C.ar   75  PHE75      -0.0042
     37  CE1      -19.9030   26.8290    3.8850 C.ar   75  PHE75      -0.0003
     38  CE2      -21.6580   25.6080    4.9450 C.ar   75  PHE75      -0.0003
     39  CZ       -20.9060   26.7580    4.8280 C.ar   75  PHE75      -0.0000
     40  N         -9.1530   32.0670    0.6040 N.3   103  TYR103     -0.1241
     41  CA        -9.8700   31.9160    1.8770 C.3   103  TYR103      0.1605
     42  C        -11.3810   31.6440    1.6600 C.2   103  TYR103      0.2264
     43  O        -11.9410   30.7470    2.2620 O.2   103  TYR103     -0.2867
     44  CB        -9.6430   33.1810    2.7420 C.3   103  TYR103      0.0534
     45  CG       -10.4270   33.2090    4.0370 C.ar  103  TYR103     -0.0201
     46  CD1      -10.2460   32.2230    5.0070 C.ar  103  TYR103     -0.0009
     47  CD2      -11.3350   34.2380    4.3060 C.ar  103  TYR103     -0.0009
     48  CE1      -10.9810   32.2300    6.1910 C.ar  103  TYR103      0.0417
     49  CE2      -12.0710   34.2600    5.4940 C.ar  103  TYR103      0.0417
     50  CZ       -11.8790   33.2580    6.4360 C.ar  103  TYR103      0.1957
     51  OH       -12.5460   33.2850    7.6250 O.3   103  TYR103     -0.2866
     52  N        -13.4770   28.3020    2.4880 N.3   107  ASN107     -0.1240
     53  CA       -14.6700   28.2930    3.3120 C.3   107  ASN107      0.1653
     54  C        -15.8170   27.5670    2.5850 C.2   107  ASN107      0.2266
     55  O        -16.5610   26.8500    3.2400 O.2   107  ASN107     -0.2867
     56  CB       -15.0460   29.6810    3.8060 C.3   107  ASN107      0.1155
     57  CG       -16.3320   29.6890    4.5960 C.2   107  ASN107      0.2627
     58  OD1      -16.4270   29.1270    5.6730 O.2   107  ASN107     -0.2716
     59  ND2      -17.3740   30.2180    4.0150 N.am  107  ASN107     -0.0877
     60  N        -15.1050   23.8860    3.0640 N.3   110  HIS110     -0.1241
     61  CA       -15.4820   23.5680    4.4550 C.3   110  HIS110      0.1621
     62  C        -15.1170   22.0890    4.6760 C.2   110  HIS110      0.2264
     63  O        -16.0170   21.2480    4.7560 O.2   110  HIS110     -0.2867
     64  CB       -17.0000   23.7850    4.6030 C.3   110  HIS110      0.0745
     65  CG       -17.4050   24.6580    5.7330 C.ar  110  HIS110      0.0817
     66  ND1      -17.0900   25.9990    5.7540 N.ar  110  HIS110     -0.2268
     67  CD2      -18.1550   24.3670    6.8150 C.ar  110  HIS110      0.1154
     68  CE1      -17.6170   26.4700    6.8740 C.ar  110  HIS110      0.1986
     69  NE2      -18.2710   25.5230    7.5380 N.ar  110  HIS110     -0.2212
     70  N        -15.9990   18.3860    9.4320 N.3   113  ARG113     -0.1231
     71  CA       -17.3430   18.2570    9.9920 C.3   113  ARG113      0.1694
     72  C        -17.6520   19.4840   10.8760 C.2   113  ARG113      0.2592
     73  O        -18.7270   20.0830   10.7450 O.2   113  ARG113     -0.2718
     74  CB       -17.4200   16.9520   10.8020 C.3   113  ARG113      0.0321
     75  CG       -18.7910   16.5460   11.2940 C.3   113  ARG113      0.0489
     76  CD       -18.7380   15.1180   11.7780 C.3   113  ARG113      0.2205
     77  NE       -19.8370   14.8060   12.6950 N.pl3 113  ARG113     -0.0865
     78  CZ       -19.8190   13.8250   13.6000 C.cat 113  ARG113      0.5346
     79  NH1      -18.7490   13.0450   13.7260 N.pl3 113  ARG113      0.1354
     80  NH2      -20.8700   13.6180   14.3850 N.pl3 113  ARG113      0.1354
     81  N        -16.6740   19.9010   11.7100 N.am  114  GLU114     -0.1966
     82  CA       -16.8290   21.0220   12.6330 C.3   114  GLU114      0.1733
     83  C        -15.4870   21.7440   12.8250 C.2   114  GLU114      0.2617
     84  O        -14.4380   21.1480   12.5930 O.2   114  GLU114     -0.2715
     85  CB       -17.3760   20.4490   13.9860 C.3   114  GLU114      0.0429
     86  CG       -17.9950   21.4470   14.9550 C.3   114  GLU114      0.1163
     87  CD       -18.9250   22.4740   14.3410 C.2   114  GLU114      0.3649
     88  OE1      -18.5370   23.6620   14.3160 O.co2 114  GLU114     -0.2457
     89  OE2      -20.0160   22.0970   13.8530 O.co2 114  GLU114     -0.2457
     90  N        -15.5280   23.0120   13.2280 N.am  115  GLY115     -0.1940
     91  CA       -14.3130   23.7720   13.5120 C.3   115  GLY115      0.2014
     92  C        -13.6160   24.3960   12.3290 C.2   115  GLY115      0.2639
     93  O        -12.4250   24.7110   12.3940 O.2   115  GLY115     -0.2714
     94  N        -14.3510   24.6010   11.2440 N.am  116  ASN116     -0.1958
     95  CA       -13.8170   25.2030   10.0300 C.3   116  ASN116      0.1819
     96  C        -13.4600   26.6420   10.2500 C.2   116  ASN116      0.2621
     97  O        -12.3560   27.0380    9.8810 O.2   116  ASN116     -0.2715
     98  CB       -14.8020   25.0670    8.8810 C.3   116  ASN116      0.1195
     99  CG       -15.0060   23.6440    8.4860 C.2   116  ASN116      0.2630
    100  OD1      -14.2580   23.1040    7.6790 O.2   116  ASN116     -0.2716
    101  ND2      -16.0210   23.0030    9.0560 N.am  116  ASN116     -0.0877
    102  N        -14.3620   27.4110   10.8580 N.am  117  GLY117     -0.1954
    103  CA       -14.1320   28.8250   11.1200 C.3   117  GLY117      0.1869
    104  C        -12.8150   29.1020   11.8150 C.2   117  GLY117      0.2309
    105  O        -11.9720   29.8370   11.2930 O.2   117  GLY117     -0.2863
    106  N         -9.3480   30.5190   10.0070 N.3   121  ARG121     -0.1245
    107  CA        -8.9110   31.8730   10.3500 C.3   121  ARG121      0.1563
    108  C         -7.4140   31.9160   10.7690 C.2   121  ARG121      0.2260
    109  O         -6.7260   32.9010   10.4630 O.2   121  ARG121     -0.2867
    110  CB        -9.8120   32.4960   11.4120 C.3   121  ARG121      0.0307
    111  CG       -11.0070   33.1800   10.7940 C.3   121  ARG121      0.0489
    112  CD       -11.8430   33.8710   11.8370 C.3   121  ARG121      0.2205
    113  NE       -12.3540   32.9390   12.8390 N.pl3 121  ARG121     -0.0865
    114  CZ       -13.5090   32.2870   12.7570 C.cat 121  ARG121      0.5346
    115  NH1      -14.2700   32.4080   11.6870 N.pl3 121  ARG121      0.1354
    116  NH2      -13.8840   31.4660   13.7260 N.pl3 121  ARG121      0.1354
    117  N        -18.7660   40.2030   10.2220 N.3   146  TYR146     -0.1227
    118  CA       -17.9370   39.0870    9.7800 C.3   146  TYR146      0.1736
    119  C        -18.7720   37.9220    9.2570 C.2   146  TYR146      0.2595
    120  O        -18.5100   37.4470    8.1530 O.2   146  TYR146     -0.2718
    121  CB       -16.9720   38.5890   10.8970 C.3   146  TYR146      0.0548
    122  CG       -16.2890   37.2840   10.5170 C.ar  146  TYR146     -0.0200
    123  CD1      -15.2060   37.2700    9.6290 C.ar  146  TYR146     -0.0009
    124  CD2      -16.7840   36.0540   10.9650 C.ar  146  TYR146     -0.0009
    125  CE1      -14.6170   36.0700    9.2220 C.ar  146  TYR146      0.0417
    126  CE2      -16.2320   34.8500   10.5270 C.ar  146  TYR146      0.0417
    127  CZ       -15.1320   34.8640    9.6740 C.ar  146  TYR146      0.1957
    128  OH       -14.5640   33.6870    9.2570 O.3   146  TYR146     -0.2866
    129  N        -19.7220   37.4290   10.0710 N.am  147  LEU147     -0.1980
    130  CA       -20.5960   36.2940    9.7460 C.3   147  LEU147      0.1596
    131  C        -21.4430   36.5480    8.5040 C.2   147  LEU147      0.2287
    132  O        -21.5180   35.6800    7.6200 O.2   147  LEU147     -0.2864
    133  CB       -21.4730   35.8880   10.9540 C.3   147  LEU147      0.0297
    134  CG       -20.7440   35.2040   12.1400 C.3   147  LEU147      0.0022
    135  CD1      -21.6650   35.0890   13.3800 C.3   147  LEU147      0.0001
    136  CD2      -20.1170   33.8370   11.7360 C.3   147  LEU147      0.0001
    137  N        -19.1780   36.5960    5.4210 N.3   150  MET150     -0.1230
    138  CA       -18.8140   35.2170    5.0560 C.3   150  MET150      0.1702
    139  C        -19.9240   34.5190    4.2560 C.2   150  MET150      0.2592
    140  O        -19.6530   33.8200    3.2800 O.2   150  MET150     -0.2718
    141  CB       -18.4230   34.3880    6.2900 C.3   150  MET150      0.0401
    142  CG       -17.1130   34.7740    6.8740 C.3   150  MET150      0.0596
    143  SD       -15.7430   34.8620    5.6940 S.3   150  MET150     -0.1393
    144  CE       -15.5150   33.1230    5.3140 C.3   150  MET150      0.0692
    145  N        -21.1740   34.7480    4.6520 N.am  151  GLU151     -0.1979
    146  CA       -22.3370   34.1660    4.0120 C.3   151  GLU151      0.1602
    147  C        -22.5430   34.7900    2.6390 C.2   151  GLU151      0.2287
    148  O        -23.0580   34.1370    1.7180 O.2   151  GLU151     -0.2864
    149  CB       -23.5490   34.3690    4.9260 C.3   151  GLU151      0.0415
    150  CG       -24.7760   33.6060    4.4560 C.3   151  GLU151      0.1163
    151  CD       -25.9690   33.5720    5.3870 C.2   151  GLU151      0.3649
    152  OE1      -25.7820   33.6580    6.6250 O.co2 151  GLU151     -0.2457
    153  OE2      -27.0930   33.3790    4.8700 O.co2 151  GLU151     -0.2457
    154  N        -19.5240   33.9200   -1.2490 N.3   154  PRO154     -0.2116
    155  CA       -19.5890   33.1720   -2.5200 C.3   154  PRO154      0.1372
    156  C        -20.1380   34.0230   -3.6680 C.2   154  PRO154      0.2244
    157  O        -19.7370   33.8450   -4.7970 O.2   154  PRO154     -0.2868
    158  CB       -20.4830   31.9680   -2.1840 C.3   154  PRO154      0.0268
    159  CG       -20.4040   31.8320   -0.7060 C.3   154  PRO154      0.0207
    160  CD       -20.3370   33.2380   -0.2120 C.3   154  PRO154      0.0892
    161  N        -17.9440   32.0310   17.1750 N.3   189  GLU189     -0.1245
    162  CA       -18.6090   30.7250   17.1710 C.3   189  GLU189      0.1567
    163  C        -19.4250   30.4770   18.4490 C.2   189  GLU189      0.2260
    164  O        -20.0370   29.4160   18.5890 O.2   189  GLU189     -0.2867
    165  CB       -17.5620   29.5980   16.9830 C.3   189  GLU189      0.0388
    166  CG       -16.6450   29.7360   15.7710 C.3   189  GLU189      0.1160
    167  CD       -17.2530   30.0150   14.4030 C.2   189  GLU189      0.3649
    168  OE1      -18.4330   29.6670   14.1590 O.co2 189  GLU189     -0.2457
    169  OE2      -16.5250   30.5860   13.5610 O.co2 189  GLU189     -0.2457
@<TRIPOS>BOND
     1   157   156    2
     2   156   155    1
     3   155   158    1
     4   155   154    1
     5   158   159    1
     6    26    28   ar
     7    26    24   ar
     8   154   160    1
     9    28    27   ar
    10   159   160    1
    11    32    31    2
    12    24    23   ar
    13    31    30    1
    14    27    25   ar
    15    40    41    1
    16    23    25   ar
    17    23    22    1
    18    30    29    1
    19    30    33    1
    20    19    20    1
    21    19    22    1
    22    19    18    1
    23    20    21    2
    24    42    41    1
    25    42    43    2
    26   148   147    2
    27    41    44    1
    28    33    34    1
    29    52    53    1
    30    54    55    2
    31    54    53    1
    32   147   146    1
    33    44    45    1
    34    35    34   ar
    35    35    37   ar
    36    60    61    1
    37    34    36   ar
    38   140   139    2
    39    53    56    1
    40     4     3    2
    41    56    57    1
    42    37    39   ar
    43   146   145    1
    44   146   149    1
    45    59    57   am
    46    45    47   ar
    47    45    46   ar
    48    36    38   ar
    49     1     2    1
    50   139   145   am
    51   139   138    1
    52    47    49   ar
    53    61    64    1
    54    61    62    1
    55   150   149    1
    56   150   151    1
    57     3     2    1
    58    57    58    2
    59    64    65    1
    60    62    63    2
    61    39    38   ar
    62   153   151   ar
    63    12    11    2
    64    46    48   ar
    65   138   137    1
    66   138   141    1
    67     2     5    1
    68   144   143    1
    69   151   152   ar
    70    49    50   ar
    71     6     5    1
    72     6     8    1
    73     9    10    1
    74   143   142    1
    75    65    66   ar
    76    65    67   ar
    77    66    68   ar
    78    11    10    1
    79    48    50   ar
    80     5     7    1
    81   141   142    1
    82    50    51    1
    83    10    13    1
    84    67    69   ar
    85    68    69   ar
    86    13    14    1
    87   132   131    2
    88   100    99    2
    89   120   119    2
    90    14    15    1
    91    99    98    1
    92    99   101   am
    93   131   130    1
    94    98    95    1
    95    15    16    1
    96   125   123   ar
    97   125   127   ar
    98   119   118    1
    99   119   129   am
   100   128   127    1
   101    70    71    1
   102   123   122   ar
   103   127   126   ar
   104   130   129    1
   105   130   133    1
   106   118   117    1
   107   118   121    1
   108    97    96    2
   109    71    74    1
   110    71    72    1
   111   106   107    1
   112    95    96    1
   113    95    94    1
   114    96   102   am
   115   107   108    1
   116   107   110    1
   117   109   108    2
   118   122   121    1
   119   122   124   ar
   120   126   124   ar
   121    16    17    1
   122    73    72    2
   123   111   110    1
   124   111   112    1
   125    74    75    1
   126   102   103    1
   127    72    81   am
   128   133   134    1
   129   103   104    1
   130    94    92   am
   131   105   104    2
   132    75    76    1
   133   115   114    1
   134    81    82    1
   135   136   134    1
   136    76    77    1
   137   112   113    1
   138   134   135    1
   139    92    93    2
   140    92    91    1
   141    84    83    2
   142    82    83    1
   143    82    85    1
   144    77    78    2
   145   114   113    2
   146   114   116    1
   147    83    90   am
   148    90    91    1
   149   169   167   ar
   150    78    79    1
   151    78    80    1
   152    89    87   ar
   153    85    86    1
   154   168   167   ar
   155    88    87   ar
   156    87    86    1
   157   167   166    1
   158   166   165    1
   159   165   162    1
   160   162   161    1
   161   162   163    1
   162   163   164    2
