@<TRIPOS>MOLECULE
tmp/6ep1A00.pdb
 69 63 0 0 0
SMALL
GASTEIGER

@<TRIPOS>ATOM
      1  N         20.2360    7.6100   67.4460 N.3     6  LYS6       -0.1245
      2  CA        19.2660    6.5230   67.3760 C.3     6  LYS6        0.1561
      3  C         18.6140    6.3840   68.7380 C.2     6  LYS6        0.2260
      4  O         19.3080    6.3500   69.7580 O.2     6  LYS6       -0.2867
      5  CB        19.9250    5.1970   66.9960 C.3     6  LYS6        0.0271
      6  CG        18.9240    4.0520   66.8770 C.3     6  LYS6        0.0035
      7  CD        19.4190    2.9560   65.9650 C.3     6  LYS6        0.0206
      8  CE        18.2980    1.9770   65.6080 C.3     6  LYS6        0.1093
      9  NZ        18.5280    1.3620   64.2720 N.3     6  LYS6       -0.1314
     10  N         15.5860    4.2930   71.0390 N.3     8  LEU8       -0.1245
     11  CA        14.7510    3.1110   71.1790 C.3     8  LEU8        0.1561
     12  C         13.8730    3.2380   72.4180 C.2     8  LEU8        0.2260
     13  O         14.2490    3.8920   73.3960 O.2     8  LEU8       -0.2867
     14  CB        15.6240    1.8600   71.3310 C.3     8  LEU8        0.0270
     15  CG        16.5340    1.5290   70.1450 C.3     8  LEU8        0.0019
     16  CD1       17.3910    0.3000   70.4520 C.3     8  LEU8        0.0001
     17  CD2       15.7390    1.3210   68.8620 C.3     8  LEU8        0.0001
     18  N         27.8510    7.8480   66.5180 N.3    97  THR97      -0.1218
     19  CA        26.4630    7.4520   66.7010 C.3    97  THR97       0.1862
     20  C         26.1570    7.5160   68.1880 C.2    97  THR97       0.2287
     21  O         26.8400    6.8720   68.9930 O.2    97  THR97      -0.2866
     22  CB        26.2090    6.0500   66.1560 C.3    97  THR97       0.1770
     23  OG1       26.4510    6.0540   64.7450 O.3    97  THR97      -0.2211
     24  CG2       24.7590    5.6450   66.4030 C.3    97  THR97       0.0375
     25  N         23.3990    6.5220   70.7510 N.3    99  ALA99      -0.1231
     26  CA        22.2250    5.6860   70.9280 C.3    99  ALA99       0.1694
     27  C         21.6510    5.8920   72.3210 C.2    99  ALA99       0.2592
     28  O         22.3920    6.0320   73.2980 O.2    99  ALA99      -0.2718
     29  CB        22.5670    4.2110   70.7230 C.3    99  ALA99       0.0304
     30  N         20.3340    5.9390   72.4060 N.am  100  ALA100     -0.1966
     31  CA        19.6580    6.0810   73.6840 C.3   100  ALA100      0.1728
     32  C         18.5060    5.0940   73.7600 C.2   100  ALA100      0.2616
     33  O         17.7440    4.9350   72.8010 O.2   100  ALA100     -0.2715
     34  CB        19.1260    7.5020   73.8760 C.3   100  ALA100      0.0334
     35  N         18.3860    4.4360   74.9080 N.am  101  LEU101     -0.1977
     36  CA        17.2940    3.5150   75.1980 C.3   101  LEU101      0.1596
     37  C         16.4680    4.1190   76.3280 C.2   101  LEU101      0.2287
     38  O         17.0100    4.4250   77.4000 O.2   101  LEU101     -0.2864
     39  CB        17.8780    2.1760   75.6330 C.3   101  LEU101      0.0297
     40  CG        16.8660    1.1000   75.9960 C.3   101  LEU101      0.0022
     41  CD1       15.9750    0.7290   74.8150 C.3   101  LEU101      0.0001
     42  CD2       17.6050   -0.1170   76.5130 C.3   101  LEU101      0.0001
     43  N         19.4230    4.9600   79.1280 N.3   108  SER108     -0.1202
     44  CA        20.7900    4.5350   78.9460 C.3   108  SER108      0.2020
     45  C         21.2590    5.1220   77.6310 C.2   108  SER108      0.2619
     46  O         20.4800    5.2780   76.6910 O.2   108  SER108     -0.2717
     47  CB        20.8710    3.0110   78.9080 C.3   108  SER108      0.2103
     48  OG        20.3960    2.4530   80.1250 O.3   108  SER108     -0.2182
     49  N         22.5240    5.4870   77.5820 N.am  109  THR109     -0.1938
     50  CA        23.0680    6.0110   76.3520 C.3   109  THR109      0.2028
     51  C         24.4630    5.4680   76.1420 C.2   109  THR109      0.2642
     52  O         25.2290    5.2990   77.0950 O.2   109  THR109     -0.2714
     53  CB        23.0700    7.5410   76.3550 C.3   109  THR109      0.1808
     54  OG1       23.4760    8.0130   75.0730 O.3   109  THR109     -0.2208
     55  CG2       24.0000    8.1150   77.4310 C.3   109  THR109      0.0379
     56  N         24.7860    5.2110   74.8810 N.am  110  THR110     -0.1950
     57  CA        26.1150    4.7600   74.5110 C.3   110  THR110      0.1897
     58  C         26.5320    5.4840   73.2410 C.2   110  THR110      0.2313
     59  O         25.7080    6.0360   72.5120 O.2   110  THR110     -0.2863
     60  CB        26.2510    3.2200   74.3810 C.3   110  THR110      0.1794
     61  OG1       27.6440    2.8630   74.4010 O.3   110  THR110     -0.2208
     62  CG2       25.6330    2.7000   73.0920 C.3   110  THR110      0.0378
     63  N         28.9630    5.0300   69.7280 N.3   112  VAL112     -0.1245
     64  CA        29.7690    4.2480   68.8030 C.3   112  VAL112      0.1561
     65  C         30.5510    5.2390   67.9650 C.2   112  VAL112      0.2260
     66  O         29.9620    6.0570   67.2540 O.2   112  VAL112     -0.2867
     67  CB        28.9020    3.3250   67.9360 C.3   112  VAL112      0.0252
     68  CG1       29.7830    2.4770   67.0340 C.3   112  VAL112      0.0019
     69  CG2       28.0580    2.4420   68.8330 C.3   112  VAL112      0.0019
@<TRIPOS>BOND
     1     9     8    1
     2    23    22    1
     3     8     7    1
     4     7     6    1
     5    22    24    1
     6    22    19    1
     7    18    19    1
     8    19    20    1
     9     6     5    1
    10     5     2    1
    11    68    67    1
    12    66    65    2
    13     2     1    1
    14     2     3    1
    15    67    64    1
    16    67    69    1
    17    65    64    1
    18    20    21    2
    19     3     4    2
    20    64    63    1
    21    17    15    1
    22    15    16    1
    23    15    14    1
    24    29    26    1
    25    25    26    1
    26    26    27    1
    27    10    11    1
    28    11    14    1
    29    11    12    1
    30    27    30   am
    31    27    28    2
    32    30    31    1
    33    12    13    2
    34    59    58    2
    35    33    32    2
    36    62    60    1
    37    58    57    1
    38    31    32    1
    39    31    34    1
    40    32    35   am
    41    60    61    1
    42    60    57    1
    43    57    56    1
    44    41    40    1
    45    56    51   am
    46    35    36    1
    47    54    53    1
    48    36    39    1
    49    36    37    1
    50    39    40    1
    51    40    42    1
    52    51    50    1
    53    51    52    2
    54    37    38    2
    55    50    53    1
    56    50    49    1
    57    53    55    1
    58    46    45    2
    59    49    45   am
    60    45    44    1
    61    47    44    1
    62    47    48    1
    63    44    43    1
