@<TRIPOS>MOLECULE
tmp/6ep2K00.pdb
 204 198 0 0 0
SMALL
GASTEIGER

@<TRIPOS>ATOM
      1  N        -52.1180   71.3890  -34.4850 N.3    73  ILE73      -0.1245
      2  CA       -53.2130   72.0000  -33.7450 C.3    73  ILE73       0.1561
      3  C        -54.5240   71.7220  -34.4670 C.2    73  ILE73       0.2260
      4  O        -54.5540   71.3740  -35.6500 O.2    73  ILE73      -0.2867
      5  CB       -53.0260   73.5240  -33.5490 C.3    73  ILE73       0.0252
      6  CG1      -52.7920   74.2100  -34.8960 C.3    73  ILE73       0.0019
      7  CG2      -51.8930   73.8060  -32.5770 C.3    73  ILE73       0.0019
      8  CD1      -52.7040   75.7240  -34.8060 C.3    73  ILE73       0.0001
      9  N        -59.0650   72.7590  -34.2370 N.3    75  LYS75      -0.1231
     10  CA       -60.1910   73.4620  -33.6450 C.3    75  LYS75       0.1693
     11  C        -61.4460   72.7110  -34.0380 C.2    75  LYS75       0.2593
     12  O        -61.6050   72.3300  -35.2020 O.2    75  LYS75      -0.2718
     13  CB       -60.2680   74.9220  -34.1130 C.3    75  LYS75       0.0285
     14  CG       -59.1620   75.7900  -33.5520 C.3    75  LYS75       0.0035
     15  CD       -59.2410   77.2090  -34.0730 C.3    75  LYS75       0.0206
     16  CE       -58.0460   78.0180  -33.6040 C.3    75  LYS75       0.1093
     17  NZ       -58.0750   78.2380  -32.1310 N.3    75  LYS75      -0.1314
     18  N        -62.3370   72.5100  -33.0730 N.am   76  GLY76      -0.1942
     19  CA       -63.4510   71.6180  -33.3220 C.3    76  GLY76       0.2014
     20  C        -62.8850   70.2660  -33.6910 C.2    76  GLY76       0.2639
     21  O        -61.9950   69.7370  -33.0170 O.2    76  GLY76      -0.2714
     22  N        -63.3650   69.7040  -34.7940 N.am   77  ASN77      -0.1958
     23  CA       -62.8130   68.4590  -35.3050 C.3    77  ASN77       0.1819
     24  C        -61.9460   68.6470  -36.5380 C.2    77  ASN77       0.2621
     25  O        -61.6210   67.6610  -37.2060 O.2    77  ASN77      -0.2715
     26  CB       -63.9270   67.4530  -35.5910 C.3    77  ASN77       0.1195
     27  CG       -64.0250   66.3940  -34.5120 C.2    77  ASN77       0.2630
     28  OD1      -64.3940   66.6830  -33.3710 O.2    77  ASN77      -0.2716
     29  ND2      -63.6600   65.1620  -34.8570 N.am   77  ASN77      -0.0877
     30  N        -61.5410   69.8740  -36.8510 N.am   78  PHE78      -0.1974
     31  CA       -60.7260   70.1250  -38.0330 C.3    78  PHE78       0.1639
     32  C        -59.2620   70.1830  -37.6280 C.2    78  PHE78       0.2290
     33  O        -58.8760   71.0040  -36.7890 O.2    78  PHE78      -0.2864
     34  CB       -61.1190   71.4240  -38.7370 C.3    78  PHE78       0.0560
     35  CG       -60.3290   71.6800  -39.9830 C.ar   78  PHE78      -0.0200
     36  CD1      -60.5720   70.9460  -41.1360 C.ar   78  PHE78      -0.0042
     37  CD2      -59.3120   72.6260  -39.9920 C.ar   78  PHE78      -0.0042
     38  CE1      -59.8380   71.1700  -42.2910 C.ar   78  PHE78      -0.0003
     39  CE2      -58.5690   72.8540  -41.1370 C.ar   78  PHE78      -0.0003
     40  CZ       -58.8330   72.1230  -42.2920 C.ar   78  PHE78      -0.0000
     41  N        -55.6720   71.3020  -38.6070 N.3    80  PHE80      -0.1241
     42  CA       -55.0160   72.2090  -39.5310 C.3    80  PHE80       0.1605
     43  C        -53.8060   71.5180  -40.1610 C.2    80  PHE80       0.2264
     44  O        -53.4250   70.4100  -39.7780 O.2    80  PHE80      -0.2867
     45  CB       -54.6270   73.5010  -38.8170 C.3    80  PHE80       0.0534
     46  CG       -55.8120   74.2940  -38.3260 C.ar   80  PHE80      -0.0203
     47  CD1      -56.5760   75.0430  -39.2080 C.ar   80  PHE80      -0.0042
     48  CD2      -56.1590   74.2920  -36.9830 C.ar   80  PHE80      -0.0042
     49  CE1      -57.6650   75.7710  -38.7650 C.ar   80  PHE80      -0.0003
     50  CE2      -57.2450   75.0220  -36.5320 C.ar   80  PHE80      -0.0003
     51  CZ       -58.0010   75.7640  -37.4260 C.ar   80  PHE80      -0.0000
     52  N        -57.3550   83.2100  -48.8130 N.3   108  TYR108     -0.1241
     53  CA       -57.5880   83.3900  -47.3810 C.3   108  TYR108      0.1605
     54  C        -57.9730   82.0770  -46.7100 C.2   108  TYR108      0.2264
     55  O        -57.4950   81.7630  -45.6120 O.2   108  TYR108     -0.2867
     56  CB       -58.6770   84.4430  -47.1720 C.3   108  TYR108      0.0534
     57  CG       -59.1310   84.6260  -45.7420 C.ar  108  TYR108     -0.0201
     58  CD1      -58.2500   85.0520  -44.7600 C.ar  108  TYR108     -0.0009
     59  CD2      -60.4520   84.4000  -45.3820 C.ar  108  TYR108     -0.0009
     60  CE1      -58.6660   85.2310  -43.4520 C.ar  108  TYR108      0.0417
     61  CE2      -60.8780   84.5730  -44.0790 C.ar  108  TYR108      0.0417
     62  CZ       -59.9810   84.9880  -43.1160 C.ar  108  TYR108      0.1957
     63  OH       -60.4030   85.1610  -41.8150 O.3   108  TYR108     -0.2866
     64  N        -55.9210   80.0820  -43.8170 N.3   112  ASN112     -0.1240
     65  CA       -56.5020   79.6550  -42.5480 C.3   112  ASN112      0.1653
     66  C        -56.2920   78.1620  -42.3170 C.2   112  ASN112      0.2266
     67  O        -56.0470   77.7370  -41.1830 O.2   112  ASN112     -0.2867
     68  CB       -57.9910   79.9870  -42.4920 C.3   112  ASN112      0.1155
     69  CG       -58.6480   79.4580  -41.2300 C.2   112  ASN112      0.2627
     70  OD1      -58.3650   79.9290  -40.1300 O.2   112  ASN112     -0.2716
     71  ND2      -59.5130   78.4620  -41.3810 N.am  112  ASN112     -0.0877
     72  N        -52.8120   77.7140  -41.1060 N.3   115  HIS115     -0.1241
     73  CA       -52.7990   78.1220  -39.7050 C.3   115  HIS115      0.1621
     74  C        -51.3710   78.1500  -39.1550 C.2   115  HIS115      0.2264
     75  O        -51.0510   77.4270  -38.2070 O.2   115  HIS115     -0.2867
     76  CB       -53.6820   77.2090  -38.8650 C.3   115  HIS115      0.0745
     77  CG       -54.7340   77.9330  -38.0860 C.ar  115  HIS115      0.0817
     78  ND1      -55.7830   78.5940  -38.6890 N.ar  115  HIS115     -0.2268
     79  CD2      -54.8980   78.1030  -36.7530 C.ar  115  HIS115      0.1154
     80  CE1      -56.5480   79.1390  -37.7600 C.ar  115  HIS115      0.1986
     81  NE2      -56.0320   78.8580  -36.5770 N.ar  115  HIS115     -0.2212
     82  N        -48.9490   79.2730  -33.7240 N.3   118  ARG118     -0.1231
     83  CA       -49.5940   78.5810  -32.6140 C.3   118  ARG118      0.1694
     84  C        -50.8450   79.3230  -32.1570 C.2   118  ARG118      0.2592
     85  O        -51.8350   78.6980  -31.7610 O.2   118  ARG118     -0.2718
     86  CB       -48.6100   78.4060  -31.4620 C.3   118  ARG118      0.0321
     87  CG       -49.2160   77.7380  -30.2550 C.3   118  ARG118      0.0489
     88  CD       -48.1360   77.2590  -29.3230 C.3   118  ARG118      0.2205
     89  NE       -48.6880   76.6270  -28.1330 N.pl3 118  ARG118     -0.0865
     90  CZ       -47.9450   76.1410  -27.1480 C.cat 118  ARG118      0.5346
     91  NH1      -46.6240   76.2250  -27.2200 N.pl3 118  ARG118      0.1354
     92  NH2      -48.5200   75.5800  -26.0910 N.pl3 118  ARG118      0.1354
     93  N        -50.8170   80.6550  -32.2060 N.am  119  GLU119     -0.1966
     94  CA       -51.9470   81.4790  -31.7980 C.3   119  GLU119      0.1733
     95  C        -51.8540   82.8010  -32.5520 C.2   119  GLU119      0.2617
     96  O        -50.7990   83.1570  -33.0840 O.2   119  GLU119     -0.2715
     97  CB       -51.9640   81.7060  -30.2750 C.3   119  GLU119      0.0429
     98  CG       -53.2940   82.2060  -29.7240 C.3   119  GLU119      0.1163
     99  CD       -53.3870   82.1070  -28.2090 C.2   119  GLU119      0.3649
    100  OE1      -52.4680   81.5330  -27.5840 O.co2 119  GLU119     -0.2457
    101  OE2      -54.3890   82.5950  -27.6400 O.co2 119  GLU119     -0.2457
    102  N        -52.9760   83.5190  -32.6140 N.am  120  GLY120     -0.1940
    103  CA       -53.0130   84.7840  -33.3250 C.3   120  GLY120      0.2014
    104  C        -53.2590   84.6820  -34.8130 C.2   120  GLY120      0.2639
    105  O        -53.0880   85.6820  -35.5230 O.2   120  GLY120     -0.2714
    106  N        -53.6480   83.5010  -35.3090 N.am  121  ASN121     -0.1958
    107  CA       -53.8750   83.3150  -36.7410 C.3   121  ASN121      0.1819
    108  C        -55.0600   84.1320  -37.2470 C.2   121  ASN121      0.2622
    109  O        -54.9700   84.7650  -38.3050 O.2   121  ASN121     -0.2715
    110  CB       -54.0780   81.8310  -37.0340 C.3   121  ASN121      0.1195
    111  CG       -52.8510   81.0090  -36.7080 C.2   121  ASN121      0.2630
    112  OD1      -51.9330   80.8980  -37.5230 O.2   121  ASN121     -0.2716
    113  ND2      -52.8090   80.4580  -35.4940 N.am  121  ASN121     -0.0877
    114  N        -56.1730   84.1350  -36.5100 N.am  122  GLY122     -0.1940
    115  CA       -57.3640   84.8260  -36.9830 C.3   122  GLY122      0.2014
    116  C        -57.1400   86.3130  -37.1920 C.2   122  GLY122      0.2638
    117  O        -57.3980   86.8480  -38.2740 O.2   122  GLY122     -0.2714
    118  N        -56.6250   86.9930  -36.1620 N.am  123  ARG123     -0.1977
    119  CA       -56.4730   88.4460  -36.2040 C.3   123  ARG123      0.1597
    120  C        -55.4180   88.8760  -37.2260 C.2   123  ARG123      0.2287
    121  O        -55.6640   89.7590  -38.0720 O.2   123  ARG123     -0.2864
    122  CB       -56.1120   88.9440  -34.8030 C.3   123  ARG123      0.0334
    123  CG       -57.2340   88.7700  -33.7850 C.3   123  ARG123      0.0492
    124  CD       -56.7410   88.8510  -32.3420 C.3   123  ARG123      0.2205
    125  NE       -56.0120   87.6540  -31.9210 N.pl3 123  ARG123     -0.0865
    126  CZ       -55.2790   87.5750  -30.8130 C.cat 123  ARG123      0.5346
    127  NH1      -55.1610   88.6260  -30.0080 N.pl3 123  ARG123      0.1354
    128  NH2      -54.6530   86.4460  -30.5080 N.pl3 123  ARG123      0.1354
    129  N        -56.6460   88.1820  -40.7670 N.3   126  ARG126     -0.1245
    130  CA       -57.6700   89.1130  -41.2320 C.3   126  ARG126      0.1563
    131  C        -57.0470   90.4400  -41.6620 C.2   126  ARG126      0.2260
    132  O        -57.4660   91.0330  -42.6700 O.2   126  ARG126     -0.2867
    133  CB       -58.7290   89.3160  -40.1440 C.3   126  ARG126      0.0307
    134  CG       -59.7790   88.1910  -40.0810 C.3   126  ARG126      0.0489
    135  CD       -60.9030   88.4950  -39.0930 C.3   126  ARG126      0.2205
    136  NE       -60.4750   88.4310  -37.6960 N.pl3 126  ARG126     -0.0865
    137  CZ       -60.3830   87.3040  -36.9940 C.cat 126  ARG126      0.5346
    138  NH1      -60.6840   86.1380  -37.5550 N.pl3 126  ARG126      0.1354
    139  NH2      -59.9860   87.3400  -35.7310 N.pl3 126  ARG126      0.1354
    140  N        -69.5740   84.6210  -38.9800 N.3   151  TYR151     -0.1227
    141  CA       -68.1830   84.5150  -39.4120 C.3   151  TYR151      0.1736
    142  C        -67.5640   83.1900  -38.9760 C.2   151  TYR151      0.2595
    143  O        -66.9260   82.4950  -39.7780 O.2   151  TYR151     -0.2718
    144  CB       -67.3530   85.6820  -38.8730 C.3   151  TYR151      0.0548
    145  CG       -65.8700   85.4760  -39.1030 C.ar  151  TYR151     -0.0200
    146  CD1      -65.3040   85.7220  -40.3480 C.ar  151  TYR151     -0.0009
    147  CD2      -65.0410   85.0110  -38.0830 C.ar  151  TYR151     -0.0009
    148  CE1      -63.9540   85.5200  -40.5710 C.ar  151  TYR151      0.0417
    149  CE2      -63.6870   84.8010  -38.2960 C.ar  151  TYR151      0.0417
    150  CZ       -63.1480   85.0600  -39.5430 C.ar  151  TYR151      0.1957
    151  OH       -61.8010   84.8610  -39.7700 O.3   151  TYR151     -0.2866
    152  N        -67.7300   82.8330  -37.7000 N.am  152  LEU152     -0.1980
    153  CA       -67.0920   81.6190  -37.1950 C.3   152  LEU152      0.1596
    154  C        -67.6480   80.3780  -37.8830 C.2   152  LEU152      0.2287
    155  O        -66.8880   79.4710  -38.2440 O.2   152  LEU152     -0.2864
    156  CB       -67.2490   81.5270  -35.6750 C.3   152  LEU152      0.0297
    157  CG       -66.5060   82.6010  -34.8650 C.3   152  LEU152      0.0022
    158  CD1      -66.8440   82.4950  -33.3920 C.3   152  LEU152      0.0001
    159  CD2      -64.9940   82.5150  -35.0800 C.3   152  LEU152      0.0001
    160  N        -66.1950   80.1620  -41.3960 N.3   155  MET155     -0.1230
    161  CA       -64.8120   79.6890  -41.4010 C.3   155  MET155      0.1702
    162  C        -64.7380   78.1960  -41.1000 C.2   155  MET155      0.2592
    163  O        -63.9410   77.4740  -41.7140 O.2   155  MET155     -0.2718
    164  CB       -63.9660   80.4860  -40.4050 C.3   155  MET155      0.0401
    165  CG       -63.7920   81.9550  -40.7720 C.3   155  MET155      0.0596
    166  SD       -63.1180   82.2320  -42.4320 S.3   155  MET155     -0.1393
    167  CE       -61.4940   81.4780  -42.2900 C.3   155  MET155      0.0692
    168  N        -65.5730   77.7080  -40.1760 N.am  156  GLU156     -0.1979
    169  CA       -65.6410   76.2680  -39.9310 C.3   156  GLU156      0.1602
    170  C        -66.0170   75.5140  -41.2020 C.2   156  GLU156      0.2287
    171  O        -65.5140   74.4150  -41.4590 O.2   156  GLU156     -0.2864
    172  CB       -66.6510   75.9730  -38.8200 C.3   156  GLU156      0.0415
    173  CG       -66.2460   76.4690  -37.4330 C.3   156  GLU156      0.1163
    174  CD       -67.4140   76.4940  -36.4510 C.2   156  GLU156      0.3649
    175  OE1      -68.5770   76.3740  -36.9010 O.co2 156  GLU156     -0.2457
    176  OE2      -67.1740   76.6330  -35.2310 O.co2 156  GLU156     -0.2457
    177  N        -63.0550   75.0240  -45.2060 N.3   159  PRO159     -0.2116
    178  CA       -62.2140   73.9900  -45.8320 C.3   159  PRO159      0.1372
    179  C        -62.9710   73.0750  -46.7820 C.2   159  PRO159      0.2244
    180  O        -62.3440   72.4660  -47.6590 O.2   159  PRO159     -0.2868
    181  CB       -61.6470   73.2180  -44.6350 C.3   159  PRO159      0.0268
    182  CG       -61.7270   74.1770  -43.5010 C.3   159  PRO159      0.0207
    183  CD       -62.9740   74.9550  -43.7340 C.3   159  PRO159      0.0892
    184  N        -62.6040   86.6930  -31.3960 N.3   194  GLU194     -0.1245
    185  CA       -61.7810   85.7420  -30.6660 C.3   194  GLU194      0.1567
    186  C        -61.9550   85.8320  -29.1530 C.2   194  GLU194      0.2260
    187  O        -61.2270   85.1570  -28.4150 O.2   194  GLU194     -0.2867
    188  CB       -60.3140   85.9420  -31.0500 C.3   194  GLU194      0.0388
    189  CG       -60.1010   86.0480  -32.5640 C.3   194  GLU194      0.1160
    190  CD       -60.4230   84.7550  -33.3150 C.2   194  GLU194      0.3649
    191  OE1      -60.4950   84.7920  -34.5620 O.co2 194  GLU194     -0.2457
    192  OE2      -60.6200   83.7050  -32.6680 O.co2 194  GLU194     -0.2457
    193  N        -61.9460   88.8460  -27.1640 N.3   196  TYR196     -0.1241
    194  CA       -61.3070   89.9820  -26.5080 C.3   196  TYR196      0.1605
    195  C        -62.2390   91.1820  -26.6320 C.2   196  TYR196      0.2264
    196  O        -62.5040   91.6490  -27.7450 O.2   196  TYR196     -0.2867
    197  CB       -59.9520   90.3120  -27.1400 C.3   196  TYR196      0.0534
    198  CG       -58.9470   89.1770  -27.2190 C.ar  196  TYR196     -0.0201
    199  CD1      -58.9480   88.2960  -28.2980 C.ar  196  TYR196     -0.0009
    200  CD2      -57.9840   89.0020  -26.2330 C.ar  196  TYR196     -0.0009
    201  CE1      -58.0220   87.2700  -28.3860 C.ar  196  TYR196      0.0417
    202  CE2      -57.0570   87.9760  -26.3110 C.ar  196  TYR196      0.0417
    203  CZ       -57.0810   87.1150  -27.3890 C.ar  196  TYR196      0.1957
    204  OH       -56.1610   86.0950  -27.4660 O.3   196  TYR196     -0.2866
@<TRIPOS>BOND
     1    52    53    1
     2   180   179    2
     3    53    56    1
     4    53    54    1
     5    56    57    1
     6   179   178    1
     7    54    55    2
     8   178   177    1
     9   178   181    1
    10    57    59   ar
    11    57    58   ar
    12    59    61   ar
    13   177   183    1
    14    58    60   ar
    15   181   182    1
    16    61    62   ar
    17    64    65    1
    18   183   182    1
    19    60    62   ar
    20    62    63    1
    21   132   131    2
    22    65    68    1
    23    65    66    1
    24    68    69    1
    25   166   167    1
    26   166   165    1
    27    66    67    2
    28    40    38   ar
    29    40    39   ar
    30    38    36   ar
    31   163   162    2
    32   131   130    1
    33   171   170    2
    34   161   160    1
    35   161   162    1
    36   161   164    1
    37    71    69   am
    38   130   129    1
    39   130   133    1
    40    69    70    2
    41   170   169    1
    42    39    37   ar
    43    36    35   ar
    44    72    73    1
    45   162   168   am
    46   165   164    1
    47   148   146   ar
    48   148   150   ar
    49   146   145   ar
    50   168   169    1
    51    43    44    2
    52    43    42    1
    53   133   134    1
    54   134   135    1
    55    37    35   ar
    56    35    34    1
    57   169   172    1
    58   143   142    2
    59   151   150    1
    60    73    74    1
    61    73    76    1
    62   150   149   ar
    63    42    45    1
    64    42    41    1
    65   141   140    1
    66   141   142    1
    67   141   144    1
    68    47    49   ar
    69    47    46   ar
    70    74    75    2
    71   145   144    1
    72   145   147   ar
    73   135   136    1
    74   142   152   am
    75    76    77    1
    76   172   173    1
    77    45    46    1
    78    49    51   ar
    79    34    31    1
    80    78    77   ar
    81    78    80   ar
    82    46    48   ar
    83   109   108    2
    84   149   147   ar
    85   117   116    2
    86   155   154    2
    87    77    79   ar
    88   121   120    2
    89    31    32    1
    90    31    30    1
    91   154   153    1
    92    80    81   ar
    93   152   153    1
    94   136   137    2
    95    32    33    2
    96   138   137    1
    97   112   111    2
    98   173   174    1
    99    51    50   ar
   100   108   107    1
   101   108   114   am
   102   120   119    1
   103    25    24    2
   104   153   156    1
   105   116   115    1
   106   116   118   am
   107   110   107    1
   108   110   111    1
   109   137   139    1
   110    48    50   ar
   111   115   114    1
   112   175   174   ar
   113    30    24   am
   114    79    81   ar
   115   107   106    1
   116   111   113   am
   117    24    23    1
   118   174   176   ar
   119   119   118    1
   120   119   122    1
   121   156   157    1
   122     4     3    2
   123    26    23    1
   124    26    27    1
   125   105   104    2
   126   106   104   am
   127    23    22    1
   128    12    11    2
   129   159   157    1
   130     6     8    1
   131     6     5    1
   132   157   158    1
   133    29    27   am
   134   104   103    1
   135   122   123    1
   136    22    20   am
   137   191   190   ar
   138    27    28    2
   139     1     2    1
   140     3     2    1
   141     9    10    1
   142    13    10    1
   143    13    14    1
   144    15    16    1
   145    15    14    1
   146    11    10    1
   147    11    18   am
   148   123   124    1
   149     2     5    1
   150    82    83    1
   151    20    19    1
   152    20    21    2
   153    16    17    1
   154     5     7    1
   155   103   102    1
   156    19    18    1
   157   190   192   ar
   158   190   189    1
   159    96    95    2
   160   102    95   am
   161    83    84    1
   162    83    86    1
   163   189   188    1
   164    95    94    1
   165   124   125    1
   166    93    84   am
   167    93    94    1
   168    84    85    2
   169   125   126    2
   170    94    97    1
   171    86    87    1
   172   184   185    1
   173   188   185    1
   174   126   128    1
   175   126   127    1
   176   185   186    1
   177    97    98    1
   178    87    88    1
   179    98    99    1
   180    88    89    1
   181   186   187    2
   182   201   199   ar
   183   201   203   ar
   184   199   198   ar
   185    99   101   ar
   186    99   100   ar
   187    89    90    2
   188   196   195    2
   189   204   203    1
   190   203   202   ar
   191    91    90    1
   192   198   197    1
   193   198   200   ar
   194   193   194    1
   195    90    92    1
   196   197   194    1
   197   195   194    1
   198   202   200   ar
