@<TRIPOS>MOLECULE
tmp/6ep4A00.pdb
 177 173 0 0 0
SMALL
GASTEIGER

@<TRIPOS>ATOM
      1  N        -22.0400  -47.4230  -30.0160 N.3    68  ASP68      -0.1239
      2  CA       -22.3050  -47.8730  -28.6490 C.3    68  ASP68       0.1674
      3  C        -23.4360  -48.8960  -28.6940 C.2    68  ASP68       0.2266
      4  O        -24.6100  -48.5380  -28.8140 O.2    68  ASP68      -0.2867
      5  CB       -22.6650  -46.6910  -27.7540 C.3    68  ASP68       0.1410
      6  CG       -22.7870  -47.0770  -26.2810 C.2    68  ASP68       0.3668
      7  OD1      -22.8710  -46.1610  -25.4320 O.co2  68  ASP68      -0.2456
      8  OD2      -22.7920  -48.2890  -25.9670 O.co2  68  ASP68      -0.2456
      9  N        -28.2110  -44.2060  -24.2110 N.3    77  SER77      -0.1217
     10  CA       -26.9950  -44.4320  -24.9820 C.3    77  SER77       0.1889
     11  C        -27.1920  -44.2080  -26.4730 C.2    77  SER77       0.2288
     12  O        -26.3160  -43.6340  -27.1260 O.2    77  SER77      -0.2866
     13  CB       -26.4730  -45.8530  -24.7480 C.3    77  SER77       0.2089
     14  OG       -27.4560  -46.8130  -25.0920 O.3    77  SER77      -0.2183
     15  N        -26.7830  -40.8310  -28.5290 N.3    80  TRP80      -0.1241
     16  CA       -25.4590  -40.3610  -28.9090 C.3    80  TRP80       0.1605
     17  C        -24.9150  -41.0530  -30.1510 C.2    80  TRP80       0.2264
     18  O        -23.9180  -40.5880  -30.7120 O.2    80  TRP80      -0.2867
     19  CB       -24.4780  -40.5470  -27.7440 C.3    80  TRP80       0.0550
     20  CG       -24.9470  -39.8930  -26.4840 C.ar   80  TRP80       0.0003
     21  CD1      -25.4090  -40.5140  -25.3540 C.ar   80  TRP80       0.0946
     22  CD2      -25.0190  -38.4850  -26.2260 C.ar   80  TRP80       0.0152
     23  NE1      -25.7570  -39.5760  -24.4090 N.ar   80  TRP80      -0.2442
     24  CE2      -25.5280  -38.3240  -24.9200 C.ar   80  TRP80       0.0810
     25  CE3      -24.6980  -37.3440  -26.9720 C.ar   80  TRP80       0.0012
     26  CZ2      -25.7220  -37.0670  -24.3440 C.ar   80  TRP80       0.0191
     27  CZ3      -24.8930  -36.0980  -26.3990 C.ar   80  TRP80       0.0001
     28  CH2      -25.3990  -35.9700  -25.0960 C.ar   80  TRP80       0.0015
     29  N        -17.9760  -33.8100  -29.1470 N.3   113  GLY113     -0.1210
     30  CA       -17.0530  -34.7300  -28.5280 C.3   113  GLY113      0.1956
     31  C        -17.4400  -36.1860  -28.7430 C.2   113  GLY113      0.2612
     32  O        -18.3880  -36.5190  -29.4520 O.2   113  GLY113     -0.2717
     33  N        -16.6690  -37.0590  -28.0960 N.am  114  GLY114     -0.1956
     34  CA       -16.8300  -38.4940  -28.2350 C.3   114  GLY114      0.1869
     35  C        -15.5180  -39.2520  -28.1670 C.2   114  GLY114      0.2309
     36  O        -15.3360  -40.2570  -28.8630 O.2   114  GLY114     -0.2863
     37  N        -15.9460  -41.2090  -31.7380 N.3   118  THR118     -0.1218
     38  CA       -17.3340  -41.1810  -32.1780 C.3   118  THR118      0.1862
     39  C        -17.8220  -39.7390  -32.2300 C.2   118  THR118      0.2287
     40  O        -17.1180  -38.8000  -31.8380 O.2   118  THR118     -0.2866
     41  CB       -18.2420  -42.0000  -31.2490 C.3   118  THR118      0.1770
     42  OG1      -18.3140  -41.3570  -29.9690 O.3   118  THR118     -0.2211
     43  CG2      -17.7150  -43.4210  -31.0760 C.3   118  THR118      0.0375
     44  N        -26.7020  -34.6240  -34.4800 N.3   123  LEU123     -0.1245
     45  CA       -27.5000  -35.1180  -33.3670 C.3   123  LEU123      0.1561
     46  C        -28.5660  -34.1080  -32.9570 C.2   123  LEU123      0.2260
     47  O        -28.4270  -32.8970  -33.1590 O.2   123  LEU123     -0.2867
     48  CB       -26.6160  -35.4560  -32.1640 C.3   123  LEU123      0.0270
     49  CG       -25.5930  -36.5810  -32.3380 C.3   123  LEU123      0.0019
     50  CD1      -24.7910  -36.7940  -31.0580 C.3   123  LEU123      0.0001
     51  CD2      -26.2770  -37.8760  -32.7650 C.3   123  LEU123      0.0001
     52  N        -27.6880  -31.1570  -30.7030 N.3   126  TYR126     -0.1241
     53  CA       -26.8100  -30.1470  -31.2820 C.3   126  TYR126      0.1605
     54  C        -27.5400  -29.2350  -32.2640 C.2   126  TYR126      0.2264
     55  O        -26.8890  -28.5130  -33.0260 O.2   126  TYR126     -0.2867
     56  CB       -25.6240  -30.8040  -31.9930 C.3   126  TYR126      0.0534
     57  CG       -24.7940  -31.7550  -31.1530 C.ar  126  TYR126     -0.0201
     58  CD1      -24.1250  -32.8170  -31.7510 C.ar  126  TYR126     -0.0009
     59  CD2      -24.6580  -31.5870  -29.7810 C.ar  126  TYR126     -0.0009
     60  CE1      -23.3590  -33.6930  -31.0130 C.ar  126  TYR126      0.0417
     61  CE2      -23.8840  -32.4620  -29.0290 C.ar  126  TYR126      0.0417
     62  CZ       -23.2420  -33.5160  -29.6560 C.ar  126  TYR126      0.1957
     63  OH       -22.4730  -34.3960  -28.9340 O.3   126  TYR126     -0.2866
     64  N        -17.8560  -29.8340  -26.3290 N.3   195  GLU195     -0.1231
     65  CA       -17.9970  -30.6370  -25.1260 C.3   195  GLU195      0.1699
     66  C        -17.1870  -31.9200  -25.2620 C.2   195  GLU195      0.2592
     67  O        -17.0720  -32.4830  -26.3540 O.2   195  GLU195     -0.2718
     68  CB       -19.4770  -30.9570  -24.8510 C.3   195  GLU195      0.0402
     69  CG       -19.7540  -31.6050  -23.5040 C.3   195  GLU195      0.1161
     70  CD       -19.8500  -33.1190  -23.5960 C.2   195  GLU195      0.3649
     71  OE1      -19.7560  -33.6480  -24.7280 O.co2 195  GLU195     -0.2457
     72  OE2      -20.0280  -33.7740  -22.5440 O.co2 195  GLU195     -0.2457
     73  N        -16.6110  -32.3610  -24.1390 N.am  196  SER196     -0.1952
     74  CA       -15.8330  -33.6030  -24.0450 C.3   196  SER196      0.1924
     75  C        -14.6510  -33.4930  -25.0060 C.2   196  SER196      0.2314
     76  O        -13.8840  -32.5230  -24.8990 O.2   196  SER196     -0.2863
     77  CB       -16.7690  -34.7940  -24.2640 C.3   196  SER196      0.2116
     78  OG       -16.0840  -36.0260  -24.0990 O.3   196  SER196     -0.2180
     79  N        -13.0880  -47.5910  -20.0110 N.3   283  PRO283     -0.2102
     80  CA       -14.2350  -46.9910  -20.7090 C.3   283  PRO283      0.1504
     81  C        -13.9570  -45.6050  -21.2750 C.2   283  PRO283      0.2575
     82  O        -14.7380  -45.1310  -22.1060 O.2   283  PRO283     -0.2718
     83  CB       -15.3180  -46.9490  -19.6230 C.3   283  PRO283      0.0282
     84  CG       -14.9740  -48.0960  -18.7270 C.3   283  PRO283      0.0208
     85  CD       -13.4690  -48.1300  -18.6920 C.3   283  PRO283      0.0893
     86  N        -12.8780  -44.9390  -20.8600 N.am  284  LEU284     -0.1980
     87  CA       -12.5240  -43.6260  -21.3880 C.3   284  LEU284      0.1596
     88  C        -11.3230  -43.6710  -22.3220 C.2   284  LEU284      0.2287
     89  O        -10.8010  -42.6130  -22.6860 O.2   284  LEU284     -0.2864
     90  CB       -12.2430  -42.6440  -20.2460 C.3   284  LEU284      0.0297
     91  CG       -13.3700  -42.3330  -19.2560 C.3   284  LEU284      0.0022
     92  CD1      -13.2290  -43.1760  -18.0000 C.3   284  LEU284      0.0001
     93  CD2      -13.3800  -40.8560  -18.9170 C.3   284  LEU284      0.0001
     94  N        -21.3970  -41.9780  -15.6140 N.3   326  ALA326     -0.1231
     95  CA       -21.8100  -42.6560  -16.8420 C.3   326  ALA326      0.1694
     96  C        -20.9130  -43.8450  -17.1600 C.2   326  ALA326      0.2592
     97  O        -21.3920  -44.8880  -17.6190 O.2   326  ALA326     -0.2718
     98  CB       -21.8070  -41.6740  -18.0140 C.3   326  ALA326      0.0304
     99  N        -19.6120  -43.7130  -16.9160 N.am  327  PHE327     -0.1976
    100  CA       -18.6620  -44.7250  -17.3540 C.3   327  PHE327      0.1639
    101  C        -18.6360  -45.9560  -16.4580 C.2   327  PHE327      0.2290
    102  O        -18.0630  -46.9760  -16.8580 O.2   327  PHE327     -0.2864
    103  CB       -17.2670  -44.1020  -17.4530 C.3   327  PHE327      0.0560
    104  CG       -17.2270  -42.8480  -18.2890 C.ar  327  PHE327     -0.0200
    105  CD1      -17.3660  -41.5980  -17.7050 C.ar  327  PHE327     -0.0042
    106  CD2      -17.0710  -42.9240  -19.6660 C.ar  327  PHE327     -0.0042
    107  CE1      -17.3330  -40.4440  -18.4770 C.ar  327  PHE327     -0.0003
    108  CE2      -17.0400  -41.7770  -20.4450 C.ar  327  PHE327     -0.0003
    109  CZ       -17.1700  -40.5360  -19.8490 C.ar  327  PHE327     -0.0000
    110  N        -19.9220  -49.3460  -17.7540 N.3   330  TYR330     -0.1241
    111  CA       -19.1970  -49.8950  -18.8920 C.3   330  TYR330      0.1605
    112  C        -17.9730  -50.7030  -18.4640 C.2   330  TYR330      0.2264
    113  O        -16.9570  -50.7110  -19.1640 O.2   330  TYR330     -0.2867
    114  CB       -18.7920  -48.7770  -19.8510 C.3   330  TYR330      0.0534
    115  CG       -19.9590  -48.1920  -20.6100 C.ar  330  TYR330     -0.0201
    116  CD1      -20.2690  -48.6310  -21.8930 C.ar  330  TYR330     -0.0009
    117  CD2      -20.7550  -47.2040  -20.0430 C.ar  330  TYR330     -0.0009
    118  CE1      -21.3400  -48.1040  -22.5900 C.ar  330  TYR330      0.0417
    119  CE2      -21.8270  -46.6730  -20.7280 C.ar  330  TYR330      0.0417
    120  CZ       -22.1140  -47.1240  -22.0030 C.ar  330  TYR330      0.1957
    121  OH       -23.1770  -46.5870  -22.6930 O.3   330  TYR330     -0.2866
    122  N        -31.2750  -42.1690  -17.7670 N.3   424  TRP424     -0.1241
    123  CA       -30.4170  -42.9600  -16.9030 C.3   424  TRP424      0.1605
    124  C        -30.9180  -42.9020  -15.4590 C.2   424  TRP424      0.2264
    125  O        -31.6890  -42.0090  -15.0960 O.2   424  TRP424     -0.2867
    126  CB       -28.9810  -42.4500  -16.9800 C.3   424  TRP424      0.0550
    127  CG       -28.3370  -42.4880  -18.3380 C.ar  424  TRP424      0.0003
    128  CD1      -28.3290  -41.4890  -19.2730 C.ar  424  TRP424      0.0946
    129  CD2      -27.5730  -43.5640  -18.8950 C.ar  424  TRP424      0.0152
    130  NE1      -27.6170  -41.8830  -20.3800 N.ar  424  TRP424     -0.2442
    131  CE2      -27.1440  -43.1530  -20.1750 C.ar  424  TRP424      0.0810
    132  CE3      -27.2170  -44.8390  -18.4400 C.ar  424  TRP424      0.0012
    133  CZ2      -26.3760  -43.9710  -21.0040 C.ar  424  TRP424      0.0191
    134  CZ3      -26.4550  -45.6520  -19.2670 C.ar  424  TRP424      0.0001
    135  CH2      -26.0450  -45.2140  -20.5350 C.ar  424  TRP424      0.0015
    136  N        -25.0860  -36.0490  -15.1630 N.3   431  MET431     -0.1230
    137  CA       -24.1540  -36.8700  -15.9150 C.3   431  MET431      0.1702
    138  C        -23.3680  -36.0620  -16.9400 C.2   431  MET431      0.2592
    139  O        -23.7760  -34.9830  -17.3840 O.2   431  MET431     -0.2718
    140  CB       -24.8870  -37.9960  -16.6390 C.3   431  MET431      0.0401
    141  CG       -25.4570  -39.0570  -15.7310 C.3   431  MET431      0.0596
    142  SD       -26.4400  -40.2240  -16.6810 S.3   431  MET431     -0.1393
    143  CE       -25.2370  -40.8000  -17.8780 C.3   431  MET431      0.0692
    144  N        -22.2160  -36.6210  -17.3070 N.am  432  HIS432     -0.1962
    145  CA       -21.4540  -36.1710  -18.4620 C.3   432  HIS432      0.1787
    146  C        -22.3630  -36.0340  -19.6770 C.2   432  HIS432      0.2621
    147  O        -23.1430  -36.9370  -19.9890 O.2   432  HIS432     -0.2715
    148  CB       -20.3370  -37.1820  -18.7390 C.3   432  HIS432      0.0785
    149  CG       -19.3690  -36.7590  -19.7980 C.ar  432  HIS432      0.0821
    150  ND1      -18.5690  -35.6440  -19.6720 N.ar  432  HIS432     -0.2267
    151  CD2      -19.0530  -37.3170  -20.9910 C.ar  432  HIS432      0.1154
    152  CE1      -17.8100  -35.5260  -20.7470 C.ar  432  HIS432      0.1986
    153  NE2      -18.0800  -36.5310  -21.5610 N.ar  432  HIS432     -0.2212
    154  N        -22.2850  -34.8820  -20.3410 N.am  433  GLY433     -0.1940
    155  CA       -22.9780  -34.6690  -21.5930 C.3   433  GLY433      0.2014
    156  C        -24.3810  -34.1070  -21.4910 C.2   433  GLY433      0.2638
    157  O        -24.9540  -33.7340  -22.5230 O.2   433  GLY433     -0.2714
    158  N        -24.9580  -34.0200  -20.2940 N.am  434  TYR434     -0.1973
    159  CA       -26.3560  -33.6360  -20.1700 C.3   434  TYR434      0.1639
    160  C        -26.5370  -32.1950  -19.7090 C.2   434  TYR434      0.2290
    161  O        -27.6000  -31.8400  -19.1900 O.2   434  TYR434     -0.2864
    162  CB       -27.0870  -34.6310  -19.2680 C.3   434  TYR434      0.0560
    163  CG       -27.2930  -35.9300  -20.0140 C.ar  434  TYR434     -0.0198
    164  CD1      -28.3620  -36.0900  -20.8870 C.ar  434  TYR434     -0.0009
    165  CD2      -26.3700  -36.9630  -19.9160 C.ar  434  TYR434     -0.0009
    166  CE1      -28.5380  -37.2680  -21.5960 C.ar  434  TYR434      0.0417
    167  CE2      -26.5320  -38.1380  -20.6230 C.ar  434  TYR434      0.0417
    168  CZ       -27.6180  -38.2870  -21.4590 C.ar  434  TYR434      0.1957
    169  OH       -27.7750  -39.4550  -22.1650 O.3   434  TYR434     -0.2866
    170  N        -25.5980  -30.2350  -22.3830 N.3   436  ILE436     -0.1245
    171  CA       -25.5990  -29.7920  -23.7780 C.3   436  ILE436      0.1561
    172  C        -26.9890  -29.3300  -24.2010 C.2   436  ILE436      0.2260
    173  O        -27.1470  -28.2840  -24.8440 O.2   436  ILE436     -0.2867
    174  CB       -25.0840  -30.9190  -24.6920 C.3   436  ILE436      0.0252
    175  CG1      -23.6370  -31.2710  -24.3470 C.3   436  ILE436      0.0019
    176  CG2      -25.2280  -30.5290  -26.1580 C.3   436  ILE436      0.0019
    177  CD1      -23.1170  -32.4900  -25.0740 C.3   436  ILE436      0.0001
@<TRIPOS>BOND
     1    44    45    1
     2    45    46    1
     3    45    48    1
     4    47    46    2
     5    55    54    2
     6    51    49    1
     7    49    48    1
     8    49    50    1
     9    54    53    1
    10    39    38    1
    11    39    40    2
    12    38    37    1
    13    38    41    1
    14    56    53    1
    15    56    57    1
    16    58    57   ar
    17    58    60   ar
    18    53    52    1
    19    41    43    1
    20    41    42    1
    21    57    59   ar
    22    60    62   ar
    23    18    17    2
    24    17    16    1
    25     1     2    1
    26    59    61   ar
    27    62    61   ar
    28    62    63    1
    29    32    31    2
    30    29    30    1
    31    16    15    1
    32    16    19    1
    33    36    35    2
    34     4     3    2
    35    31    30    1
    36    31    33   am
    37     3     2    1
    38     2     5    1
    39    34    35    1
    40    34    33    1
    41     5     6    1
    42    19    20    1
    43    12    11    2
    44    25    27   ar
    45    25    22   ar
    46    20    22   ar
    47    20    21   ar
    48    11    10    1
    49    27    28   ar
    50    67    66    2
    51    64    65    1
    52     6     8   ar
    53     6     7   ar
    54    22    24   ar
    55   176   174    1
    56    21    23   ar
    57    66    65    1
    58    66    73   am
    59    65    68    1
    60    28    26   ar
    61    14    13    1
    62   177   175    1
    63    75    76    2
    64    75    74    1
    65    10    13    1
    66    10     9    1
    67    24    23   ar
    68    24    26   ar
    69    68    69    1
    70   173   172    2
    71    71    70   ar
    72   174   175    1
    73   174   171    1
    74    77    78    1
    75    77    74    1
    76   172   171    1
    77    73    74    1
    78   171   170    1
    79    70    69    1
    80    70    72   ar
    81   121   120    1
    82    89    88    2
    83   118   120   ar
    84   118   116   ar
    85   157   156    2
    86    88    87    1
    87   169   168    1
    88    82    81    2
    89   120   119   ar
    90   116   115   ar
    91   166   168   ar
    92   166   164   ar
    93   155   156    1
    94   155   154    1
    95   153   151   ar
    96   153   152   ar
    97   156   158   am
    98   168   167   ar
    99    87    86    1
   100    87    90    1
   101    81    86   am
   102    81    80    1
   103   133   135   ar
   104   133   131   ar
   105   151   149   ar
   106   164   163   ar
   107   152   150   ar
   108   119   117   ar
   109    80    79    1
   110    80    83    1
   111   167   165   ar
   112   115   117   ar
   113   115   114    1
   114   135   134   ar
   115   108   109   ar
   116   108   106   ar
   117   130   131   ar
   118   130   128   ar
   119   154   146   am
   120   158   159    1
   121    90    91    1
   122   131   129   ar
   123   159   160    1
   124   159   162    1
   125   163   165   ar
   126   163   162    1
   127    79    85    1
   128   147   146    2
   129   114   111    1
   130   109   107   ar
   131   149   150   ar
   132   149   148    1
   133   160   161    2
   134   146   145    1
   135   106   104   ar
   136    83    84    1
   137   128   127   ar
   138   134   132   ar
   139    91    93    1
   140    91    92    1
   141   113   112    2
   142   129   132   ar
   143   129   127   ar
   144   111   112    1
   145   111   110    1
   146   148   145    1
   147    84    85    1
   148   107   105   ar
   149   145   144    1
   150   127   126    1
   151   104   105   ar
   152   104   103    1
   153    98    95    1
   154   143   142    1
   155   122   123    1
   156    97    96    2
   157   103   100    1
   158   139   138    2
   159   100    99    1
   160   100   101    1
   161   144   138   am
   162    96    99   am
   163    96    95    1
   164   126   123    1
   165   138   137    1
   166   123   124    1
   167   102   101    2
   168    95    94    1
   169   142   141    1
   170   140   137    1
   171   140   141    1
   172   137   136    1
   173   124   125    2
