@<TRIPOS>MOLECULE
tmp/6epaA00.pdb
 174 171 0 0 0
SMALL
GASTEIGER

@<TRIPOS>ATOM
      1  N        -11.1850    8.5750   15.4020 N.3    28  TRP28      -0.1241
      2  CA       -11.0610    7.4870   14.4390 C.3    28  TRP28       0.1605
      3  C        -11.6390    7.8690   13.0840 C.2    28  TRP28       0.2264
      4  O        -11.1590    7.3910   12.0500 O.2    28  TRP28      -0.2867
      5  CB       -11.7480    6.2270   14.9740 C.3    28  TRP28       0.0550
      6  CG       -10.8370    5.3560   15.7780 C.ar   28  TRP28       0.0003
      7  CD1      -10.8100    5.2230   17.1350 C.ar   28  TRP28       0.0946
      8  CD2       -9.8070    4.5030   15.2710 C.ar   28  TRP28       0.0152
      9  NE1       -9.8270    4.3390   17.5040 N.ar   28  TRP28      -0.2442
     10  CE2       -9.1980    3.8810   16.3770 C.ar   28  TRP28       0.0810
     11  CE3       -9.3410    4.2040   13.9890 C.ar   28  TRP28       0.0012
     12  CZ2       -8.1460    2.9790   16.2390 C.ar   28  TRP28       0.0191
     13  CZ3       -8.2990    3.3080   13.8540 C.ar   28  TRP28       0.0001
     14  CH2       -7.7140    2.7060   14.9710 C.ar   28  TRP28       0.0015
     15  N         -7.4610    7.7270    5.0320 N.3    35  ASP35      -0.1239
     16  CA        -7.2300    6.5430    4.2190 C.3    35  ASP35       0.1674
     17  C         -8.3600    6.2750    3.2360 C.2    35  ASP35       0.2266
     18  O         -8.1440    5.5680    2.2450 O.2    35  ASP35      -0.2867
     19  CB        -7.0510    5.3150    5.1170 C.3    35  ASP35       0.1410
     20  CG        -5.7590    5.3510    5.9100 C.2    35  ASP35       0.3668
     21  OD1       -4.7220    5.7580    5.3440 O.co2  35  ASP35      -0.2456
     22  OD2       -5.7820    4.9700    7.1000 O.co2  35  ASP35      -0.2456
     23  N         -9.4800   -2.9400    1.0370 N.3    46  PHE46      -0.1241
     24  CA        -9.2240   -3.7200    2.2450 C.3    46  PHE46       0.1605
     25  C         -8.0480   -4.6670    2.0430 C.2    46  PHE46       0.2264
     26  O         -7.1890   -4.8040    2.9220 O.2    46  PHE46      -0.2867
     27  CB       -10.4940   -4.4910    2.6100 C.3    46  PHE46       0.0534
     28  CG       -10.5610   -4.9460    4.0420 C.ar   46  PHE46      -0.0203
     29  CD1      -10.7850   -4.0390    5.0640 C.ar   46  PHE46      -0.0042
     30  CD2      -10.4470   -6.2870    4.3570 C.ar   46  PHE46      -0.0042
     31  CE1      -10.8670   -4.4620    6.3820 C.ar   46  PHE46      -0.0003
     32  CE2      -10.5280   -6.7150    5.6690 C.ar   46  PHE46      -0.0003
     33  CZ       -10.7400   -5.8000    6.6820 C.ar   46  PHE46      -0.0000
     34  N         -4.6500   -2.7720    2.1290 N.3    49  ILE49      -0.1231
     35  CA        -4.1590   -2.5020    3.4750 C.3    49  ILE49       0.1692
     36  C         -3.4600   -3.7320    4.0350 C.2    49  ILE49       0.2592
     37  O         -2.3840   -3.6350    4.6370 O.2    49  ILE49      -0.2718
     38  CB        -5.3210   -2.0390    4.3730 C.3    49  ILE49       0.0266
     39  CG1       -5.8690   -0.7060    3.8590 C.3    49  ILE49       0.0019
     40  CG2       -4.8740   -1.9020    5.8300 C.3    49  ILE49       0.0020
     41  CD1       -7.2010   -0.3090    4.4540 C.3    49  ILE49       0.0001
     42  N         -4.0470   -4.9120    3.8290 N.am   50  TYR50      -0.1976
     43  CA        -3.4180   -6.1360    4.3110 C.3    50  TYR50       0.1639
     44  C         -2.1020   -6.4180    3.5950 C.2    50  TYR50       0.2290
     45  O         -1.2270   -7.0880    4.1550 O.2    50  TYR50      -0.2864
     46  CB        -4.3750   -7.3160    4.1500 C.3    50  TYR50       0.0560
     47  CG        -5.2650   -7.5320    5.3480 C.ar   50  TYR50      -0.0198
     48  CD1       -6.4280   -6.7930    5.5240 C.ar   50  TYR50      -0.0009
     49  CD2       -4.9370   -8.4770    6.3110 C.ar   50  TYR50      -0.0009
     50  CE1       -7.2390   -6.9910    6.6280 C.ar   50  TYR50       0.0417
     51  CE2       -5.7400   -8.6830    7.4150 C.ar   50  TYR50       0.0417
     52  CZ        -6.8880   -7.9380    7.5700 C.ar   50  TYR50       0.1957
     53  OH        -7.6890   -8.1450    8.6690 O.3    50  TYR50      -0.2866
     54  N          0.9220   -4.7870    5.2260 N.3    53  PHE53      -0.1227
     55  CA         1.3290   -5.3550    6.5030 C.3    53  PHE53       0.1736
     56  C          1.9160   -6.7540    6.3930 C.2    53  PHE53       0.2595
     57  O          2.4890   -7.2430    7.3720 O.2    53  PHE53      -0.2718
     58  CB         0.1320   -5.3870    7.4650 C.3    53  PHE53       0.0547
     59  CG        -0.1910   -4.0530    8.0750 C.ar   53  PHE53      -0.0202
     60  CD1       -0.4030   -2.9430    7.2760 C.ar   53  PHE53      -0.0042
     61  CD2       -0.2870   -3.9110    9.4500 C.ar   53  PHE53      -0.0042
     62  CE1       -0.6990   -1.7150    7.8360 C.ar   53  PHE53      -0.0003
     63  CE2       -0.5840   -2.6860   10.0160 C.ar   53  PHE53      -0.0003
     64  CZ        -0.7900   -1.5870    9.2080 C.ar   53  PHE53      -0.0000
     65  N          1.7890   -7.4090    5.2410 N.am   54  PHE54      -0.1976
     66  CA         2.3620   -8.7380    5.0210 C.3    54  PHE54       0.1639
     67  C          2.9500   -8.7900    3.6170 C.2    54  PHE54       0.2290
     68  O          2.5240   -9.5870    2.7760 O.2    54  PHE54      -0.2864
     69  CB         1.3050   -9.8250    5.2130 C.3    54  PHE54       0.0560
     70  CG         0.5570   -9.7310    6.5140 C.ar   54  PHE54      -0.0200
     71  CD1       -0.5170   -8.8680    6.6510 C.ar   54  PHE54      -0.0042
     72  CD2        0.9170  -10.5180    7.5960 C.ar   54  PHE54      -0.0042
     73  CE1       -1.2090   -8.7820    7.8420 C.ar   54  PHE54      -0.0003
     74  CE2        0.2270  -10.4380    8.7900 C.ar   54  PHE54      -0.0003
     75  CZ        -0.8380   -9.5690    8.9130 C.ar   54  PHE54      -0.0000
     76  N         -7.2920  -14.1940    2.9770 N.3    62  PHE62      -0.1241
     77  CA        -7.6920  -13.9200    4.3530 C.3    62  PHE62       0.1605
     78  C         -8.4350  -12.5940    4.4530 C.2    62  PHE62       0.2264
     79  O         -9.4880  -12.5110    5.0970 O.2    62  PHE62      -0.2867
     80  CB        -6.4580  -13.9280    5.2580 C.3    62  PHE62       0.0534
     81  CG        -6.7720  -13.7790    6.7210 C.ar   62  PHE62      -0.0203
     82  CD1       -7.1640  -14.8710    7.4760 C.ar   62  PHE62      -0.0042
     83  CD2       -6.6630  -12.5470    7.3430 C.ar   62  PHE62      -0.0042
     84  CE1       -7.4480  -14.7350    8.8220 C.ar   62  PHE62      -0.0003
     85  CE2       -6.9470  -12.4030    8.6890 C.ar   62  PHE62      -0.0003
     86  CZ        -7.3390  -13.4980    9.4300 C.ar   62  PHE62      -0.0000
     87  N        -12.2290  -11.7500    6.0990 N.3    66  VAL66      -0.1245
     88  CA       -12.4560  -10.7540    7.1440 C.3    66  VAL66       0.1561
     89  C        -13.3960   -9.6630    6.6460 C.2    66  VAL66       0.2260
     90  O        -14.2620   -9.1790    7.3880 O.2    66  VAL66      -0.2867
     91  CB       -11.1110  -10.1700    7.6150 C.3    66  VAL66       0.0252
     92  CG1      -11.3250   -9.0820    8.6610 C.3    66  VAL66       0.0019
     93  CG2      -10.2120  -11.2770    8.1640 C.3    66  VAL66       0.0019
     94  N        -16.6970   -7.8280    8.5070 N.3    70  PHE70      -0.1241
     95  CA       -16.8280   -6.3820    8.6970 C.3    70  PHE70       0.1605
     96  C        -18.0990   -5.8550    8.0430 C.2    70  PHE70       0.2264
     97  O        -18.8440   -5.0690    8.6400 O.2    70  PHE70      -0.2867
     98  CB       -15.6140   -5.6640    8.1030 C.3    70  PHE70       0.0534
     99  CG       -14.4660   -5.4850    9.0570 C.ar   70  PHE70      -0.0203
    100  CD1      -13.6860   -6.5600    9.4430 C.ar   70  PHE70      -0.0042
    101  CD2      -14.1410   -4.2240    9.5320 C.ar   70  PHE70      -0.0042
    102  CE1      -12.6160   -6.3870   10.3110 C.ar   70  PHE70      -0.0003
    103  CE2      -13.0740   -4.0430   10.3950 C.ar   70  PHE70      -0.0003
    104  CZ       -12.3100   -5.1280   10.7850 C.ar   70  PHE70      -0.0000
    105  N        -16.8500   -0.3390   10.4220 N.3    83  PHE83      -0.1241
    106  CA       -15.4480   -0.3630   10.8210 C.3    83  PHE83       0.1605
    107  C        -15.3120   -0.2780   12.3370 C.2    83  PHE83       0.2264
    108  O        -14.5930   -1.0730   12.9530 O.2    83  PHE83      -0.2867
    109  CB       -14.7040    0.7870   10.1420 C.3    83  PHE83       0.0534
    110  CG       -13.2930    0.9680   10.6200 C.ar   83  PHE83      -0.0203
    111  CD1      -12.2860    0.1190   10.1910 C.ar   83  PHE83      -0.0042
    112  CD2      -12.9690    1.9980   11.4860 C.ar   83  PHE83      -0.0042
    113  CE1      -10.9870    0.2880   10.6290 C.ar   83  PHE83      -0.0003
    114  CE2      -11.6730    2.1730   11.9240 C.ar   83  PHE83      -0.0003
    115  CZ       -10.6810    1.3160   11.4960 C.ar   83  PHE83      -0.0000
    116  N        -13.9170   -3.0840   15.0670 N.3    87  LEU87      -0.1245
    117  CA       -12.7460   -2.7390   15.8670 C.3    87  LEU87       0.1561
    118  C        -13.0580   -2.8260   17.3570 C.2    87  LEU87       0.2260
    119  O        -12.2280   -3.2880   18.1490 O.2    87  LEU87      -0.2867
    120  CB       -12.2590   -1.3370   15.4990 C.3    87  LEU87       0.0270
    121  CG       -10.9670   -0.8390   16.1510 C.3    87  LEU87       0.0019
    122  CD1       -9.7820   -1.7310   15.8080 C.3    87  LEU87       0.0001
    123  CD2      -10.6920    0.5900   15.7200 C.3    87  LEU87       0.0001
    124  N        -13.0520   -6.6110   18.3060 N.3    90  THR90      -0.1218
    125  CA       -11.7760   -7.3160   18.2050 C.3    90  THR90       0.1862
    126  C        -10.6960   -6.7170   19.0980 C.2    90  THR90       0.2287
    127  O         -9.8000   -7.4480   19.5350 O.2    90  THR90      -0.2866
    128  CB       -11.2910   -7.3490   16.7520 C.3    90  THR90       0.1770
    129  OG1      -11.1450   -6.0180   16.2460 O.3    90  THR90      -0.2211
    130  CG2      -12.2740   -8.1230   15.8900 C.3    90  THR90       0.0375
    131  N        -17.2910  -13.4510   17.2270 N.3   101  TRP101     -0.1241
    132  CA       -16.7760  -12.8310   16.0120 C.3   101  TRP101      0.1605
    133  C        -15.9360  -13.8290   15.2230 C.2   101  TRP101      0.2264
    134  O        -16.0860  -13.9630   14.0030 O.2   101  TRP101     -0.2867
    135  CB       -15.9610  -11.5900   16.3750 C.3   101  TRP101      0.0550
    136  CG       -15.8200  -10.5890   15.2740 C.ar  101  TRP101      0.0003
    137  CD1      -16.6180   -9.5060   15.0440 C.ar  101  TRP101      0.0946
    138  CD2      -14.8080  -10.5620   14.2620 C.ar  101  TRP101      0.0152
    139  NE1      -16.1710   -8.8090   13.9490 N.ar  101  TRP101     -0.2442
    140  CE2      -15.0590   -9.4350   13.4510 C.ar  101  TRP101      0.0810
    141  CE3      -13.7170  -11.3800   13.9600 C.ar  101  TRP101      0.0012
    142  CZ2      -14.2610   -9.1110   12.3570 C.ar  101  TRP101      0.0191
    143  CZ3      -12.9270  -11.0570   12.8730 C.ar  101  TRP101      0.0001
    144  CH2      -13.2020   -9.9330   12.0860 C.ar  101  TRP101      0.0015
    145  N        -16.3480  -15.5620   11.3210 N.3   105  LEU105     -0.1245
    146  CA       -15.2920  -15.6710   10.3210 C.3   105  LEU105      0.1561
    147  C        -15.1720  -17.1020    9.8090 C.2   105  LEU105      0.2260
    148  O        -15.1040  -17.3340    8.5960 O.2   105  LEU105     -0.2867
    149  CB       -13.9630  -15.1920   10.9120 C.3   105  LEU105      0.0270
    150  CG       -12.7480  -15.1570    9.9780 C.3   105  LEU105      0.0019
    151  CD1      -12.9250  -14.0980    8.9060 C.3   105  LEU105      0.0001
    152  CD2      -11.4660  -14.9080   10.7600 C.3   105  LEU105      0.0001
    153  N         -6.0270  -15.9420   15.1280 N.3   180  LEU180     -0.1231
    154  CA        -6.5720  -14.6570   14.7100 C.3   180  LEU180      0.1693
    155  C         -6.2790  -13.5550   15.7220 C.2   180  LEU180      0.2593
    156  O         -6.8420  -12.4600   15.6140 O.2   180  LEU180     -0.2718
    157  CB        -8.0830  -14.7700   14.4980 C.3   180  LEU180      0.0284
    158  CG        -8.6030  -16.0810   13.8990 C.3   180  LEU180      0.0019
    159  CD1      -10.1130  -16.1620   14.0400 C.3   180  LEU180      0.0001
    160  CD2       -8.1950  -16.2040   12.4440 C.3   180  LEU180      0.0001
    161  N         -5.4110  -13.8180   16.6980 N.am  181  SER181     -0.1938
    162  CA        -5.1320  -12.8840   17.7880 C.3   181  SER181      0.2055
    163  C         -6.4270  -12.4120   18.4440 C.2   181  SER181      0.2642
    164  O         -6.7130  -11.2150   18.5380 O.2   181  SER181     -0.2714
    165  CB        -4.3000  -11.7020   17.2900 C.3   181  SER181      0.2130
    166  OG        -3.0410  -12.1490   16.8180 O.3   181  SER181     -0.2179
    167  N         -7.2210  -13.3850   18.9060 N.am  182  LEU182     -0.1977
    168  CA        -8.4810  -13.1110   19.5860 C.3   182  LEU182      0.1596
    169  C         -8.6810  -14.0300   20.7870 C.2   182  LEU182      0.2287
    170  O         -9.8160  -14.3970   21.1090 O.2   182  LEU182     -0.2864
    171  CB        -9.6650  -13.2560   18.6260 C.3   182  LEU182      0.0297
    172  CG        -9.7640  -12.2440   17.4820 C.3   182  LEU182      0.0022
    173  CD1      -10.9450  -12.5860   16.5870 C.3   182  LEU182      0.0001
    174  CD2       -9.8920  -10.8260   18.0180 C.3   182  LEU182      0.0001
@<TRIPOS>BOND
     1    23    24    1
     2    25    24    1
     3    25    26    2
     4    34    35    1
     5    24    27    1
     6    18    17    2
     7    27    28    1
     8    68    67    2
     9    76    77    1
    10    17    16    1
    11    35    36    1
    12    35    38    1
    13    44    45    2
    14    44    43    1
    15    67    66    1
    16    42    36   am
    17    42    43    1
    18    39    38    1
    19    39    41    1
    20    36    37    2
    21    28    30   ar
    22    28    29   ar
    23    46    43    1
    24    46    47    1
    25    16    15    1
    26    16    19    1
    27    77    78    1
    28    77    80    1
    29    30    32   ar
    30    38    40    1
    31    78    79    2
    32    66    69    1
    33    66    65    1
    34    29    31   ar
    35    19    20    1
    36    69    70    1
    37    54    55    1
    38    65    56   am
    39    80    81    1
    40    21    20   ar
    41    47    48   ar
    42    47    49   ar
    43    48    50   ar
    44    32    33   ar
    45    20    22   ar
    46    87    88    1
    47    49    51   ar
    48    31    33   ar
    49    56    55    1
    50    56    57    2
    51    55    58    1
    52    70    71   ar
    53    70    72   ar
    54    50    52   ar
    55    89    88    1
    56    89    90    2
    57    71    73   ar
    58    81    83   ar
    59    81    82   ar
    60    88    91    1
    61    60    62   ar
    62    60    59   ar
    63    83    85   ar
    64    51    52   ar
    65    58    59    1
    66    82    84   ar
    67    52    53    1
    68    72    74   ar
    69    91    93    1
    70    91    92    1
    71    62    64   ar
    72    73    75   ar
    73    96    97    2
    74    96    95    1
    75    59    61   ar
    76    98    95    1
    77    98    99    1
    78    94    95    1
    79   148   147    2
    80    85    86   ar
    81    74    75   ar
    82    84    86   ar
    83   151   150    1
    84    99   100   ar
    85    99   101   ar
    86    64    63   ar
    87   100   102   ar
    88    61    63   ar
    89   101   103   ar
    90   147   146    1
    91   150   152    1
    92   150   149    1
    93   109   110    1
    94   109   106    1
    95   111   110   ar
    96   111   113   ar
    97   102   104   ar
    98   146   149    1
    99   146   145    1
   100   103   104   ar
   101   105   106    1
   102   110   112   ar
   103   113   115   ar
   104   106   107    1
   105   112   114   ar
   106   115   114   ar
   107     4     3    2
   108   144   142   ar
   109   144   143   ar
   110   107   108    2
   111   142   140   ar
   112   160   158    1
   113   143   141   ar
   114     3     2    1
   115   140   139   ar
   116   140   138   ar
   117    13    11   ar
   118    13    14   ar
   119   158   159    1
   120   158   157    1
   121   139   137   ar
   122   141   138   ar
   123    11     8   ar
   124   134   133    2
   125   138   136   ar
   126     2     5    1
   127     2     1    1
   128   157   154    1
   129   154   153    1
   130   154   155    1
   131    14    12   ar
   132     5     6    1
   133   137   136   ar
   134   116   117    1
   135   133   132    1
   136     8     6   ar
   137     8    10   ar
   138   136   135    1
   139   120   117    1
   140   120   121    1
   141   156   155    2
   142   123   121    1
   143   155   161   am
   144     6     7   ar
   145   122   121    1
   146   117   118    1
   147   130   128    1
   148   132   135    1
   149   132   131    1
   150    12    10   ar
   151   129   128    1
   152    10     9   ar
   153   173   172    1
   154   161   162    1
   155   128   125    1
   156   166   165    1
   157     7     9   ar
   158   165   162    1
   159   118   119    2
   160   172   174    1
   161   172   171    1
   162   162   163    1
   163   125   124    1
   164   125   126    1
   165   163   164    2
   166   163   167   am
   167   171   168    1
   168   167   168    1
   169   126   127    2
   170   168   169    1
   171   169   170    2
