@<TRIPOS>MOLECULE
tmp/6epjA00.pdb
 141 136 0 0 0
SMALL
GASTEIGER

@<TRIPOS>ATOM
      1  N        -25.4300   44.0230    0.3100 N.3    29  ARG29      -0.1231
      2  CA       -25.5910   45.4610    0.4850 C.3    29  ARG29       0.1694
      3  C        -25.4170   45.8710    1.9430 C.2    29  ARG29       0.2592
      4  O        -24.8520   46.9320    2.2300 O.2    29  ARG29      -0.2718
      5  CB       -26.9570   45.9080   -0.0430 C.3    29  ARG29       0.0321
      6  CG       -27.1400   47.4180   -0.0020 C.3    29  ARG29       0.0489
      7  CD       -28.6070   47.8240   -0.0380 C.3    29  ARG29       0.2205
      8  NE       -29.4750   46.8230    0.5800 N.pl3  29  ARG29      -0.0865
      9  CZ       -29.9520   46.8980    1.8210 C.cat  29  ARG29       0.5346
     10  NH1      -30.7330   45.9330    2.2900 N.pl3  29  ARG29       0.1354
     11  NH2      -29.6400   47.9250    2.5980 N.pl3  29  ARG29       0.1354
     12  N        -25.8650   45.0320    2.8860 N.am   30  VAL30      -0.1966
     13  CA       -25.7830   45.4120    4.2960 C.3    30  VAL30       0.1727
     14  C        -24.3420   45.4720    4.7870 C.2    30  VAL30       0.2616
     15  O        -24.0750   46.0480    5.8460 O.2    30  VAL30      -0.2715
     16  CB       -26.5960   44.4510    5.1820 C.3    30  VAL30       0.0290
     17  CG1      -28.0820   44.6100    4.8850 C.3    30  VAL30       0.0023
     18  CG2      -26.1530   43.0040    4.9750 C.3    30  VAL30       0.0023
     19  N        -23.4020   44.9120    4.0340 N.am   31  PHE31      -0.1974
     20  CA       -22.0060   44.8840    4.4400 C.3    31  PHE31       0.1639
     21  C        -21.1700   45.9420    3.7360 C.2    31  PHE31       0.2290
     22  O        -19.9470   45.9500    3.9010 O.2    31  PHE31      -0.2864
     23  CB       -21.3980   43.5040    4.1630 C.3    31  PHE31       0.0560
     24  CG       -22.1720   42.3670    4.7610 C.ar   31  PHE31      -0.0200
     25  CD1      -22.4120   42.3120    6.1220 C.ar   31  PHE31      -0.0042
     26  CD2      -22.6560   41.3550    3.9500 C.ar   31  PHE31      -0.0042
     27  CE1      -23.1360   41.2630    6.6810 C.ar   31  PHE31      -0.0003
     28  CE2      -23.3810   40.2940    4.4870 C.ar   31  PHE31      -0.0003
     29  CZ       -23.6180   40.2440    5.8550 C.ar   31  PHE31      -0.0000
     30  N        -21.2370   49.4180    3.8710 N.3    33  LYS33      -0.1231
     31  CA       -20.9350   50.6640    4.5570 C.3    33  LYS33       0.1678
     32  C        -20.8140   50.4090    6.0490 C.2    33  LYS33       0.2434
     33  O        -21.3810   49.4450    6.5700 O.2    33  LYS33      -0.2733
     34  CB       -22.0340   51.7110    4.3050 C.3    33  LYS33       0.0284
     35  CG       -22.0740   52.2990    2.8850 C.3    33  LYS33       0.0035
     36  CD       -20.7060   52.8630    2.4850 C.3    33  LYS33       0.0206
     37  CE       -20.7500   53.5380    1.1070 C.3    33  LYS33       0.1093
     38  NZ       -19.3780   53.7580    0.5540 N.3    33  LYS33      -0.1314
     39  N        -20.0790   51.2560    6.7680 N.am   34  PRO34      -0.2718
     40  CA       -20.0420   51.1140    8.2270 C.3    34  PRO34       0.1535
     41  C        -21.4410   51.2150    8.8150 C.2    34  PRO34       0.2598
     42  O        -22.3040   51.9330    8.3030 O.2    34  PRO34      -0.2715
     43  CB       -19.1600   52.2840    8.6820 C.3    34  PRO34       0.0310
     44  CG       -18.3720   52.6680    7.4690 C.3    34  PRO34       0.0237
     45  CD       -19.2520   52.3750    6.2910 C.3    34  PRO34       0.0939
     46  N        -21.6680   50.4580    9.8890 N.am   35  VAL35      -0.1964
     47  CA       -22.9440   50.5230   10.5930 C.3    35  VAL35       0.1727
     48  C        -23.1000   51.9010   11.2200 C.2    35  VAL35       0.2616
     49  O        -22.1850   52.4070   11.8830 O.2    35  VAL35      -0.2715
     50  CB       -23.0350   49.4110   11.6500 C.3    35  VAL35       0.0290
     51  CG1      -24.3400   49.5260   12.4280 C.3    35  VAL35       0.0023
     52  CG2      -22.9090   48.0420   10.9920 C.3    35  VAL35       0.0023
     53  N        -24.2610   52.5180   11.0010 N.am   36  ASP36      -0.1971
     54  CA       -24.5420   53.8570   11.5070 C.3    36  ASP36       0.1709
     55  C        -25.1680   53.7520   12.8900 C.2    36  ASP36       0.2293
     56  O        -26.2030   53.0870   13.0370 O.2    36  ASP36      -0.2864
     57  CB       -25.4800   54.5940   10.5620 C.3    36  ASP36       0.1436
     58  CG       -25.7550   56.0230   10.9930 C.2    36  ASP36       0.3671
     59  OD1      -24.9910   56.5720   11.8130 O.co2  36  ASP36      -0.2456
     60  OD2      -26.7480   56.6010   10.5040 O.co2  36  ASP36      -0.2456
     61  N        -28.9790   54.4340   13.1490 N.3    39  GLU39      -0.1231
     62  CA       -29.8840   53.4260   12.6120 C.3    39  GLU39       0.1699
     63  C        -29.8350   52.1200   13.3930 C.2    39  GLU39       0.2592
     64  O        -30.8230   51.3740   13.4020 O.2    39  GLU39      -0.2718
     65  CB       -29.5600   53.1540   11.1400 C.3    39  GLU39       0.0402
     66  CG       -29.7070   54.3700   10.2390 C.3    39  GLU39       0.1161
     67  CD       -29.1950   54.1240    8.8320 C.2    39  GLU39       0.3649
     68  OE1      -28.8250   52.9710    8.5200 O.co2  39  GLU39      -0.2457
     69  OE2      -29.1640   55.0860    8.0360 O.co2  39  GLU39      -0.2457
     70  N        -28.7070   51.8240   14.0330 N.am   40  VAL40      -0.1980
     71  CA       -28.5240   50.5990   14.8100 C.3    40  VAL40       0.1595
     72  C        -27.8750   50.9840   16.1360 C.2    40  VAL40       0.2287
     73  O        -26.6510   50.8560   16.2880 O.2    40  VAL40      -0.2864
     74  CB       -27.6760   49.5690   14.0420 C.3    40  VAL40       0.0276
     75  CG1      -27.6820   48.2400   14.7580 C.3    40  VAL40       0.0022
     76  CG2      -28.1770   49.3950   12.6110 C.3    40  VAL40       0.0022
     77  N        -25.4120   48.5690   18.3140 N.3    43  TYR43      -0.1241
     78  CA       -24.3820   47.8160   17.6020 C.3    43  TYR43       0.1605
     79  C        -23.0350   47.8990   18.3120 C.2    43  TYR43       0.2264
     80  O        -22.3240   46.8930   18.4270 O.2    43  TYR43      -0.2867
     81  CB       -24.2650   48.3180   16.1620 C.3    43  TYR43       0.0534
     82  CG       -23.4100   47.4410   15.2690 C.ar   43  TYR43      -0.0201
     83  CD1      -23.8980   46.2340   14.7840 C.ar   43  TYR43      -0.0009
     84  CD2      -22.1230   47.8260   14.9070 C.ar   43  TYR43      -0.0009
     85  CE1      -23.1260   45.4220   13.9670 C.ar   43  TYR43       0.0417
     86  CE2      -21.3350   47.0210   14.0840 C.ar   43  TYR43       0.0417
     87  CZ       -21.8440   45.8230   13.6250 C.ar   43  TYR43       0.1957
     88  OH       -21.0760   45.0280   12.8130 O.3    43  TYR43      -0.2866
     89  N        -21.2040   39.9100   11.8970 N.3    82  ALA82      -0.1245
     90  CA       -22.6180   39.7360   11.5810 C.3    82  ALA82       0.1562
     91  C        -23.2180   38.5710   12.3590 C.2    82  ALA82       0.2260
     92  O        -24.3530   38.6600   12.8440 O.2    82  ALA82      -0.2867
     93  CB       -22.7960   39.5280   10.0730 C.3    82  ALA82       0.0290
     94  N        -23.6960   39.7320   16.0560 N.3    85  TYR85      -0.1227
     95  CA       -24.7880   40.6840   16.2450 C.3    85  TYR85       0.1736
     96  C        -26.1550   40.0780   15.9360 C.2    85  TYR85       0.2595
     97  O        -27.1780   40.6370   16.3560 O.2    85  TYR85      -0.2718
     98  CB       -24.5700   41.9420   15.3860 C.3    85  TYR85       0.0548
     99  CG       -25.6390   42.9870   15.6220 C.ar   85  TYR85      -0.0200
    100  CD1      -25.7210   43.6560   16.8400 C.ar   85  TYR85      -0.0009
    101  CD2      -26.5840   43.2760   14.6510 C.ar   85  TYR85      -0.0009
    102  CE1      -26.7150   44.5930   17.0780 C.ar   85  TYR85       0.0417
    103  CE2      -27.5840   44.2160   14.8790 C.ar   85  TYR85       0.0417
    104  CZ       -27.6410   44.8700   16.0950 C.ar   85  TYR85       0.1957
    105  OH       -28.6330   45.8000   16.3250 O.3    85  TYR85      -0.2866
    106  N        -26.1990   38.9370   15.2530 N.am   86  ASN86      -0.1974
    107  CA       -27.4510   38.3080   14.8240 C.3    86  ASN86       0.1688
    108  C        -27.5600   36.8690   15.3070 C.2    86  ASN86       0.2292
    109  O        -27.6740   35.9390   14.5010 O.2    86  ASN86      -0.2864
    110  CB       -27.5610   38.3710   13.3020 C.3    86  ASN86       0.1181
    111  CG       -27.7910   39.7640   12.8120 C.2    86  ASN86       0.2629
    112  OD1      -28.9280   40.2370   12.7860 O.2    86  ASN86      -0.2716
    113  ND2      -26.7060   40.4510   12.4100 N.am   86  ASN86      -0.0877
    114  N        -34.8630   34.6560   15.1950 N.3    90  ASP90      -0.1239
    115  CA       -35.7680   35.5050   14.4350 C.3    90  ASP90       0.1674
    116  C        -35.3510   35.5660   12.9650 C.2    90  ASP90       0.2266
    117  O        -34.1590   35.5130   12.6480 O.2    90  ASP90      -0.2867
    118  CB       -35.7790   36.9130   15.0190 C.3    90  ASP90       0.1410
    119  CG       -36.2240   36.9420   16.4810 C.2    90  ASP90       0.3668
    120  OD1      -37.1080   37.7600   16.8200 O.co2  90  ASP90      -0.2456
    121  OD2      -35.6920   36.1480   17.2900 O.co2  90  ASP90      -0.2456
    122  N        -35.1540   38.0240   10.8310 N.3    92  GLY92      -0.1210
    123  CA       -34.2210   39.0950   10.5070 C.3    92  GLY92       0.1956
    124  C        -32.7840   38.7010   10.7980 C.2    92  GLY92       0.2611
    125  O        -31.8850   38.9390    9.9790 O.2    92  GLY92      -0.2717
    126  N        -32.5520   38.0700   11.9570 N.am   93  ASP93      -0.1973
    127  CA       -31.2230   37.5560   12.2920 C.3    93  ASP93       0.1709
    128  C        -30.7850   36.4760   11.3120 C.2    93  ASP93       0.2293
    129  O        -29.6470   36.4790   10.8320 O.2    93  ASP93      -0.2864
    130  CB       -31.2020   36.9680   13.7090 C.3    93  ASP93       0.1436
    131  CG       -31.4450   37.9980   14.7880 C.2    93  ASP93       0.3671
    132  OD1      -32.4460   38.7420   14.6860 O.co2  93  ASP93      -0.2456
    133  OD2      -30.6470   38.0430   15.7550 O.co2  93  ASP93      -0.2456
    134  N        -29.6000   37.7820    7.9100 N.3    96  ILE96      -0.1245
    135  CA       -28.2710   38.4020    7.9050 C.3    96  ILE96       0.1561
    136  C        -27.1850   37.3420    8.0510 C.2    96  ILE96       0.2260
    137  O        -26.1380   37.4130    7.3900 O.2    96  ILE96      -0.2867
    138  CB       -28.1600   39.4790    9.0000 C.3    96  ILE96       0.0252
    139  CG1      -29.1830   40.5900    8.7740 C.3    96  ILE96       0.0019
    140  CG2      -26.7380   40.0810    8.9920 C.3    96  ILE96       0.0019
    141  CD1      -29.1360   41.1960    7.3850 C.3    96  ILE96       0.0001
@<TRIPOS>BOND
     1     5     6    1
     2     5     2    1
     3     7     6    1
     4     7     8    1
     5     1     2    1
     6     2     3    1
     7    38    37    1
     8     8     9    2
     9    37    36    1
    10     9    10    1
    11     9    11    1
    12     3     4    2
    13     3    12   am
    14    36    35    1
    15    35    34    1
    16    12    13    1
    17    21    22    2
    18    21    20    1
    19    30    31    1
    20    26    28   ar
    21    26    24   ar
    22    19    20    1
    23    19    14   am
    24    23    20    1
    25    23    24    1
    26    13    14    1
    27    13    16    1
    28    34    31    1
    29    28    29   ar
    30    31    32    1
    31    24    25   ar
    32    14    15    2
    33    17    16    1
    34    18    16    1
    35    29    27   ar
    36    32    33    2
    37    32    39   am
    38    25    27   ar
    39    45    39    1
    40    45    44    1
    41    39    40    1
    42   141   139    1
    43   137   136    2
    44    44    43    1
    45   135   134    1
    46   135   136    1
    47   135   138    1
    48    69    67   ar
    49    40    43    1
    50    40    41    1
    51    42    41    2
    52    68    67   ar
    53   139   138    1
    54    41    46   am
    55    67    66    1
    56   140   138    1
    57    46    47    1
    58   125   124    2
    59    93    90    1
    60    66    65    1
    61    60    58   ar
    62   123   124    1
    63   123   122    1
    64    57    58    1
    65    57    54    1
    66    47    48    1
    67    47    50    1
    68   124   126   am
    69   129   128    2
    70    52    50    1
    71    58    59   ar
    72    53    48   am
    73    53    54    1
    74    65    62    1
    75    48    49    2
    76   128   127    1
    77    54    55    1
    78    90    89    1
    79    90    91    1
    80    50    51    1
    81   126   127    1
    82   127   130    1
    83    91    92    2
    84   113   111   am
    85    76    74    1
    86    62    61    1
    87    62    63    1
    88   117   116    2
    89   112   111    2
    90   111   110    1
    91    88    87    1
    92    55    56    2
    93   116   115    1
    94   110   107    1
    95    63    64    2
    96    63    70   am
    97    87    85   ar
    98    87    86   ar
    99   130   131    1
   100    85    83   ar
   101    70    71    1
   102    74    75    1
   103    74    71    1
   104    86    84   ar
   105   115   118    1
   106   115   114    1
   107   109   108    2
   108   101   103   ar
   109   101    99   ar
   110   132   131   ar
   111    83    82   ar
   112   131   133   ar
   113    71    72    1
   114   107   106    1
   115   107   108    1
   116   103   104   ar
   117    84    82   ar
   118   118   119    1
   119   106    96   am
   120    82    81    1
   121    98    99    1
   122    98    95    1
   123    99   100   ar
   124    96    95    1
   125    96    97    2
   126    94    95    1
   127   104   105    1
   128   104   102   ar
   129    72    73    2
   130    81    78    1
   131   119   120   ar
   132   119   121   ar
   133   100   102   ar
   134    78    79    1
   135    78    77    1
   136    79    80    2
