@<TRIPOS>MOLECULE
tmp/6epjA01.pdb
 88 81 0 0 0
SMALL
GASTEIGER

@<TRIPOS>ATOM
      1  N         -2.9540   37.8920    0.7710 N.3    68  VAL68      -0.1231
      2  CA        -4.3960   37.7080    0.7390 C.3    68  VAL68       0.1692
      3  C         -4.8790   37.1110    2.0540 C.2    68  VAL68       0.2591
      4  O         -6.0430   37.3050    2.4250 O.2    68  VAL68      -0.2718
      5  CB        -4.8270   36.8710   -0.4780 C.3    68  VAL68       0.0266
      6  CG1       -4.5490   35.4380   -0.2430 C.3    68  VAL68       0.0020
      7  CG2       -6.3140   37.0880   -0.7760 C.3    68  VAL68       0.0020
      8  N         -4.0020   36.4520    2.8150 N.am   69  LYS69      -0.1980
      9  CA        -4.3770   36.0080    4.1580 C.3    69  LYS69       0.1596
     10  C         -4.7820   37.1810    5.0470 C.2    69  LYS69       0.2287
     11  O         -5.7410   37.0770    5.8240 O.2    69  LYS69      -0.2864
     12  CB        -3.2180   35.2340    4.7940 C.3    69  LYS69       0.0298
     13  CG        -3.6110   34.4720    6.0480 C.3    69  LYS69       0.0038
     14  CD        -2.4070   33.8150    6.7130 C.3    69  LYS69       0.0206
     15  CE        -1.7110   34.7460    7.6830 C.3    69  LYS69       0.1093
     16  NZ        -2.5840   35.1710    8.8160 N.3    69  LYS69      -0.1314
     17  N         -8.2510   38.2820    3.8860 N.3    72  LEU72      -0.1245
     18  CA        -9.3130   37.3710    4.3030 C.3    72  LEU72       0.1561
     19  C         -9.5990   37.4630    5.7930 C.2    72  LEU72       0.2260
     20  O        -10.7280   37.1810    6.2100 O.2    72  LEU72      -0.2867
     21  CB        -8.9660   35.9380    3.9220 C.3    72  LEU72       0.0270
     22  CG        -9.1180   35.6750    2.4340 C.3    72  LEU72       0.0019
     23  CD1       -8.5180   34.3100    2.0780 C.3    72  LEU72       0.0001
     24  CD2      -10.5810   35.7670    2.0110 C.3    72  LEU72       0.0001
     25  N        -13.9620   33.3900   -0.4180 N.3   108  TYR108     -0.1241
     26  CA       -13.0070   32.2800   -0.4350 C.3   108  TYR108      0.1605
     27  C        -13.0200   31.5510   -1.7720 C.2   108  TYR108      0.2264
     28  O        -11.9620   31.1320   -2.2660 O.2   108  TYR108     -0.2867
     29  CB       -13.2960   31.3070    0.7130 C.3   108  TYR108      0.0534
     30  CG       -12.6010   31.6920    1.9910 C.ar  108  TYR108     -0.0201
     31  CD1      -13.1920   32.5670    2.9030 C.ar  108  TYR108     -0.0009
     32  CD2      -11.3280   31.2150    2.2790 C.ar  108  TYR108     -0.0009
     33  CE1      -12.5400   32.9280    4.0770 C.ar  108  TYR108      0.0417
     34  CE2      -10.6750   31.5710    3.4440 C.ar  108  TYR108      0.0417
     35  CZ       -11.2810   32.4170    4.3420 C.ar  108  TYR108      0.1957
     36  OH       -10.6170   32.7630    5.5030 O.3   108  TYR108     -0.2866
     37  N        -11.1650   33.5370   -4.4720 N.3   111  ILE111     -0.1231
     38  CA        -9.7270   33.4860   -4.2470 C.3   111  ILE111      0.1692
     39  C         -9.1860   32.1000   -4.5780 C.2   111  ILE111      0.2591
     40  O         -8.1500   31.9700   -5.2420 O.2   111  ILE111     -0.2718
     41  CB        -9.4070   33.9210   -2.8040 C.3   111  ILE111      0.0266
     42  CG1       -9.4850   35.4500   -2.7430 C.3   111  ILE111      0.0019
     43  CG2       -8.0320   33.4150   -2.3630 C.3   111  ILE111      0.0020
     44  CD1       -9.8960   36.0220   -1.4110 C.3   111  ILE111      0.0001
     45  N         -9.8880   31.0390   -4.1570 N.am  112  LYS112     -0.1980
     46  CA        -9.4120   29.6940   -4.4680 C.3   112  LYS112      0.1596
     47  C         -9.2900   29.4730   -5.9700 C.2   112  LYS112      0.2287
     48  O         -8.3780   28.7750   -6.4270 O.2   112  LYS112     -0.2864
     49  CB       -10.3480   28.6480   -3.8530 C.3   112  LYS112      0.0298
     50  CG        -9.9410   27.2000   -4.1030 C.3   112  LYS112      0.0038
     51  CD        -8.6200   26.8660   -3.4190 C.3   112  LYS112      0.0206
     52  CE        -7.7500   25.9520   -4.2780 C.3   112  LYS112      0.1093
     53  NZ        -6.2950   26.1670   -4.0240 N.3   112  LYS112     -0.1314
     54  N         -6.6830   33.2070   -7.5150 N.3   115  LEU115     -0.1245
     55  CA        -5.3840   33.5930   -6.9790 C.3   115  LEU115      0.1561
     56  C         -4.3840   32.4550   -7.1710 C.2   115  LEU115      0.2260
     57  O         -4.5900   31.3500   -6.6580 O.2   115  LEU115     -0.2867
     58  CB        -5.5140   33.9350   -5.5010 C.3   115  LEU115      0.0270
     59  CG        -4.1520   34.2010   -4.8840 C.3   115  LEU115      0.0019
     60  CD1       -3.7200   35.5950   -5.2430 C.3   115  LEU115      0.0001
     61  CD2       -4.2330   33.9960   -3.3890 C.3   115  LEU115      0.0001
     62  N         -1.3980   30.1420   -6.4010 N.3   117  GLU117     -0.1245
     63  CA        -0.7820   29.7850   -5.1250 C.3   117  GLU117      0.1567
     64  C          0.6580   30.2690   -5.0260 C.2   117  GLU117      0.2260
     65  O          1.1140   30.6240   -3.9310 O.2   117  GLU117     -0.2867
     66  CB        -0.8300   28.2690   -4.9130 C.3   117  GLU117      0.0388
     67  CG        -2.2320   27.7400   -4.6600 C.3   117  GLU117      0.1160
     68  CD        -2.2780   26.2260   -4.5450 C.2   117  GLU117      0.3649
     69  OE1       -1.3140   25.6340   -4.0130 O.co2 117  GLU117     -0.2457
     70  OE2       -3.2820   25.6300   -4.9900 O.co2 117  GLU117     -0.2457
     71  N          0.5800   34.0350   -4.0850 N.3   120  GLU120     -0.1245
     72  CA         0.3660   34.2430   -2.6610 C.3   120  GLU120      0.1567
     73  C          1.6020   33.8480   -1.8620 C.2   120  GLU120      0.2260
     74  O          1.9640   34.5270   -0.8990 O.2   120  GLU120     -0.2867
     75  CB        -0.8590   33.4620   -2.1910 C.3   120  GLU120      0.0388
     76  CG        -1.0330   33.4300   -0.6710 C.3   120  GLU120      0.1160
     77  CD        -1.2900   34.7990   -0.0220 C.2   120  GLU120      0.3649
     78  OE1       -1.4890   35.8090   -0.7370 O.co2 120  GLU120     -0.2457
     79  OE2       -1.3050   34.8720    1.2300 O.co2 120  GLU120     -0.2457
     80  N          3.7330   36.1950    0.7860 N.3   124  GLU124     -0.1245
     81  CA         4.0070   35.7920    2.1580 C.3   124  GLU124      0.1567
     82  C          5.5030   35.7900    2.4450 C.2   124  GLU124      0.2260
     83  O          5.9310   36.1830    3.5370 O.2   124  GLU124     -0.2867
     84  CB         3.3890   34.4230    2.4300 C.3   124  GLU124      0.0388
     85  CG         1.8630   34.4590    2.4060 C.3   124  GLU124      0.1160
     86  CD         1.2210   33.1370    2.7740 C.2   124  GLU124      0.3649
     87  OE1        1.9060   32.2910    3.3880 O.co2 124  GLU124     -0.2457
     88  OE2        0.0230   32.9480    2.4550 O.co2 124  GLU124     -0.2457
@<TRIPOS>BOND
     1    54    55    1
     2    56    55    1
     3    56    57    2
     4    55    58    1
     5    48    47    2
     6    62    63    1
     7    47    46    1
     8    58    59    1
     9    60    59    1
    10    40    39    2
    11    63    64    1
    12    63    66    1
    13    64    65    2
    14    70    68   ar
    15    66    67    1
    16    59    61    1
    17    67    68    1
    18    39    38    1
    19    39    45   am
    20    68    69   ar
    21    37    38    1
    22    46    45    1
    23    46    49    1
    24    52    53    1
    25    52    51    1
    26    38    41    1
    27    50    49    1
    28    50    51    1
    29    71    72    1
    30    41    42    1
    31    41    43    1
    32    42    44    1
    33    72    75    1
    34    72    73    1
    35    28    27    2
    36    75    76    1
    37    73    74    2
    38    27    26    1
    39     7     5    1
    40    78    77   ar
    41    76    77    1
    42     5     6    1
    43     5     2    1
    44    26    25    1
    45    26    29    1
    46    77    79   ar
    47    29    30    1
    48     2     1    1
    49     2     3    1
    50    80    81    1
    51    30    32   ar
    52    30    31   ar
    53    24    22    1
    54     3     4    2
    55     3     8   am
    56    23    22    1
    57    81    84    1
    58    81    82    1
    59    32    34   ar
    60    85    84    1
    61    85    86    1
    62    22    21    1
    63    82    83    2
    64    88    86   ar
    65    86    87   ar
    66     8     9    1
    67    31    33   ar
    68    34    35   ar
    69    17    18    1
    70    21    18    1
    71    33    35   ar
    72     9    12    1
    73     9    10    1
    74    18    19    1
    75    35    36    1
    76    12    13    1
    77    10    11    2
    78    19    20    2
    79    13    14    1
    80    14    15    1
    81    15    16    1
