@<TRIPOS>MOLECULE
tmp/6epmB00.pdb
 121 117 0 0 0
SMALL
GASTEIGER

@<TRIPOS>ATOM
      1  N        176.7320  113.0440  283.0700 N.3   268  VAL268     -0.1245
      2  CA       177.6160  113.5620  282.0230 C.3   268  VAL268      0.1561
      3  C        178.3980  112.3890  281.4250 C.2   268  VAL268      0.2260
      4  O        178.5270  112.2820  280.2170 O.2   268  VAL268     -0.2867
      5  CB       178.5940  114.6390  282.5560 C.3   268  VAL268      0.0252
      6  CG1      179.6720  114.9860  281.5250 C.3   268  VAL268      0.0019
      7  CG2      177.8510  115.8890  282.9360 C.3   268  VAL268      0.0019
      8  N        177.7020  117.3170  271.4980 N.3   291  VAL291     -0.1245
      9  CA       178.7320  118.3510  271.5640 C.3   291  VAL291      0.1561
     10  C        178.0930  119.7170  271.8890 C.2   291  VAL291      0.2260
     11  O        178.6050  120.4650  272.7060 O.2   291  VAL291     -0.2867
     12  CB       179.5730  118.3950  270.2760 C.3   291  VAL291      0.0252
     13  CG1      180.4710  119.6230  270.2570 C.3   291  VAL291      0.0019
     14  CG2      180.4140  117.1220  270.1450 C.3   291  VAL291      0.0019
     15  N        177.2190  120.0170  275.5520 N.3   294  MET294     -0.1230
     16  CA       178.4020  120.1270  276.3960 C.3   294  MET294      0.1702
     17  C        179.0480  121.4980  276.2920 C.2   294  MET294      0.2592
     18  O        179.6620  121.9770  277.2520 O.2   294  MET294     -0.2718
     19  CB       179.3970  119.0230  276.0500 C.3   294  MET294      0.0401
     20  CG       178.8840  117.6030  276.3120 C.3   294  MET294      0.0596
     21  SD       178.6440  117.3190  278.0700 S.3   294  MET294     -0.1393
     22  CE       177.8130  115.7370  278.0720 C.3   294  MET294      0.0692
     23  N        178.8990  122.1390  275.1400 N.am  295  ASN295     -0.1974
     24  CA       179.3890  123.5150  274.9330 C.3   295  ASN295      0.1688
     25  C        178.3960  124.5790  275.3690 C.2   295  ASN295      0.2292
     26  O        178.7450  125.7550  275.3890 O.2   295  ASN295     -0.2864
     27  CB       179.7610  123.7440  273.4590 C.3   295  ASN295      0.1181
     28  CG       181.1420  123.2300  273.1400 C.2   295  ASN295      0.2629
     29  OD1      182.1280  123.7980  273.5800 O.2   295  ASN295     -0.2716
     30  ND2      181.2160  122.1440  272.3940 N.am  295  ASN295     -0.0877
     31  N        176.0490  124.1020  280.8700 N.3   299  VAL299     -0.1231
     32  CA       176.8040  122.8680  281.0570 C.3   299  VAL299      0.1692
     33  C        178.3240  123.1130  281.0760 C.2   299  VAL299      0.2592
     34  O        179.0090  122.5990  281.9460 O.2   299  VAL299     -0.2718
     35  CB       176.4460  121.8390  279.9730 C.3   299  VAL299      0.0266
     36  CG1      177.2690  120.5590  280.1210 C.3   299  VAL299      0.0020
     37  CG2      174.9710  121.5170  280.0500 C.3   299  VAL299      0.0020
     38  N        178.8280  123.9050  280.1330 N.am  300  TYR300     -0.1962
     39  CA       180.2720  124.1370  279.9720 C.3   300  TYR300      0.1771
     40  C        180.9480  124.6730  281.2290 C.2   300  TYR300      0.2619
     41  O        182.1000  124.3360  281.4990 O.2   300  TYR300     -0.2715
     42  CB       180.5430  125.0990  278.7960 C.3   300  TYR300      0.0574
     43  CG       182.0100  125.2560  278.4570 C.ar  300  TYR300     -0.0198
     44  CD1      182.6570  124.3050  277.6590 C.ar  300  TYR300     -0.0009
     45  CD2      182.7700  126.3460  278.9360 C.ar  300  TYR300     -0.0009
     46  CE1      184.0110  124.4240  277.3390 C.ar  300  TYR300      0.0417
     47  CE2      184.1300  126.4720  278.6240 C.ar  300  TYR300      0.0417
     48  CZ       184.7430  125.5040  277.8190 C.ar  300  TYR300      0.1957
     49  OH       186.0740  125.5700  277.4750 O.3   300  TYR300     -0.2866
     50  N        180.2350  125.5040  281.9890 N.am  301  ARG301     -0.1963
     51  CA       180.7920  126.1260  283.1920 C.3   301  ARG301      0.1729
     52  C        180.9380  125.2100  284.4100 C.2   301  ARG301      0.2616
     53  O        181.5360  125.6240  285.3910 O.2   301  ARG301     -0.2715
     54  CB       179.9890  127.3870  283.5850 C.3   301  ARG301      0.0348
     55  CG       178.5250  127.1490  283.9520 C.3   301  ARG301      0.0492
     56  CD       177.8740  128.4340  284.4110 C.3   301  ARG301      0.2205
     57  NE       178.5160  128.9130  285.6280 N.pl3 301  ARG301     -0.0865
     58  CZ       178.3140  128.4050  286.8330 C.cat 301  ARG301      0.5346
     59  NH1      177.4450  127.4120  287.0200 N.pl3 301  ARG301      0.1354
     60  NH2      178.9770  128.9050  287.8710 N.pl3 301  ARG301      0.1354
     61  N        180.4140  123.9810  284.3450 N.am  302  LEU302     -0.1963
     62  CA       180.4500  123.0350  285.4740 C.3   302  LEU302      0.1728
     63  C        181.8060  122.3670  285.6580 C.2   302  LEU302      0.2616
     64  O        181.9520  121.1590  285.4630 O.2   302  LEU302     -0.2715
     65  CB       179.3670  121.9650  285.3060 C.3   302  LEU302      0.0311
     66  CG       177.9260  122.4700  285.1760 C.3   302  LEU302      0.0022
     67  CD1      176.9830  121.3450  284.7680 C.3   302  LEU302      0.0001
     68  CD2      177.4720  123.1080  286.4840 C.3   302  LEU302      0.0001
     69  N        182.7850  123.1530  286.0870 N.am  303  ASP303     -0.1971
     70  CA       184.1640  122.6880  286.2810 C.3   303  ASP303      0.1709
     71  C        184.2920  121.5550  287.3210 C.2   303  ASP303      0.2293
     72  O        185.0810  120.6240  287.1220 O.2   303  ASP303     -0.2864
     73  CB       185.0930  123.8600  286.6790 C.3   303  ASP303      0.1436
     74  CG       185.2150  124.9550  285.5860 C.2   303  ASP303      0.3671
     75  OD1      184.9580  124.7080  284.3860 O.co2 303  ASP303     -0.2456
     76  OD2      185.5910  126.0910  285.9470 O.co2 303  ASP303     -0.2456
     77  N        182.1740  119.1940  287.9570 N.3   305  THR305     -0.1203
     78  CA       181.6360  117.9820  287.3470 C.3   305  THR305      0.1994
     79  C        182.6720  117.3870  286.3860 C.2   305  THR305      0.2617
     80  O        182.9770  116.1960  286.4370 O.2   305  THR305     -0.2717
     81  CB       180.3240  118.3220  286.6090 C.3   305  THR305      0.1784
     82  OG1      179.3780  118.8620  287.5480 O.3   305  THR305     -0.2211
     83  CG2      179.7190  117.1020  285.9280 C.3   305  THR305      0.0376
     84  N        183.2000  118.2470  285.5200 N.am  306  PHE306     -0.1975
     85  CA       184.1810  117.8800  284.5100 C.3   306  PHE306      0.1639
     86  C        185.4540  117.3240  285.1300 C.2   306  PHE306      0.2290
     87  O        186.0350  116.3890  284.6070 O.2   306  PHE306     -0.2864
     88  CB       184.5110  119.1060  283.6520 C.3   306  PHE306      0.0560
     89  CG       185.2960  118.7950  282.4120 C.ar  306  PHE306     -0.0200
     90  CD1      184.7030  118.1040  281.3520 C.ar  306  PHE306     -0.0042
     91  CD2      186.6270  119.2120  282.2830 C.ar  306  PHE306     -0.0042
     92  CE1      185.4350  117.8120  280.1990 C.ar  306  PHE306     -0.0003
     93  CE2      187.3530  118.9290  281.1250 C.ar  306  PHE306     -0.0003
     94  CZ       186.7590  118.2280  280.0860 C.ar  306  PHE306     -0.0000
     95  N        185.1840  113.0830  274.4360 N.3   317  LEU317     -0.1231
     96  CA       184.4590  114.3280  274.2670 C.3   317  LEU317      0.1693
     97  C        185.3010  115.3440  273.5390 C.2   317  LEU317      0.2591
     98  O        184.7970  116.0220  272.6460 O.2   317  LEU317     -0.2718
     99  CB       184.0040  114.8920  275.6100 C.3   317  LEU317      0.0284
    100  CG       183.2770  116.2350  275.5420 C.3   317  LEU317      0.0019
    101  CD1      182.1300  116.2190  274.5420 C.3   317  LEU317      0.0001
    102  CD2      182.7780  116.6000  276.9290 C.3   317  LEU317      0.0001
    103  N        186.5770  115.4410  273.9100 N.am  318  GLU318     -0.1979
    104  CA       187.4770  116.4080  273.2680 C.3   318  GLU318      0.1602
    105  C        187.6640  116.1380  271.7680 C.2   318  GLU318      0.2287
    106  O        187.6200  117.0700  270.9640 O.2   318  GLU318     -0.2864
    107  CB       188.8110  116.5280  274.0210 C.3   318  GLU318      0.0415
    108  CG       188.6970  117.3860  275.2910 C.3   318  GLU318      0.1163
    109  CD       189.7240  117.0670  276.3860 C.2   318  GLU318      0.3649
    110  OE1      190.7970  116.4630  276.1000 O.co2 318  GLU318     -0.2457
    111  OE2      189.4460  117.4430  277.5540 O.co2 318  GLU318     -0.2457
    112  N        184.4210  117.2160  270.0070 N.3   321  HIS321     -0.1241
    113  CA       184.4030  118.6640  269.8740 C.3   321  HIS321      0.1621
    114  C        185.2780  119.1610  268.7080 C.2   321  HIS321      0.2264
    115  O        184.9090  120.1020  267.9990 O.2   321  HIS321     -0.2867
    116  CB       184.8640  119.3190  271.1640 C.3   321  HIS321      0.0745
    117  CG       184.9760  120.8020  271.0580 C.ar  321  HIS321      0.0817
    118  ND1      183.8750  121.6310  271.0870 N.ar  321  HIS321     -0.2268
    119  CD2      186.0510  121.6020  270.8510 C.ar  321  HIS321      0.1154
    120  CE1      184.2690  122.8790  270.9230 C.ar  321  HIS321      0.1986
    121  NE2      185.5840  122.8920  270.7830 N.ar  321  HIS321     -0.2212
@<TRIPOS>BOND
     1   115   114    2
     2   114   113    1
     3   113   112    1
     4   113   116    1
     5    14    12    1
     6    13    12    1
     7    12     9    1
     8   121   119   ar
     9   121   120   ar
    10   119   117   ar
    11   120   118   ar
    12   106   105    2
    13   117   118   ar
    14   117   116    1
    15     8     9    1
    16     9    10    1
    17   105   104    1
    18    10    11    2
    19    30    28   am
    20    98    97    2
    21    28    27    1
    22    28    29    2
    23   104   103    1
    24   104   107    1
    25    27    24    1
    26    97   103   am
    27    97    96    1
    28   107   108    1
    29    96    95    1
    30    96    99    1
    31   101   100    1
    32    24    23    1
    33    24    25    1
    34    23    17   am
    35   108   109    1
    36    25    26    2
    37   100    99    1
    38   100   102    1
    39    15    16    1
    40    19    20    1
    41    19    16    1
    42   110   109   ar
    43    17    16    1
    44    17    18    2
    45    20    21    1
    46   109   111   ar
    47    46    44   ar
    48    46    48   ar
    49    49    48    1
    50    44    43   ar
    51    48    47   ar
    52    21    22    1
    53    43    42    1
    54    43    45   ar
    55    47    45   ar
    56    42    39    1
    57    39    38    1
    58    39    40    1
    59    35    37    1
    60    35    36    1
    61    35    32    1
    62    94    92   ar
    63    94    93   ar
    64    38    33   am
    65    92    90   ar
    66     4     3    2
    67    31    32    1
    68    32    33    1
    69    33    34    2
    70    93    91   ar
    71    40    41    2
    72    40    50   am
    73    90    89   ar
    74     3     2    1
    75     6     5    1
    76    50    51    1
    77     2     5    1
    78     2     1    1
    79    91    89   ar
    80    89    88    1
    81     5     7    1
    82    51    54    1
    83    51    52    1
    84    54    55    1
    85    88    85    1
    86    55    56    1
    87    61    52   am
    88    61    62    1
    89    75    74   ar
    90    52    53    2
    91    56    57    1
    92    85    86    1
    93    85    84    1
    94    87    86    2
    95    67    66    1
    96    66    65    1
    97    66    68    1
    98    65    62    1
    99    64    63    2
   100    62    63    1
   101    84    79   am
   102    74    76   ar
   103    74    73    1
   104    57    58    2
   105    63    69   am
   106    83    81    1
   107    69    70    1
   108    70    73    1
   109    70    71    1
   110    79    80    2
   111    79    78    1
   112    81    78    1
   113    81    82    1
   114    58    59    1
   115    58    60    1
   116    72    71    2
   117    78    77    1
