@<TRIPOS>MOLECULE
tmp/6epnB00.pdb
 90 85 0 0 0
SMALL
GASTEIGER

@<TRIPOS>ATOM
      1  N        177.5600  117.1440  272.4090 N.3   291  VAL291     -0.1245
      2  CA       178.5780  118.1780  272.4740 C.3   291  VAL291      0.1561
      3  C        177.9280  119.5510  272.7710 C.2   291  VAL291      0.2260
      4  O        178.4150  120.3000  273.6100 O.2   291  VAL291     -0.2867
      5  CB       179.4190  118.2180  271.1910 C.3   291  VAL291      0.0252
      6  CG1      180.3580  119.4230  271.1970 C.3   291  VAL291      0.0019
      7  CG2      180.2200  116.9200  271.0290 C.3   291  VAL291      0.0019
      8  N        177.1120  119.7590  276.4800 N.3   294  MET294     -0.1230
      9  CA       178.3190  119.9330  277.2900 C.3   294  MET294      0.1702
     10  C        178.8670  121.3400  277.1430 C.2   294  MET294      0.2592
     11  O        179.4080  121.8970  278.0990 O.2   294  MET294     -0.2718
     12  CB       179.3820  118.9020  276.9390 C.3   294  MET294      0.0401
     13  CG       178.9650  117.4430  277.1510 C.3   294  MET294      0.0596
     14  SD       178.3990  117.1190  278.8260 S.3   294  MET294     -0.1393
     15  CE       177.8240  115.4340  278.7080 C.3   294  MET294      0.0692
     16  N        178.6990  121.9270  275.9580 N.am  295  ASN295     -0.1974
     17  CA       179.1660  123.2890  275.7050 C.3   295  ASN295      0.1688
     18  C        178.1440  124.3160  276.1730 C.2   295  ASN295      0.2292
     19  O        178.4500  125.4830  276.2290 O.2   295  ASN295     -0.2864
     20  CB       179.5190  123.4900  274.2180 C.3   295  ASN295      0.1181
     21  CG       180.9190  122.9940  273.8740 C.2   295  ASN295      0.2629
     22  OD1      181.9090  123.6110  274.2550 O.2   295  ASN295     -0.2716
     23  ND2      181.0040  121.8680  273.1550 N.am  295  ASN295     -0.0877
     24  N        178.8200  123.5810  281.0080 N.3   300  TYR300     -0.1241
     25  CA       180.2630  123.8240  280.7960 C.3   300  TYR300      0.1605
     26  C        181.0080  124.3060  282.0470 C.2   300  TYR300      0.2264
     27  O        182.1660  123.9330  282.2700 O.2   300  TYR300     -0.2867
     28  CB       180.4550  124.8560  279.6590 C.3   300  TYR300      0.0534
     29  CG       181.9000  125.1120  279.2880 C.ar  300  TYR300     -0.0201
     30  CD1      182.5300  124.3460  278.3070 C.ar  300  TYR300     -0.0009
     31  CD2      182.6540  126.1130  279.9290 C.ar  300  TYR300     -0.0009
     32  CE1      183.8580  124.5730  277.9540 C.ar  300  TYR300      0.0417
     33  CE2      183.9940  126.3310  279.6000 C.ar  300  TYR300      0.0417
     34  CZ       184.5820  125.5600  278.5980 C.ar  300  TYR300      0.1957
     35  OH       185.8910  125.7530  278.2470 O.3   300  TYR300     -0.2866
     36  N        182.6840  122.6960  286.9980 N.3   303  ASP303     -0.1239
     37  CA       184.0550  122.1820  287.1680 C.3   303  ASP303      0.1674
     38  C        184.1600  121.1080  288.2520 C.2   303  ASP303      0.2266
     39  O        184.9960  120.1980  288.1300 O.2   303  ASP303     -0.2867
     40  CB       185.0520  123.3160  287.4480 C.3   303  ASP303      0.1410
     41  CG       185.2100  124.2770  286.2630 C.2   303  ASP303      0.3668
     42  OD1      185.1040  123.8560  285.0890 O.co2 303  ASP303     -0.2456
     43  OD2      185.4420  125.4770  286.5000 O.co2 303  ASP303     -0.2456
     44  N        183.0300  117.7820  286.3300 N.3   306  PHE306     -0.1241
     45  CA       183.9900  117.2780  285.3420 C.3   306  PHE306      0.1605
     46  C        185.3100  116.8560  285.9770 C.2   306  PHE306      0.2264
     47  O        185.9950  116.0050  285.4290 O.2   306  PHE306     -0.2867
     48  CB       184.2040  118.2820  284.1880 C.3   306  PHE306      0.0534
     49  CG       183.0220  118.3620  283.2630 C.ar  306  PHE306     -0.0203
     50  CD1      182.8460  117.4140  282.2680 C.ar  306  PHE306     -0.0042
     51  CD2      182.0410  119.3360  283.4330 C.ar  306  PHE306     -0.0042
     52  CE1      181.7260  117.4570  281.4400 C.ar  306  PHE306     -0.0003
     53  CE2      180.9260  119.3840  282.6070 C.ar  306  PHE306     -0.0003
     54  CZ       180.7650  118.4370  281.6130 C.ar  306  PHE306     -0.0000
     55  N        186.7500  111.8240  279.6890 N.3   314  LYS314     -0.1245
     56  CA       187.2340  113.1570  279.3630 C.3   314  LYS314      0.1561
     57  C        187.7390  113.2110  277.9360 C.2   314  LYS314      0.2260
     58  O        187.3930  114.1380  277.1990 O.2   314  LYS314     -0.2867
     59  CB       188.3600  113.5990  280.3010 C.3   314  LYS314      0.0271
     60  CG       187.8920  113.9870  281.6930 C.3   314  LYS314      0.0035
     61  CD       189.0730  114.2330  282.6270 C.3   314  LYS314      0.0206
     62  CE       188.6680  115.0480  283.8480 C.3   314  LYS314      0.1093
     63  NZ       188.2140  116.4290  283.4930 N.3   314  LYS314     -0.1314
     64  N        185.0070  112.8520  275.2450 N.3   317  LEU317     -0.1231
     65  CA       184.3080  114.1180  275.0920 C.3   317  LEU317      0.1693
     66  C        185.1580  115.1220  274.3460 C.2   317  LEU317      0.2591
     67  O        184.6430  115.8080  273.4700 O.2   317  LEU317     -0.2718
     68  CB       183.8930  114.7010  276.4450 C.3   317  LEU317      0.0284
     69  CG       183.1970  116.0590  276.4280 C.3   317  LEU317      0.0019
     70  CD1      182.0090  116.0440  275.4750 C.3   317  LEU317      0.0001
     71  CD2      182.7650  116.4490  277.8330 C.3   317  LEU317      0.0001
     72  N        186.4470  115.2080  274.6890 N.am  318  GLU318     -0.1979
     73  CA       187.3510  116.1630  274.0240 C.3   318  GLU318      0.1602
     74  C        187.4560  115.9180  272.5190 C.2   318  GLU318      0.2287
     75  O        187.3530  116.8470  271.7190 O.2   318  GLU318     -0.2864
     76  CB       188.7370  116.1890  274.6780 C.3   318  GLU318      0.0415
     77  CG       188.8330  117.2320  275.7820 C.3   318  GLU318      0.1163
     78  CD       189.8220  116.8760  276.8840 C.2   318  GLU318      0.3649
     79  OE1      189.5430  117.2580  278.0490 O.co2 318  GLU318     -0.2457
     80  OE2      190.8650  116.2300  276.5940 O.co2 318  GLU318     -0.2457
     81  N        184.2510  117.0190  270.8810 N.3   321  HIS321     -0.1241
     82  CA       184.2180  118.4660  270.7820 C.3   321  HIS321      0.1621
     83  C        185.1180  118.9650  269.6430 C.2   321  HIS321      0.2264
     84  O        184.7420  119.8820  268.9140 O.2   321  HIS321     -0.2867
     85  CB       184.6270  119.1160  272.1000 C.3   321  HIS321      0.0745
     86  CG       184.8070  120.5920  271.9960 C.ar  321  HIS321      0.0817
     87  ND1      183.7440  121.4710  271.9700 N.ar  321  HIS321     -0.2268
     88  CD2      185.9260  121.3420  271.8460 C.ar  321  HIS321      0.1154
     89  CE1      184.2020  122.7010  271.8210 C.ar  321  HIS321      0.1986
     90  NE2      185.5230  122.6520  271.7490 N.ar  321  HIS321     -0.2212
@<TRIPOS>BOND
     1    84    83    2
     2    83    82    1
     3    82    81    1
     4    82    85    1
     5     7     5    1
     6     5     6    1
     7     5     2    1
     8    75    74    2
     9    90    89   ar
    10    90    88   ar
    11    89    87   ar
    12    88    86   ar
    13    87    86   ar
    14    86    85    1
    15     1     2    1
    16     2     3    1
    17    74    73    1
    18     3     4    2
    19    23    21   am
    20    67    66    2
    21    21    20    1
    22    21    22    2
    23    73    76    1
    24    73    72    1
    25    20    17    1
    26    66    72   am
    27    66    65    1
    28    76    77    1
    29    65    64    1
    30    65    68    1
    31    70    69    1
    32    17    16    1
    33    17    18    1
    34    77    78    1
    35    16    10   am
    36    18    19    2
    37    69    68    1
    38    69    71    1
    39     8     9    1
    40    80    78   ar
    41    78    79   ar
    42    12    13    1
    43    12     9    1
    44    10     9    1
    45    10    11    2
    46    13    14    1
    47    58    57    2
    48    57    56    1
    49    32    30   ar
    50    32    34   ar
    51    35    34    1
    52    30    29   ar
    53    34    33   ar
    54    15    14    1
    55    29    28    1
    56    29    31   ar
    57    56    55    1
    58    56    59    1
    59    33    31   ar
    60    28    25    1
    61    59    60    1
    62    25    24    1
    63    25    26    1
    64    52    54   ar
    65    52    50   ar
    66    54    53   ar
    67    60    61    1
    68    26    27    2
    69    50    49   ar
    70    53    51   ar
    71    61    62    1
    72    49    51   ar
    73    49    48    1
    74    63    62    1
    75    48    45    1
    76    42    41   ar
    77    45    46    1
    78    45    44    1
    79    47    46    2
    80    41    43   ar
    81    41    40    1
    82    36    37    1
    83    37    40    1
    84    37    38    1
    85    39    38    2
