@<TRIPOS>MOLECULE
tmp/6epoB01.pdb
 84 80 0 0 0
SMALL
GASTEIGER

@<TRIPOS>ATOM
      1  N        176.6850  112.7830  282.4530 N.3   263  VAL263     -0.1245
      2  CA       177.5400  113.3110  281.3980 C.3   263  VAL263      0.1561
      3  C        178.3190  112.1520  280.7730 C.2   263  VAL263      0.2260
      4  O        178.4300  112.0460  279.5570 O.2   263  VAL263     -0.2867
      5  CB       178.5240  114.3710  281.9410 C.3   263  VAL263      0.0252
      6  CG1      179.6140  114.6940  280.9210 C.3   263  VAL263      0.0019
      7  CG2      177.7760  115.6390  282.3210 C.3   263  VAL263      0.0019
      8  N        177.2630  119.9320  275.0990 N.3   289  MET289     -0.1230
      9  CA       178.4180  120.1020  275.9490 C.3   289  MET289      0.1702
     10  C        179.0290  121.5010  275.8140 C.2   289  MET289      0.2592
     11  O        179.6300  122.0070  276.7770 O.2   289  MET289     -0.2718
     12  CB       179.4720  119.0370  275.6520 C.3   289  MET289      0.0401
     13  CG       178.9930  117.5990  275.8180 C.3   289  MET289      0.0596
     14  SD       178.5010  117.1860  277.4990 S.3   289  MET289     -0.1393
     15  CE       177.6560  115.6310  277.2400 C.3   289  MET289      0.0692
     16  N        178.8520  122.1410  274.6480 N.am  290  ASN290     -0.1974
     17  CA       179.3570  123.5140  274.4030 C.3   290  ASN290      0.1688
     18  C        178.3440  124.5850  274.7990 C.2   290  ASN290      0.2292
     19  O        178.6600  125.7750  274.7500 O.2   290  ASN290     -0.2864
     20  CB       179.7330  123.7080  272.9150 C.3   290  ASN290      0.1181
     21  CG       181.0880  123.1260  272.5770 C.2   290  ASN290      0.2629
     22  OD1      182.1210  123.7300  272.8650 O.2   290  ASN290     -0.2716
     23  ND2      181.0910  121.9470  271.9600 N.am  290  ASN290     -0.0877
     24  N        176.1950  123.9290  280.3430 N.3   294  VAL294     -0.1231
     25  CA       177.0280  122.7330  280.5330 C.3   294  VAL294      0.1692
     26  C        178.5380  123.0280  280.5160 C.2   294  VAL294      0.2592
     27  O        179.2890  122.5380  281.3600 O.2   294  VAL294     -0.2718
     28  CB       176.7120  121.6620  279.4550 C.3   294  VAL294      0.0266
     29  CG1      177.5610  120.4060  279.6500 C.3   294  VAL294      0.0020
     30  CG2      175.2450  121.2970  279.4800 C.3   294  VAL294      0.0020
     31  N        178.9700  123.8250  279.5510 N.am  295  TYR295     -0.1976
     32  CA       180.3970  124.1280  279.3190 C.3   295  TYR295      0.1639
     33  C        181.1230  124.6400  280.5660 C.2   295  TYR295      0.2290
     34  O        182.3060  124.3490  280.7820 O.2   295  TYR295     -0.2864
     35  CB       180.5230  125.1630  278.1740 C.3   295  TYR295      0.0560
     36  CG       181.9400  125.4360  277.7380 C.ar  295  TYR295     -0.0198
     37  CD1      182.5430  124.6510  276.7490 C.ar  295  TYR295     -0.0009
     38  CD2      182.6940  126.4760  278.3030 C.ar  295  TYR295     -0.0009
     39  CE1      183.8520  124.8870  276.3340 C.ar  295  TYR295      0.0417
     40  CE2      184.0110  126.7190  277.8990 C.ar  295  TYR295      0.0417
     41  CZ       184.5780  125.9220  276.9040 C.ar  295  TYR295      0.1957
     42  OH       185.8630  126.1160  276.4740 O.3   295  TYR295     -0.2866
     43  N        180.5940  123.8040  283.7020 N.3   297  LEU297     -0.1231
     44  CA       180.5580  122.8880  284.8620 C.3   297  LEU297      0.1693
     45  C        181.8960  122.1890  285.0480 C.2   297  LEU297      0.2592
     46  O        182.0190  120.9890  284.8270 O.2   297  LEU297     -0.2718
     47  CB       179.4530  121.8450  284.6920 C.3   297  LEU297      0.0284
     48  CG       178.0350  122.3780  284.5080 C.3   297  LEU297      0.0019
     49  CD1      177.0830  121.2540  284.1440 C.3   297  LEU297      0.0001
     50  CD2      177.5750  123.0880  285.7720 C.3   297  LEU297      0.0001
     51  N        182.8830  122.9540  285.4930 N.am  298  ASP298     -0.1974
     52  CA       184.2570  122.4830  285.6580 C.3   298  ASP298      0.1709
     53  C        184.3860  121.3660  286.6720 C.2   298  ASP298      0.2293
     54  O        185.2360  120.4880  286.4900 O.2   298  ASP298     -0.2864
     55  CB       185.2080  123.6380  286.0500 C.3   298  ASP298      0.1436
     56  CG       185.3320  124.7200  284.9610 C.2   298  ASP298      0.3671
     57  OD1      185.1010  124.4330  283.7700 O.co2 298  ASP298     -0.2456
     58  OD2      185.6760  125.8750  285.3020 O.co2 298  ASP298     -0.2456
     59  N        182.2280  119.0190  287.2650 N.3   300  THR300     -0.1203
     60  CA       181.7070  117.8200  286.6310 C.3   300  THR300      0.1994
     61  C        182.7560  117.2880  285.6460 C.2   300  THR300      0.2617
     62  O        183.1240  116.1180  285.7010 O.2   300  THR300     -0.2717
     63  CB       180.3630  118.1390  285.9570 C.3   300  THR300      0.1784
     64  OG1      179.4580  118.6640  286.9410 O.3   300  THR300     -0.2211
     65  CG2      179.7390  116.9150  285.3460 C.3   300  THR300      0.0376
     66  N        183.2620  118.1680  284.7830 N.am  301  PHE301     -0.1975
     67  CA       184.2390  117.7930  283.7630 C.3   301  PHE301      0.1639
     68  C        185.4980  117.1790  284.3600 C.2   301  PHE301      0.2290
     69  O        185.9920  116.2040  283.8340 O.2   301  PHE301     -0.2864
     70  CB       184.6170  118.9910  282.8920 C.3   301  PHE301      0.0560
     71  CG       185.5100  118.6440  281.7260 C.ar  301  PHE301     -0.0200
     72  CD1      184.9810  118.0490  280.5700 C.ar  301  PHE301     -0.0042
     73  CD2      186.8860  118.9160  281.7700 C.ar  301  PHE301     -0.0042
     74  CE1      185.8080  117.7240  279.4880 C.ar  301  PHE301     -0.0003
     75  CE2      187.7100  118.5960  280.6860 C.ar  301  PHE301     -0.0003
     76  CZ       187.1710  118.0010  279.5470 C.ar  301  PHE301     -0.0000
     77  N        185.1870  112.9570  273.7960 N.3   312  LEU312     -0.1245
     78  CA       184.4020  114.1800  273.6120 C.3   312  LEU312      0.1561
     79  C        185.1850  115.2330  272.8680 C.2   312  LEU312      0.2260
     80  O        184.6170  115.9530  272.0280 O.2   312  LEU312     -0.2867
     81  CB       183.9490  114.7610  274.9470 C.3   312  LEU312      0.0270
     82  CG       183.1520  116.0680  274.8690 C.3   312  LEU312      0.0019
     83  CD1      181.9240  115.9580  273.9650 C.3   312  LEU312      0.0001
     84  CD2      182.7480  116.4950  276.2690 C.3   312  LEU312      0.0001
@<TRIPOS>BOND
     1    23    21   am
     2    80    79    2
     3    21    22    2
     4    21    20    1
     5    79    78    1
     6    20    17    1
     7    78    77    1
     8    78    81    1
     9    83    82    1
    10    17    16    1
    11    17    18    1
    12    16    10   am
    13    19    18    2
    14    82    81    1
    15    82    84    1
    16     8     9    1
    17    12    13    1
    18    12     9    1
    19    10     9    1
    20    10    11    2
    21    13    14    1
    22    39    37   ar
    23    39    41   ar
    24    42    41    1
    25    37    36   ar
    26    41    40   ar
    27    15    14    1
    28    36    35    1
    29    36    38   ar
    30    40    38   ar
    31    35    32    1
    32    32    31    1
    33    32    33    1
    34    28    30    1
    35    28    29    1
    36    28    25    1
    37    74    76   ar
    38    74    72   ar
    39    76    75   ar
    40    31    26   am
    41     4     3    2
    42    24    25    1
    43    26    25    1
    44    26    27    2
    45    33    34    2
    46    72    71   ar
    47    75    73   ar
    48     3     2    1
    49     6     5    1
    50     2     5    1
    51     2     1    1
    52    71    73   ar
    53    71    70    1
    54     5     7    1
    55    70    67    1
    56    43    44    1
    57    67    68    1
    58    67    66    1
    59    57    56   ar
    60    69    68    2
    61    49    48    1
    62    48    47    1
    63    48    50    1
    64    47    44    1
    65    66    61   am
    66    46    45    2
    67    44    45    1
    68    56    58   ar
    69    56    55    1
    70    45    51   am
    71    65    63    1
    72    51    52    1
    73    61    62    2
    74    61    60    1
    75    52    55    1
    76    52    53    1
    77    63    60    1
    78    63    64    1
    79    54    53    2
    80    60    59    1
