@<TRIPOS>MOLECULE
tmp/6epoB00.pdb
 100 95 0 0 0
SMALL
GASTEIGER

@<TRIPOS>ATOM
      1  N        177.7090  117.2530  271.0080 N.3   286  VAL286     -0.1245
      2  CA       178.7420  118.2740  271.0690 C.3   286  VAL286      0.1561
      3  C        178.1060  119.6390  271.3940 C.2   286  VAL286      0.2260
      4  O        178.5950  120.3670  272.2470 O.2   286  VAL286     -0.2867
      5  CB       179.5770  118.3140  269.7720 C.3   286  VAL286      0.0252
      6  CG1      180.5040  119.5340  269.7450 C.3   286  VAL286      0.0019
      7  CG2      180.3960  117.0320  269.6270 C.3   286  VAL286      0.0019
      8  N        177.2630  119.9320  275.0990 N.3   289  MET289     -0.1230
      9  CA       178.4180  120.1020  275.9490 C.3   289  MET289      0.1702
     10  C        179.0290  121.5010  275.8140 C.2   289  MET289      0.2592
     11  O        179.6300  122.0070  276.7770 O.2   289  MET289     -0.2718
     12  CB       179.4720  119.0370  275.6520 C.3   289  MET289      0.0401
     13  CG       178.9930  117.5990  275.8180 C.3   289  MET289      0.0596
     14  SD       178.5010  117.1860  277.4990 S.3   289  MET289     -0.1393
     15  CE       177.6560  115.6310  277.2400 C.3   289  MET289      0.0692
     16  N        178.8520  122.1410  274.6480 N.am  290  ASN290     -0.1974
     17  CA       179.3570  123.5140  274.4030 C.3   290  ASN290      0.1688
     18  C        178.3440  124.5850  274.7990 C.2   290  ASN290      0.2292
     19  O        178.6600  125.7750  274.7500 O.2   290  ASN290     -0.2864
     20  CB       179.7330  123.7080  272.9150 C.3   290  ASN290      0.1181
     21  CG       181.0880  123.1260  272.5770 C.2   290  ASN290      0.2629
     22  OD1      182.1210  123.7300  272.8650 O.2   290  ASN290     -0.2716
     23  ND2      181.0910  121.9470  271.9600 N.am  290  ASN290     -0.0877
     24  N        178.9700  123.8250  279.5510 N.3   295  TYR295     -0.1241
     25  CA       180.3970  124.1280  279.3190 C.3   295  TYR295      0.1605
     26  C        181.1230  124.6400  280.5660 C.2   295  TYR295      0.2264
     27  O        182.3060  124.3490  280.7820 O.2   295  TYR295     -0.2867
     28  CB       180.5230  125.1630  278.1740 C.3   295  TYR295      0.0534
     29  CG       181.9400  125.4360  277.7380 C.ar  295  TYR295     -0.0201
     30  CD1      182.5430  124.6510  276.7490 C.ar  295  TYR295     -0.0009
     31  CD2      182.6940  126.4760  278.3030 C.ar  295  TYR295     -0.0009
     32  CE1      183.8520  124.8870  276.3340 C.ar  295  TYR295      0.0417
     33  CE2      184.0110  126.7190  277.8990 C.ar  295  TYR295      0.0417
     34  CZ       184.5780  125.9220  276.9040 C.ar  295  TYR295      0.1957
     35  OH       185.8630  126.1160  276.4740 O.3   295  TYR295     -0.2866
     36  N        183.2620  118.1680  284.7830 N.3   301  PHE301     -0.1241
     37  CA       184.2390  117.7930  283.7630 C.3   301  PHE301      0.1605
     38  C        185.4980  117.1790  284.3600 C.2   301  PHE301      0.2264
     39  O        185.9920  116.2040  283.8340 O.2   301  PHE301     -0.2867
     40  CB       184.6170  118.9910  282.8920 C.3   301  PHE301      0.0534
     41  CG       185.5100  118.6440  281.7260 C.ar  301  PHE301     -0.0203
     42  CD1      184.9810  118.0490  280.5700 C.ar  301  PHE301     -0.0042
     43  CD2      186.8860  118.9160  281.7700 C.ar  301  PHE301     -0.0042
     44  CE1      185.8080  117.7240  279.4880 C.ar  301  PHE301     -0.0003
     45  CE2      187.7100  118.5960  280.6860 C.ar  301  PHE301     -0.0003
     46  CZ       187.1710  118.0010  279.5470 C.ar  301  PHE301     -0.0000
     47  N        186.9480  112.0670  278.1790 N.3   309  LYS309     -0.1245
     48  CA       187.3750  113.4160  277.8240 C.3   309  LYS309      0.1561
     49  C        187.9190  113.4470  276.4000 C.2   309  LYS309      0.2260
     50  O        187.5640  114.3370  275.6190 O.2   309  LYS309     -0.2867
     51  CB       188.4510  113.9520  278.7700 C.3   309  LYS309      0.0271
     52  CG       187.9770  114.2520  280.1800 C.3   309  LYS309      0.0035
     53  CD       189.0650  114.9740  280.9640 C.3   309  LYS309      0.0206
     54  CE       188.5970  115.4670  282.3180 C.3   309  LYS309      0.1093
     55  NZ       189.1720  114.7070  283.4660 N.3   309  LYS309     -0.1314
     56  N        185.1870  112.9570  273.7960 N.3   312  LEU312     -0.1231
     57  CA       184.4020  114.1800  273.6120 C.3   312  LEU312      0.1693
     58  C        185.1850  115.2330  272.8680 C.2   312  LEU312      0.2591
     59  O        184.6170  115.9530  272.0280 O.2   312  LEU312     -0.2718
     60  CB       183.9490  114.7610  274.9470 C.3   312  LEU312      0.0284
     61  CG       183.1520  116.0680  274.8690 C.3   312  LEU312      0.0019
     62  CD1      181.9240  115.9580  273.9650 C.3   312  LEU312      0.0001
     63  CD2      182.7480  116.4950  276.2690 C.3   312  LEU312      0.0001
     64  N        186.4710  115.3340  273.1940 N.am  313  GLU313     -0.1979
     65  CA       187.3330  116.3490  272.6050 C.3   313  GLU313      0.1602
     66  C        187.5510  116.0980  271.1080 C.2   313  GLU313      0.2287
     67  O        187.5360  117.0420  270.3130 O.2   313  GLU313     -0.2864
     68  CB       188.6620  116.4130  273.3530 C.3   313  GLU313      0.0415
     69  CG       189.5630  117.5810  272.9650 C.3   313  GLU313      0.1163
     70  CD       190.9820  117.4120  273.4930 C.2   313  GLU313      0.3649
     71  OE1      191.1440  117.2150  274.7200 O.co2 313  GLU313     -0.2457
     72  OE2      191.9280  117.4620  272.6790 O.co2 313  GLU313     -0.2457
     73  N        184.3370  117.1910  269.4970 N.3   316  HIS316     -0.1226
     74  CA       184.3270  118.6450  269.4260 C.3   316  HIS316      0.1752
     75  C        185.1650  119.1470  268.2580 C.2   316  HIS316      0.2595
     76  O        184.7520  120.0330  267.5160 O.2   316  HIS316     -0.2718
     77  CB       184.8520  119.2880  270.7150 C.3   316  HIS316      0.0759
     78  CG       184.9790  120.7690  270.6050 C.ar  316  HIS316      0.0818
     79  ND1      183.8820  121.6020  270.5620 N.ar  316  HIS316     -0.2268
     80  CD2      186.0610  121.5550  270.4050 C.ar  316  HIS316      0.1154
     81  CE1      184.2900  122.8440  270.3820 C.ar  316  HIS316      0.1986
     82  NE2      185.6070  122.8420  270.2820 N.ar  316  HIS316     -0.2212
     83  N        186.3370  118.5550  268.1010 N.am  317  GLU317     -0.1979
     84  CA       187.3040  118.9840  267.1030 C.3   317  GLU317      0.1602
     85  C        186.8540  118.7850  265.6710 C.2   317  GLU317      0.2287
     86  O        187.4320  119.3940  264.7680 O.2   317  GLU317     -0.2864
     87  CB       188.6610  118.3190  267.3450 C.3   317  GLU317      0.0415
     88  CG       189.4450  119.0360  268.4380 C.3   317  GLU317      0.1163
     89  CD       190.7180  118.3300  268.8810 C.2   317  GLU317      0.3649
     90  OE1      191.3900  118.8820  269.7780 O.co2 317  GLU317     -0.2457
     91  OE2      191.0550  117.2430  268.3550 O.co2 317  GLU317     -0.2457
     92  N        185.6590  122.2440  264.6140 N.3   320  GLU320     -0.1245
     93  CA       186.6670  123.3050  264.5720 C.3   320  GLU320      0.1567
     94  C        187.0950  123.6240  263.1530 C.2   320  GLU320      0.2260
     95  O        186.9530  122.8040  262.2400 O.2   320  GLU320     -0.2867
     96  CB       187.9160  122.9380  265.4120 C.3   320  GLU320      0.0388
     97  CG       187.7170  122.9930  266.9300 C.3   320  GLU320      0.1160
     98  CD       188.9990  122.7210  267.7330 C.2   320  GLU320      0.3649
     99  OE1      190.0480  122.3450  267.1400 O.co2 320  GLU320     -0.2457
    100  OE2      188.9580  122.8890  268.9780 O.co2 320  GLU320     -0.2457
@<TRIPOS>BOND
     1    95    94    2
     2    94    93    1
     3    93    92    1
     4    93    96    1
     5    86    85    2
     6    96    97    1
     7    85    84    1
     8    97    98    1
     9    84    87    1
    10    84    83    1
    11    99    98   ar
    12    87    88    1
    13    76    75    2
    14    98   100   ar
    15    83    75   am
    16    75    74    1
    17    91    89   ar
    18    88    89    1
    19    89    90   ar
    20    74    73    1
    21    74    77    1
    22     7     5    1
    23     6     5    1
    24     5     2    1
    25    82    81   ar
    26    82    80   ar
    27    67    66    2
    28    81    79   ar
    29    80    78   ar
    30    79    78   ar
    31    78    77    1
    32     1     2    1
    33     2     3    1
    34    66    65    1
    35     3     4    2
    36    23    21   am
    37    59    58    2
    38    21    22    2
    39    21    20    1
    40    65    64    1
    41    65    68    1
    42    72    70   ar
    43    58    64   am
    44    58    57    1
    45    20    17    1
    46    69    68    1
    47    69    70    1
    48    70    71   ar
    49    57    56    1
    50    57    60    1
    51    62    61    1
    52    17    16    1
    53    17    18    1
    54    16    10   am
    55    19    18    2
    56    61    60    1
    57    61    63    1
    58     8     9    1
    59    50    49    2
    60    12    13    1
    61    12     9    1
    62    10     9    1
    63    10    11    2
    64    13    14    1
    65    32    30   ar
    66    32    34   ar
    67    49    48    1
    68    35    34    1
    69    30    29   ar
    70    34    33   ar
    71    15    14    1
    72    29    28    1
    73    29    31   ar
    74    48    47    1
    75    48    51    1
    76    33    31   ar
    77    28    25    1
    78    51    52    1
    79    25    24    1
    80    25    26    1
    81    44    46   ar
    82    44    42   ar
    83    46    45   ar
    84    52    53    1
    85    26    27    2
    86    42    41   ar
    87    45    43   ar
    88    53    54    1
    89    41    43   ar
    90    41    40    1
    91    54    55    1
    92    40    37    1
    93    37    38    1
    94    37    36    1
    95    39    38    2
