@<TRIPOS>MOLECULE
tmp/6eppB00.pdb
 118 112 0 0 0
SMALL
GASTEIGER

@<TRIPOS>ATOM
      1  N        176.5290  112.4790  282.9110 N.3   265  VAL265     -0.1245
      2  CA       177.3590  113.0160  281.8480 C.3   265  VAL265      0.1561
      3  C        178.1310  111.8730  281.2150 C.2   265  VAL265      0.2260
      4  O        178.2390  111.7790  279.9970 O.2   265  VAL265     -0.2867
      5  CB       178.3340  114.0650  282.3910 C.3   265  VAL265      0.0252
      6  CG1      179.4400  114.3700  281.3930 C.3   265  VAL265      0.0019
      7  CG2      177.5860  115.3320  282.7230 C.3   265  VAL265      0.0019
      8  N        177.4920  117.0190  271.4250 N.3   288  VAL288     -0.1245
      9  CA       178.5080  118.0340  271.5010 C.3   288  VAL288      0.1561
     10  C        177.8760  119.3980  271.8270 C.2   288  VAL288      0.2260
     11  O        178.3610  120.1030  272.7010 O.2   288  VAL288     -0.2867
     12  CB       179.3400  118.0630  270.2140 C.3   288  VAL288      0.0252
     13  CG1      180.3150  119.2340  270.2090 C.3   288  VAL288      0.0019
     14  CG2      180.1050  116.7560  270.0820 C.3   288  VAL288      0.0019
     15  N        176.9750  119.6320  275.4410 N.3   291  MET291     -0.1230
     16  CA       178.1470  119.7690  276.2800 C.3   291  MET291      0.1702
     17  C        178.7760  121.1360  276.1520 C.2   291  MET291      0.2592
     18  O        179.4280  121.5930  277.0890 O.2   291  MET291     -0.2718
     19  CB       179.1570  118.6860  275.9640 C.3   291  MET291      0.0401
     20  CG       178.6400  117.2800  276.2420 C.3   291  MET291      0.0596
     21  SD       178.2430  117.0350  277.9810 S.3   291  MET291     -0.1393
     22  CE       177.4640  115.4350  277.8620 C.3   291  MET291      0.0692
     23  N        178.5420  121.8040  275.0200 N.am  292  ASN292     -0.1974
     24  CA       179.0380  123.1750  274.7820 C.3   292  ASN292      0.1688
     25  C        178.0880  124.2690  275.2110 C.2   292  ASN292      0.2292
     26  O        178.4490  125.4470  275.1850 O.2   292  ASN292     -0.2864
     27  CB       179.3560  123.3790  273.3050 C.3   292  ASN292      0.1181
     28  CG       180.7220  122.8810  272.9580 C.2   292  ASN292      0.2629
     29  OD1      181.7100  123.5360  273.2480 O.2   292  ASN292     -0.2716
     30  ND2      180.7920  121.7060  272.3710 N.am  292  ASN292     -0.0877
     31  N        175.9460  123.7810  280.7110 N.3   296  VAL296     -0.1231
     32  CA       176.7180  122.5610  280.9340 C.3   296  VAL296      0.1692
     33  C        178.2250  122.8100  280.9250 C.2   296  VAL296      0.2592
     34  O        178.9380  122.2900  281.7780 O.2   296  VAL296     -0.2718
     35  CB       176.3640  121.4900  279.8770 C.3   296  VAL296      0.0266
     36  CG1      177.1740  120.2150  280.0640 C.3   296  VAL296      0.0020
     37  CG2      174.8970  121.1560  279.9710 C.3   296  VAL296      0.0020
     38  N        178.6960  123.5840  279.9460 N.am  297  TYR297     -0.1976
     39  CA       180.1300  123.8500  279.7280 C.3   297  TYR297      0.1639
     40  C        180.8400  124.3740  280.9630 C.2   297  TYR297      0.2290
     41  O        182.0050  124.0790  281.1580 O.2   297  TYR297     -0.2864
     42  CB       180.3160  124.8670  278.5650 C.3   297  TYR297      0.0560
     43  CG       181.7620  125.2240  278.2430 C.ar  297  TYR297     -0.0198
     44  CD1      182.5530  124.3890  277.4340 C.ar  297  TYR297     -0.0009
     45  CD2      182.3500  126.4040  278.7400 C.ar  297  TYR297     -0.0009
     46  CE1      183.8800  124.7170  277.1360 C.ar  297  TYR297      0.0417
     47  CE2      183.6820  126.7310  278.4610 C.ar  297  TYR297      0.0417
     48  CZ       184.4330  125.8890  277.6530 C.ar  297  TYR297      0.1957
     49  OH       185.7350  126.2020  277.3650 O.3   297  TYR297     -0.2866
     50  N        180.3990  123.5410  284.0540 N.3   299  LEU299     -0.1231
     51  CA       180.3690  122.6360  285.2030 C.3   299  LEU299      0.1693
     52  C        181.7000  121.9470  285.4140 C.2   299  LEU299      0.2592
     53  O        181.7850  120.7280  285.2970 O.2   299  LEU299     -0.2718
     54  CB       179.2810  121.5810  285.0270 C.3   299  LEU299      0.0284
     55  CG       177.8540  122.1000  284.9490 C.3   299  LEU299      0.0019
     56  CD1      176.9010  120.9840  284.5490 C.3   299  LEU299      0.0001
     57  CD2      177.4290  122.7050  286.2750 C.3   299  LEU299      0.0001
     58  N        182.7080  122.7290  285.7930 N.am  300  ASP300     -0.1974
     59  CA       184.0800  122.2560  285.9860 C.3   300  ASP300      0.1709
     60  C        184.2170  121.1700  287.0410 C.2   300  ASP300      0.2293
     61  O        185.0770  120.3020  286.8900 O.2   300  ASP300     -0.2864
     62  CB       185.0300  123.4190  286.3390 C.3   300  ASP300      0.1436
     63  CG       185.0970  124.5020  285.2450 C.2   300  ASP300      0.3671
     64  OD1      184.8970  124.2080  284.0360 O.co2 300  ASP300     -0.2456
     65  OD2      185.3510  125.6690  285.6150 O.co2 300  ASP300     -0.2456
     66  N        182.1080  118.8440  287.6130 N.3   302  THR302     -0.1203
     67  CA       181.6100  117.6230  287.0290 C.3   302  THR302      0.1994
     68  C        182.6200  117.0910  286.0160 C.2   302  THR302      0.2617
     69  O        182.9540  115.9240  286.0220 O.2   302  THR302     -0.2717
     70  CB       180.2530  117.8760  286.3760 C.3   302  THR302      0.1784
     71  OG1      179.3340  118.3850  287.3570 O.3   302  THR302     -0.2211
     72  CG2      179.7110  116.6100  285.7930 C.3   302  THR302      0.0376
     73  N        183.1040  117.9660  285.1550 N.am  303  PHE303     -0.1975
     74  CA       184.0650  117.5940  284.1350 C.3   303  PHE303      0.1639
     75  C        185.2990  116.9530  284.7320 C.2   303  PHE303      0.2290
     76  O        185.7960  115.9910  284.2170 O.2   303  PHE303     -0.2864
     77  CB       184.4690  118.8250  283.3530 C.3   303  PHE303      0.0560
     78  CG       185.2620  118.5350  282.1300 C.ar  303  PHE303     -0.0200
     79  CD1      184.6530  117.9370  281.0290 C.ar  303  PHE303     -0.0042
     80  CD2      186.6130  118.8890  282.0510 C.ar  303  PHE303     -0.0042
     81  CE1      185.3800  117.6860  279.8710 C.ar  303  PHE303     -0.0003
     82  CE2      187.3400  118.6390  280.8960 C.ar  303  PHE303     -0.0003
     83  CZ       186.7260  118.0300  279.8080 C.ar  303  PHE303     -0.0000
     84  N        185.0880  113.0970  285.3420 N.3   306  ILE306     -0.1245
     85  CA       184.7980  112.2270  284.2310 C.3   306  ILE306      0.1561
     86  C        186.0570  111.4180  283.9810 C.2   306  ILE306      0.2260
     87  O        187.1330  111.9930  283.8470 O.2   306  ILE306     -0.2867
     88  CB       184.4320  113.0400  283.0020 C.3   306  ILE306      0.0252
     89  CG1      183.0490  113.6240  283.1950 C.3   306  ILE306      0.0019
     90  CG2      184.4220  112.2030  281.7390 C.3   306  ILE306      0.0019
     91  CD1      182.8960  114.9110  282.4180 C.3   306  ILE306      0.0001
     92  N        184.9530  112.7100  274.3720 N.3   314  LEU314     -0.1231
     93  CA       184.1870  113.9270  274.1970 C.3   314  LEU314      0.1693
     94  C        185.0240  114.9720  273.5060 C.2   314  LEU314      0.2591
     95  O        184.5290  115.6420  272.6020 O.2   314  LEU314     -0.2718
     96  CB       183.6780  114.4570  275.5280 C.3   314  LEU314      0.0284
     97  CG       182.9610  115.8020  275.5080 C.3   314  LEU314      0.0019
     98  CD1      181.8160  115.8410  274.5100 C.3   314  LEU314      0.0001
     99  CD2      182.4640  116.0820  276.9070 C.3   314  LEU314      0.0001
    100  N        186.2850  115.0930  273.9110 N.am  315  GLU315     -0.1979
    101  CA       187.1670  116.1210  273.3480 C.3   315  GLU315      0.1602
    102  C        187.4020  115.8900  271.8430 C.2   315  GLU315      0.2287
    103  O        187.3560  116.8410  271.0490 O.2   315  GLU315     -0.2864
    104  CB       188.4820  116.2330  274.1420 C.3   315  GLU315      0.0415
    105  CG       188.2810  116.6750  275.6020 C.3   315  GLU315      0.1163
    106  CD       189.5490  116.6370  276.4760 C.2   315  GLU315      0.3649
    107  OE1      190.5730  115.9970  276.1080 O.co2 315  GLU315     -0.2457
    108  OE2      189.5220  117.2790  277.5540 O.co2 315  GLU315     -0.2457
    109  N        184.2380  116.9840  270.0170 N.3   318  HIS318     -0.1241
    110  CA       184.1830  118.4310  269.9210 C.3   318  HIS318      0.1621
    111  C        185.0600  118.9200  268.7720 C.2   318  HIS318      0.2264
    112  O        184.6940  119.8250  268.0320 O.2   318  HIS318     -0.2867
    113  CB       184.6450  119.0690  271.2280 C.3   318  HIS318      0.0745
    114  CG       184.8460  120.5420  271.1320 C.ar  318  HIS318      0.0817
    115  ND1      183.7940  121.4320  271.0740 N.ar  318  HIS318     -0.2268
    116  CD2      185.9780  121.2830  271.0390 C.ar  318  HIS318      0.1154
    117  CE1      184.2720  122.6580  270.9550 C.ar  318  HIS318      0.1986
    118  NE2      185.5920  122.5970  270.9380 N.ar  318  HIS318     -0.2212
@<TRIPOS>BOND
     1   112   111    2
     2   111   110    1
     3   110   109    1
     4   110   113    1
     5    14    12    1
     6    13    12    1
     7    12     9    1
     8   118   117   ar
     9   118   116   ar
    10   117   115   ar
    11   116   114   ar
    12   103   102    2
    13   115   114   ar
    14   114   113    1
    15     8     9    1
    16     9    10    1
    17    10    11    2
    18   102   101    1
    19    30    28   am
    20    95    94    2
    21    28    29    2
    22    28    27    1
    23    27    24    1
    24   101   100    1
    25   101   104    1
    26    94   100   am
    27    94    93    1
    28   104   105    1
    29    93    92    1
    30    93    96    1
    31    98    97    1
    32    24    23    1
    33    24    25    1
    34    23    17   am
    35    26    25    2
    36    15    16    1
    37    97    96    1
    38    97    99    1
    39   105   106    1
    40    19    20    1
    41    19    16    1
    42   107   106   ar
    43    17    16    1
    44    17    18    2
    45    20    21    1
    46   106   108   ar
    47    46    44   ar
    48    46    48   ar
    49    49    48    1
    50    44    43   ar
    51    48    47   ar
    52    22    21    1
    53    43    42    1
    54    43    45   ar
    55    47    45   ar
    56    42    39    1
    57    39    38    1
    58    39    40    1
    59    83    81   ar
    60    83    82   ar
    61    81    79   ar
    62    35    37    1
    63    35    36    1
    64    35    32    1
    65    38    33   am
    66     4     3    2
    67    31    32    1
    68    82    80   ar
    69    33    32    1
    70    33    34    2
    71    40    41    2
    72    79    78   ar
    73     3     2    1
    74     6     5    1
    75    90    88    1
    76     2     5    1
    77     2     1    1
    78    80    78   ar
    79    78    77    1
    80     5     7    1
    81    91    89    1
    82    88    89    1
    83    88    85    1
    84    77    74    1
    85    87    86    2
    86    86    85    1
    87    64    63   ar
    88    50    51    1
    89    74    75    1
    90    74    73    1
    91    76    75    2
    92    85    84    1
    93    56    55    1
    94    55    54    1
    95    55    57    1
    96    54    51    1
    97    73    68   am
    98    51    52    1
    99    63    65   ar
   100    63    62    1
   101    53    52    2
   102    52    58   am
   103    58    59    1
   104    72    70    1
   105    59    62    1
   106    59    60    1
   107    68    69    2
   108    68    67    1
   109    70    67    1
   110    70    71    1
   111    61    60    2
   112    67    66    1
