@<TRIPOS>MOLECULE
tmp/6eprA00.pdb
 168 161 0 0 0
SMALL
GASTEIGER

@<TRIPOS>ATOM
      1  N        -25.1540   43.9770    0.5250 N.3    29  ARG29      -0.1231
      2  CA       -25.2930   45.4140    0.7340 C.3    29  ARG29       0.1694
      3  C        -25.1770   45.7830    2.2100 C.2    29  ARG29       0.2592
      4  O        -24.6310   46.8410    2.5460 O.2    29  ARG29      -0.2718
      5  CB       -26.6180   45.9070    0.1400 C.3    29  ARG29       0.0321
      6  CG       -26.9360   47.3420    0.5190 C.3    29  ARG29       0.0489
      7  CD       -27.9050   47.9790   -0.4450 C.3    29  ARG29       0.2205
      8  NE       -29.1870   48.2590    0.1870 N.pl3  29  ARG29      -0.0865
      9  CZ       -29.5460   49.4660    0.6170 C.cat  29  ARG29       0.5346
     10  NH1      -28.7050   50.4860    0.4830 N.pl3  29  ARG29       0.1354
     11  NH2      -30.7340   49.6540    1.1830 N.pl3  29  ARG29       0.1354
     12  N        -25.6380   44.9100    3.1040 N.am   30  VAL30      -0.1966
     13  CA       -25.5560   45.1920    4.5300 C.3    30  VAL30       0.1727
     14  C        -24.1080   45.2470    5.0210 C.2    30  VAL30       0.2616
     15  O        -23.8400   45.7520    6.1210 O.2    30  VAL30      -0.2715
     16  CB       -26.3690   44.1310    5.2880 C.3    30  VAL30       0.0290
     17  CG1      -25.7050   42.7730    5.1850 C.3    30  VAL30       0.0023
     18  CG2      -26.5500   44.5180    6.7400 C.3    30  VAL30       0.0023
     19  N        -23.1600   44.7460    4.2300 N.am   31  PHE31      -0.1974
     20  CA       -21.7570   44.7400    4.6190 C.3    31  PHE31       0.1639
     21  C        -20.9410   45.8100    3.9020 C.2    31  PHE31       0.2290
     22  O        -19.7200   45.8570    4.0720 O.2    31  PHE31      -0.2864
     23  CB       -21.1490   43.3530    4.3720 C.3    31  PHE31       0.0560
     24  CG       -21.9480   42.2230    4.9650 C.ar   31  PHE31      -0.0200
     25  CD1      -22.2000   42.1770    6.3330 C.ar   31  PHE31      -0.0042
     26  CD2      -22.4610   41.2180    4.1540 C.ar   31  PHE31      -0.0042
     27  CE1      -22.9510   41.1390    6.8870 C.ar   31  PHE31      -0.0003
     28  CE2      -23.2150   40.1720    4.6950 C.ar   31  PHE31      -0.0003
     29  CZ       -23.4600   40.1300    6.0680 C.ar   31  PHE31      -0.0000
     30  N        -21.0320   49.2230    4.1140 N.3    33  LYS33      -0.1231
     31  CA       -20.7290   50.4810    4.7800 C.3    33  LYS33       0.1678
     32  C        -20.7550   50.2730    6.2840 C.2    33  LYS33       0.2434
     33  O        -21.3860   49.3300    6.7760 O.2    33  LYS33      -0.2733
     34  CB       -21.7150   51.5790    4.3500 C.3    33  LYS33       0.0284
     35  CG       -21.5250   52.0200    2.8990 C.3    33  LYS33       0.0035
     36  CD       -22.6870   52.8410    2.4200 C.3    33  LYS33       0.0206
     37  CE       -23.9510   52.0110    2.3510 C.3    33  LYS33       0.1093
     38  NZ       -23.8460   50.9070    1.3710 N.3    33  LYS33      -0.1314
     39  N        -20.0480   51.1170    7.0420 N.am   34  PRO34      -0.2718
     40  CA       -20.0610   50.9750    8.5000 C.3    34  PRO34       0.1535
     41  C        -21.4660   51.1490    9.0590 C.2    34  PRO34       0.2598
     42  O        -22.3580   51.7100    8.4240 O.2    34  PRO34      -0.2715
     43  CB       -19.1270   52.0940    8.9810 C.3    34  PRO34       0.0310
     44  CG       -18.2660   52.4100    7.8040 C.3    34  PRO34       0.0237
     45  CD       -19.1600   52.2090    6.6090 C.3    34  PRO34       0.0939
     46  N        -21.6470   50.6560   10.2760 N.am   35  VAL35      -0.1964
     47  CA       -22.9480   50.6540   10.9330 C.3    35  VAL35       0.1727
     48  C        -23.2090   52.0300   11.5390 C.2    35  VAL35       0.2616
     49  O        -22.4540   52.4910   12.4020 O.2    35  VAL35      -0.2715
     50  CB       -23.0040   49.5610   12.0070 C.3    35  VAL35       0.0290
     51  CG1      -24.1410   49.8250   12.9400 C.3    35  VAL35       0.0023
     52  CG2      -23.1300   48.1870   11.3690 C.3    35  VAL35       0.0023
     53  N        -24.2860   52.6770   11.0990 N.am   36  ASP36      -0.1971
     54  CA       -24.6690   54.0050   11.5990 C.3    36  ASP36       0.1709
     55  C        -25.1580   53.9130   13.0420 C.2    36  ASP36       0.2293
     56  O        -26.1610   53.2310   13.3040 O.2    36  ASP36      -0.2864
     57  CB       -25.7560   54.5980   10.6940 C.3    36  ASP36       0.1436
     58  CG       -26.1460   56.0200   11.0800 C.2    36  ASP36       0.3671
     59  OD1      -25.3320   56.7300   11.7110 O.co2  36  ASP36      -0.2456
     60  OD2      -27.2790   56.4270   10.7430 O.co2  36  ASP36      -0.2456
     61  N        -28.8820   54.3650   13.4890 N.3    39  GLU39      -0.1231
     62  CA       -29.8240   53.3480   13.0360 C.3    39  GLU39       0.1699
     63  C        -29.8600   52.1540   13.9880 C.2    39  GLU39       0.2592
     64  O        -30.9410   51.6560   14.3250 O.2    39  GLU39      -0.2718
     65  CB       -29.4890   52.9190   11.6070 C.3    39  GLU39       0.0402
     66  CG       -30.0690   53.8530   10.5500 C.3    39  GLU39       0.1161
     67  CD       -29.5290   53.5860    9.1520 C.2    39  GLU39       0.3649
     68  OE1      -29.2110   52.4170    8.8330 O.co2  39  GLU39      -0.2457
     69  OE2      -29.4260   54.5530    8.3670 O.co2  39  GLU39      -0.2457
     70  N        -28.6980   51.6680   14.4330 N.am   40  VAL40      -0.1980
     71  CA       -28.6360   50.6400   15.4620 C.3    40  VAL40       0.1595
     72  C        -27.6860   51.1180   16.5580 C.2    40  VAL40       0.2287
     73  O        -26.5220   51.4190   16.2810 O.2    40  VAL40      -0.2864
     74  CB       -28.2360   49.2500   14.9270 C.3    40  VAL40       0.0276
     75  CG1      -28.9860   48.9210   13.6270 C.3    40  VAL40       0.0022
     76  CG2      -26.7630   49.0520   14.7440 C.3    40  VAL40       0.0022
     77  N        -24.8720   48.3760   18.5720 N.3    43  TYR43      -0.1241
     78  CA       -23.8640   47.6460   17.8040 C.3    43  TYR43       0.1605
     79  C        -22.5060   47.7000   18.4950 C.2    43  TYR43       0.2264
     80  O        -21.8470   46.6700   18.6820 O.2    43  TYR43      -0.2867
     81  CB       -23.7660   48.2000   16.3800 C.3    43  TYR43       0.0534
     82  CG       -22.9660   47.3070   15.4490 C.ar   43  TYR43      -0.0201
     83  CD1      -23.4550   46.0630   15.0590 C.ar   43  TYR43      -0.0009
     84  CD2      -21.7090   47.7000   14.9790 C.ar   43  TYR43      -0.0009
     85  CE1      -22.7270   45.2440   14.2230 C.ar   43  TYR43       0.0417
     86  CE2      -20.9740   46.8880   14.1400 C.ar   43  TYR43       0.0417
     87  CZ       -21.4850   45.6640   13.7670 C.ar   43  TYR43       0.1957
     88  OH       -20.7630   44.8470   12.9400 O.3    43  TYR43      -0.2866
     89  N        -20.8880   39.6300   12.0040 N.3    82  ALA82      -0.1245
     90  CA       -22.3000   39.4990   11.6630 C.3    82  ALA82       0.1562
     91  C        -22.9310   38.3320   12.4140 C.2    82  ALA82       0.2260
     92  O        -24.0600   38.4420   12.9060 O.2    82  ALA82      -0.2867
     93  CB       -22.4670   39.3460   10.1450 C.3    82  ALA82       0.0290
     94  N        -23.3500   39.5000   16.1400 N.3    85  TYR85      -0.1227
     95  CA       -24.4080   40.4750   16.3680 C.3    85  TYR85       0.1736
     96  C        -25.8000   39.9260   16.0540 C.2    85  TYR85       0.2595
     97  O        -26.7880   40.5220   16.4860 O.2    85  TYR85      -0.2718
     98  CB       -24.1510   41.7370   15.5380 C.3    85  TYR85       0.0548
     99  CG       -25.0760   42.8880   15.8560 C.ar   85  TYR85      -0.0200
    100  CD1      -26.0800   43.2680   14.9680 C.ar   85  TYR85      -0.0009
    101  CD2      -24.9510   43.6000   17.0490 C.ar   85  TYR85      -0.0009
    102  CE1      -26.9290   44.3270   15.2610 C.ar   85  TYR85       0.0417
    103  CE2      -25.7990   44.6570   17.3480 C.ar   85  TYR85       0.0417
    104  CZ       -26.7810   45.0150   16.4520 C.ar   85  TYR85       0.1957
    105  OH       -27.6140   46.0680   16.7420 O.3    85  TYR85      -0.2866
    106  N        -25.9120   38.8130   15.3270 N.am   86  ASN86      -0.1974
    107  CA       -27.2060   38.2600   14.9130 C.3    86  ASN86       0.1688
    108  C        -27.3610   36.8120   15.3590 C.2    86  ASN86       0.2292
    109  O        -27.5190   35.9050   14.5290 O.2    86  ASN86      -0.2864
    110  CB       -27.3900   38.3670   13.4010 C.3    86  ASN86       0.1181
    111  CG       -27.4180   39.8060   12.9210 C.2    86  ASN86       0.2629
    112  OD1      -28.4730   40.4350   12.8870 O.2    86  ASN86      -0.2716
    113  ND2      -26.2510   40.3390   12.5490 N.am   86  ASN86      -0.0877
    114  N        -29.8850   35.4040   17.1410 N.3    88  ASP88      -0.1239
    115  CA       -31.2490   34.9770   17.4490 C.3    88  ASP88       0.1674
    116  C        -31.8520   34.1260   16.3320 C.2    88  ASP88       0.2266
    117  O        -31.3830   34.1290   15.1860 O.2    88  ASP88      -0.2867
    118  CB       -32.1390   36.1950   17.6960 C.3    88  ASP88       0.1410
    119  CG       -31.7100   36.9820   18.9120 C.2    88  ASP88       0.3668
    120  OD1      -31.0120   36.3840   19.7690 O.co2  88  ASP88      -0.2456
    121  OD2      -32.0730   38.1780   19.0130 O.co2  88  ASP88      -0.2456
    122  N        -34.6400   34.7740   15.1240 N.3    90  ASP90      -0.1239
    123  CA       -35.4130   35.7470   14.3520 C.3    90  ASP90       0.1674
    124  C        -35.0680   35.6340   12.8670 C.2    90  ASP90       0.2266
    125  O        -33.8840   35.4770   12.5270 O.2    90  ASP90      -0.2867
    126  CB       -35.0980   37.1600   14.8810 C.3    90  ASP90       0.1410
    127  CG       -35.7940   38.2980   14.1030 C.2    90  ASP90       0.3668
    128  OD1      -36.4840   39.1120   14.7530 O.co2  90  ASP90      -0.2456
    129  OD2      -35.6110   38.4420   12.8760 O.co2  90  ASP90      -0.2456
    130  N        -34.8340   37.8900   10.5830 N.3    92  GLY92      -0.1210
    131  CA       -33.8840   38.9160   10.1840 C.3    92  GLY92       0.1956
    132  C        -32.4590   38.5270   10.5300 C.2    92  GLY92       0.2611
    133  O        -31.5430   38.6910    9.7140 O.2    92  GLY92      -0.2717
    134  N        -32.2600   37.9900   11.7410 N.am   93  ASP93      -0.1973
    135  CA       -30.9600   37.4610   12.1510 C.3    93  ASP93       0.1709
    136  C        -30.5060   36.3320   11.2430 C.2    93  ASP93       0.2293
    137  O        -29.3440   36.2940   10.8160 O.2    93  ASP93      -0.2864
    138  CB       -31.0170   36.9550   13.5970 C.3    93  ASP93       0.1436
    139  CG       -31.0490   38.0720   14.6020 C.2    93  ASP93       0.3671
    140  OD1      -31.7580   39.0690   14.3480 O.co2  93  ASP93      -0.2456
    141  OD2      -30.3470   37.9620   15.6410 O.co2  93  ASP93      -0.2456
    142  N        -31.3040   35.6500    8.2410 N.3    95  LEU95      -0.1231
    143  CA       -31.0220   36.1240    6.8920 C.3    95  LEU95       0.1693
    144  C        -29.6340   36.7560    6.8130 C.2    95  LEU95       0.2591
    145  O        -28.8760   36.4910    5.8730 O.2    95  LEU95      -0.2718
    146  CB       -32.1030   37.1170    6.4640 C.3    95  LEU95       0.0284
    147  CG       -31.9380   37.8830    5.1480 C.3    95  LEU95       0.0019
    148  CD1      -31.7500   36.9250    3.9990 C.3    95  LEU95       0.0001
    149  CD2      -33.1480   38.7720    4.9150 C.3    95  LEU95       0.0001
    150  N        -29.2930   37.6090    7.7840 N.am   96  ILE96      -0.1980
    151  CA       -27.9710   38.2380    7.7830 C.3    96  ILE96       0.1595
    152  C        -26.8820   37.1930    7.9660 C.2    96  ILE96       0.2287
    153  O        -25.8300   37.2580    7.3140 O.2    96  ILE96      -0.2864
    154  CB       -27.8720   39.3360    8.8580 C.3    96  ILE96       0.0276
    155  CG1      -28.8280   40.4730    8.5390 C.3    96  ILE96       0.0022
    156  CG2      -26.4540   39.9150    8.8920 C.3    96  ILE96       0.0022
    157  CD1      -28.8160   41.5570    9.5770 C.3    96  ILE96       0.0001
    158  N        -26.2770   35.5580    4.6830 N.3    99  ARG99      -0.1245
    159  CA       -25.5390   36.4350    3.7820 C.3    99  ARG99       0.1563
    160  C        -24.0860   36.5670    4.2180 C.2    99  ARG99       0.2260
    161  O        -23.1830   36.6350    3.3780 O.2    99  ARG99      -0.2867
    162  CB       -26.2120   37.8000    3.7520 C.3    99  ARG99       0.0307
    163  CG       -27.6050   37.7660    3.1430 C.3    99  ARG99       0.0489
    164  CD       -28.3340   39.0600    3.3900 C.3    99  ARG99       0.2205
    165  NE       -29.4780   39.1750    2.4760 N.pl3  99  ARG99      -0.0865
    166  CZ       -30.3690   40.1590    2.5100 C.cat  99  ARG99       0.5346
    167  NH1      -30.2660   41.1130    3.4210 N.pl3  99  ARG99       0.1354
    168  NH2      -31.3780   40.1790    1.6400 N.pl3  99  ARG99       0.1354
@<TRIPOS>BOND
     1     7     8    1
     2     7     6    1
     3     5     6    1
     4     5     2    1
     5     8     9    2
     6    10     9    1
     7     1     2    1
     8     9    11    1
     9     2     3    1
    10    38    37    1
    11   168   166    1
    12     3     4    2
    13     3    12   am
    14    37    36    1
    15    36    35    1
    16   165   166    2
    17   165   164    1
    18   166   167    1
    19    35    34    1
    20    12    13    1
    21   163   164    1
    22   163   162    1
    23   161   160    2
    24   162   159    1
    25   159   160    1
    26   159   158    1
    27    21    22    2
    28    21    20    1
    29   148   147    1
    30    30    31    1
    31    26    28   ar
    32    26    24   ar
    33    19    20    1
    34    19    14   am
    35    34    31    1
    36    23    20    1
    37    23    24    1
    38    13    14    1
    39    13    16    1
    40    28    29   ar
    41    31    32    1
    42   149   147    1
    43    24    25   ar
    44    14    15    2
    45   147   146    1
    46    17    16    1
    47    16    18    1
    48   145   144    2
    49    29    27   ar
    50    32    33    2
    51    32    39   am
    52    25    27   ar
    53   146   143    1
    54    45    39    1
    55    45    44    1
    56   144   143    1
    57   144   150   am
    58   143   142    1
    59    39    40    1
    60   153   152    2
    61   151   150    1
    62   151   152    1
    63   151   154    1
    64    44    43    1
    65    69    67   ar
    66    42    41    2
    67    40    43    1
    68    40    41    1
    69   155   154    1
    70   155   157    1
    71    68    67   ar
    72   154   156    1
    73    41    46   am
    74    67    66    1
    75   133   132    2
    76    93    90    1
    77   131   132    1
    78   131   130    1
    79    46    47    1
    80   132   134   am
    81    66    65    1
    82    57    58    1
    83    57    54    1
    84    60    58   ar
    85   137   136    2
    86    47    48    1
    87    47    50    1
    88    58    59   ar
    89    53    48   am
    90    53    54    1
    91   136   135    1
    92    52    50    1
    93    48    49    2
    94    54    55    1
    95    65    62    1
    96    90    89    1
    97    90    91    1
    98   134   135    1
    99    50    51    1
   100   135   138    1
   101    91    92    2
   102   125   124    2
   103   113   111   am
   104   124   123    1
   105   129   127   ar
   106   112   111    2
   107   111   110    1
   108    88    87    1
   109    62    61    1
   110    62    63    1
   111    55    56    2
   112   110   107    1
   113   138   139    1
   114    75    74    1
   115    87    86   ar
   116    87    85   ar
   117    63    64    2
   118    63    70   am
   119   127   128   ar
   120   127   126    1
   121    86    84   ar
   122    85    83   ar
   123   140   139   ar
   124   123   126    1
   125   123   122    1
   126    70    71    1
   127   109   108    2
   128   139   141   ar
   129    76    74    1
   130   107   106    1
   131   107   108    1
   132    74    71    1
   133   100   102   ar
   134   100    99   ar
   135    84    82   ar
   136    83    82   ar
   137   117   116    2
   138   102   104   ar
   139   106    96   am
   140    82    81    1
   141    71    72    1
   142    98    99    1
   143    98    95    1
   144    99   101   ar
   145    96    95    1
   146    96    97    2
   147    94    95    1
   148    73    72    2
   149   116   115    1
   150    81    78    1
   151   104   105    1
   152   104   103   ar
   153   101   103   ar
   154   114   115    1
   155   115   118    1
   156   118   119    1
   157    78    79    1
   158    78    77    1
   159    79    80    2
   160   119   121   ar
   161   119   120   ar
