@<TRIPOS>MOLECULE
tmp/6epsA00.pdb
 129 123 0 0 0
SMALL
GASTEIGER

@<TRIPOS>ATOM
      1  N        -25.3990   44.8310    2.9190 N.3    30  VAL30      -0.1231
      2  CA       -25.2860   45.2300    4.3180 C.3    30  VAL30       0.1692
      3  C        -23.8350   45.3520    4.7620 C.2    30  VAL30       0.2592
      4  O        -23.5650   46.0260    5.7550 O.2    30  VAL30      -0.2718
      5  CB       -26.0480   44.2570    5.2370 C.3    30  VAL30       0.0266
      6  CG1      -27.5340   44.3710    4.9850 C.3    30  VAL30       0.0020
      7  CG2      -25.5550   42.8040    5.0420 C.3    30  VAL30       0.0020
      8  N        -22.8930   44.7330    4.0430 N.am   31  PHE31      -0.1976
      9  CA       -21.4820   44.7520    4.4130 C.3    31  PHE31       0.1639
     10  C        -20.6700   45.8070    3.6570 C.2    31  PHE31       0.2290
     11  O        -19.4340   45.8220    3.7730 O.2    31  PHE31      -0.2864
     12  CB       -20.8630   43.3720    4.1780 C.3    31  PHE31       0.0560
     13  CG       -21.6540   42.2260    4.7650 C.ar   31  PHE31      -0.0200
     14  CD1      -21.8650   42.1350    6.1350 C.ar   31  PHE31      -0.0042
     15  CD2      -22.1800   41.2470    3.9400 C.ar   31  PHE31      -0.0042
     16  CE1      -22.5770   41.0800    6.6730 C.ar   31  PHE31      -0.0003
     17  CE2      -22.9060   40.1860    4.4650 C.ar   31  PHE31      -0.0003
     18  CZ       -23.1050   40.0990    5.8310 C.ar   31  PHE31      -0.0000
     19  N        -20.7910   49.2760    3.7870 N.3    33  LYS33      -0.1231
     20  CA       -20.4770   50.5070    4.5000 C.3    33  LYS33       0.1678
     21  C        -20.4120   50.2160    5.9840 C.2    33  LYS33       0.2434
     22  O        -20.9400   49.1980    6.4490 O.2    33  LYS33      -0.2733
     23  CB       -21.5260   51.5950    4.2220 C.3    33  LYS33       0.0284
     24  CG       -21.4710   52.1280    2.7910 C.3    33  LYS33       0.0035
     25  CD       -22.6920   52.9380    2.4610 C.3    33  LYS33       0.0206
     26  CE       -23.9330   52.0710    2.4440 C.3    33  LYS33       0.1093
     27  NZ       -23.8800   51.0320    1.3910 N.3    33  LYS33      -0.1314
     28  N        -19.7570   51.0780    6.7650 N.am   34  PRO34      -0.2718
     29  CA       -19.7420   50.8770    8.2170 C.3    34  PRO34       0.1535
     30  C        -21.1470   50.9750    8.7940 C.2    34  PRO34       0.2598
     31  O        -22.0340   51.6100    8.2220 O.2    34  PRO34      -0.2715
     32  CB       -18.8420   52.0080    8.7280 C.3    34  PRO34       0.0310
     33  CG       -18.0490   52.4340    7.5350 C.3    34  PRO34       0.0237
     34  CD       -18.9560   52.2460    6.3640 C.3    34  PRO34       0.0939
     35  N        -21.3450   50.3290    9.9440 N.am   35  VAL35      -0.1964
     36  CA       -22.6440   50.3630   10.6100 C.3    35  VAL35       0.1727
     37  C        -22.9000   51.7590   11.1650 C.2    35  VAL35       0.2616
     38  O        -22.0510   52.3350   11.8610 O.2    35  VAL35      -0.2715
     39  CB       -22.7080   49.3020   11.7170 C.3    35  VAL35       0.0290
     40  CG1      -24.0170   49.4220   12.4880 C.3    35  VAL35       0.0023
     41  CG2      -22.5430   47.9080   11.1250 C.3    35  VAL35       0.0023
     42  N        -24.0740   52.3110   10.8630 N.am   36  ASP36      -0.1971
     43  CA       -24.4120   53.6690   11.2900 C.3    36  ASP36       0.1709
     44  C        -24.8840   53.6600   12.7400 C.2    36  ASP36       0.2293
     45  O        -25.8600   52.9660   13.0570 O.2    36  ASP36      -0.2864
     46  CB       -25.4960   54.2600   10.3930 C.3    36  ASP36       0.1436
     47  CG       -25.6890   55.7520   10.6110 C.2    36  ASP36       0.3671
     48  OD1      -24.8110   56.3810   11.2370 O.co2  36  ASP36      -0.2456
     49  OD2      -26.7180   56.2980   10.1600 O.co2  36  ASP36      -0.2456
     50  N        -28.2920   51.9750   14.1000 N.3    40  VAL40      -0.1245
     51  CA       -28.0720   50.7970   14.9450 C.3    40  VAL40       0.1561
     52  C        -27.2000   51.1980   16.1310 C.2    40  VAL40       0.2260
     53  O        -25.9660   51.0810   16.0590 O.2    40  VAL40      -0.2867
     54  CB       -27.4210   49.6430   14.1590 C.3    40  VAL40       0.0252
     55  CG1      -27.2100   48.4490   15.0570 C.3    40  VAL40       0.0019
     56  CG2      -28.2620   49.2400   12.9520 C.3    40  VAL40       0.0019
     57  N        -24.6840   48.5630   18.2340 N.3    43  TYR43      -0.1241
     58  CA       -23.6410   47.8210   17.5320 C.3    43  TYR43       0.1605
     59  C        -22.2730   48.1620   18.0990 C.2    43  TYR43       0.2264
     60  O        -21.4980   47.2670   18.4560 O.2    43  TYR43      -0.2867
     61  CB       -23.6970   48.1180   16.0330 C.3    43  TYR43       0.0534
     62  CG       -22.8160   47.2240   15.1830 C.ar   43  TYR43      -0.0201
     63  CD1      -23.2650   45.9850   14.7370 C.ar   43  TYR43      -0.0009
     64  CD2      -21.5370   47.6260   14.8190 C.ar   43  TYR43      -0.0009
     65  CE1      -22.4620   45.1750   13.9530 C.ar   43  TYR43       0.0417
     66  CE2      -20.7330   46.8300   14.0390 C.ar   43  TYR43       0.0417
     67  CZ       -21.1960   45.6100   13.6110 C.ar   43  TYR43       0.1957
     68  OH       -20.3850   44.8310   12.8410 O.3    43  TYR43      -0.2866
     69  N        -20.5820   39.6250   11.9560 N.3    82  ALA82      -0.1245
     70  CA       -22.0050   39.4910   11.6550 C.3    82  ALA82       0.1562
     71  C        -22.6180   38.3180   12.4070 C.2    82  ALA82       0.2260
     72  O        -23.7590   38.4060   12.8660 O.2    82  ALA82      -0.2867
     73  CB       -22.2210   39.3450   10.1470 C.3    82  ALA82       0.0290
     74  N        -23.0150   39.6410   16.0930 N.3    85  TYR85      -0.1227
     75  CA       -24.1130   40.5800   16.2480 C.3    85  TYR85       0.1736
     76  C        -25.4810   39.9500   15.9880 C.2    85  TYR85       0.2595
     77  O        -26.4920   40.5230   16.4020 O.2    85  TYR85      -0.2718
     78  CB       -23.9230   41.7860   15.3300 C.3    85  TYR85       0.0548
     79  CG       -24.9060   42.8790   15.6410 C.ar   85  TYR85      -0.0200
     80  CD1      -24.9060   43.4940   16.8850 C.ar   85  TYR85      -0.0009
     81  CD2      -25.8500   43.2840   14.7060 C.ar   85  TYR85      -0.0009
     82  CE1      -25.8150   44.4870   17.1950 C.ar   85  TYR85       0.0417
     83  CE2      -26.7630   44.2830   15.0050 C.ar   85  TYR85       0.0417
     84  CZ       -26.7410   44.8780   16.2520 C.ar   85  TYR85       0.1957
     85  OH       -27.6410   45.8660   16.5680 O.3    85  TYR85      -0.2866
     86  N        -25.5470   38.7910   15.3310 N.am   86  ASN86      -0.1974
     87  CA       -26.8200   38.1790   14.9460 C.3    86  ASN86       0.1688
     88  C        -26.8750   36.7260   15.3950 C.2    86  ASN86       0.2292
     89  O        -26.9590   35.8120   14.5660 O.2    86  ASN86      -0.2864
     90  CB       -27.0380   38.2770   13.4370 C.3    86  ASN86       0.1181
     91  CG       -27.2170   39.7010   12.9710 C.2    86  ASN86       0.2629
     92  OD1      -28.3240   40.2280   12.9810 O.2    86  ASN86      -0.2716
     93  ND2      -26.1230   40.3390   12.5580 N.am   86  ASN86      -0.0877
     94  N        -29.3250   35.1730   17.2020 N.3    88  ASP88      -0.1239
     95  CA       -30.6440   34.6810   17.5800 C.3    88  ASP88       0.1674
     96  C        -31.2730   33.8520   16.4650 C.2    88  ASP88       0.2266
     97  O        -30.7980   33.8230   15.3230 O.2    88  ASP88      -0.2867
     98  CB       -31.5630   35.8500   17.9390 C.3    88  ASP88       0.1410
     99  CG       -31.0400   36.6820   19.1040 C.2    88  ASP88       0.3668
    100  OD1      -30.4070   36.0930   20.0110 O.co2  88  ASP88      -0.2456
    101  OD2      -31.2740   37.9160   19.1140 O.co2  88  ASP88      -0.2456
    102  N        -34.1940   34.4750   15.1810 N.3    90  ASP90      -0.1239
    103  CA       -35.2460   35.0840   14.4020 C.3    90  ASP90       0.1674
    104  C        -34.7530   35.4260   12.9930 C.2    90  ASP90       0.2266
    105  O        -33.5450   35.4690   12.7360 O.2    90  ASP90      -0.2867
    106  CB       -35.8400   36.2800   15.1480 C.3    90  ASP90       0.1410
    107  CG       -34.8690   37.3760   15.3980 C.2    90  ASP90       0.3668
    108  OD1      -34.3800   37.4610   16.5480 O.co2  90  ASP90      -0.2456
    109  OD2      -34.6530   38.1810   14.4620 O.co2  90  ASP90      -0.2456
    110  N        -34.4970   37.8860   10.8930 N.3    92  GLY92      -0.1210
    111  CA       -33.5550   38.9580   10.6440 C.3    92  GLY92       0.1956
    112  C        -32.1250   38.5100   10.8680 C.2    92  GLY92       0.2611
    113  O        -31.2510   38.7470   10.0340 O.2    92  GLY92      -0.2717
    114  N        -31.8740   37.8420   11.9980 N.am   93  ASP93      -0.1973
    115  CA       -30.5330   37.3490   12.3080 C.3    93  ASP93       0.1709
    116  C        -30.1020   36.2700   11.3300 C.2    93  ASP93       0.2293
    117  O        -28.9660   36.2850   10.8340 O.2    93  ASP93      -0.2864
    118  CB       -30.4820   36.7900   13.7300 C.3    93  ASP93       0.1436
    119  CG       -30.5420   37.8690   14.7880 C.2    93  ASP93       0.3671
    120  OD1      -31.2160   38.8990   14.5650 O.co2  93  ASP93      -0.2456
    121  OD2      -29.8980   37.6850   15.8440 O.co2  93  ASP93      -0.2456
    122  N        -28.9610   37.6140    7.9360 N.3    96  ILE96      -0.1245
    123  CA       -27.6400   38.2400    7.9420 C.3    96  ILE96       0.1561
    124  C        -26.5500   37.1840    8.0320 C.2    96  ILE96       0.2260
    125  O        -25.5340   37.2710    7.3310 O.2    96  ILE96      -0.2867
    126  CB       -27.5290   39.2730    9.0800 C.3    96  ILE96       0.0252
    127  CG1      -28.5430   40.3850    8.8670 C.3    96  ILE96       0.0019
    128  CG2      -26.1410   39.9140    9.0970 C.3    96  ILE96       0.0019
    129  CD1      -28.4590   41.0070    7.4830 C.3    96  ILE96       0.0001
@<TRIPOS>BOND
     1    27    26    1
     2    26    25    1
     3    25    24    1
     4    24    23    1
     5     1     2    1
     6    10    11    2
     7    10     9    1
     8    19    20    1
     9    15    17   ar
    10    15    13   ar
    11     8     9    1
    12     8     3   am
    13    12     9    1
    14    12    13    1
    15    23    20    1
    16     2     3    1
    17     2     5    1
    18    17    18   ar
    19    20    21    1
    20     3     4    2
    21    13    14   ar
    22     6     5    1
    23     7     5    1
    24    18    16   ar
    25    21    22    2
    26    21    28   am
    27    14    16   ar
    28    34    28    1
    29    34    33    1
    30    28    29    1
    31   125   124    2
    32   129   127    1
    33    33    32    1
    34   122   123    1
    35   123   124    1
    36   123   126    1
    37    29    32    1
    38    29    30    1
    39    31    30    2
    40    30    35   am
    41   127   126    1
    42   126   128    1
    43    35    36    1
    44   113   112    2
    45    73    70    1
    46    49    47   ar
    47    46    47    1
    48    46    43    1
    49    36    37    1
    50    36    39    1
    51    47    48   ar
    52   111   112    1
    53   111   110    1
    54   117   116    2
    55    42    37   am
    56    42    43    1
    57   112   114   am
    58    41    39    1
    59    37    38    2
    60    43    44    1
    61   116   115    1
    62    70    69    1
    63    70    71    1
    64    39    40    1
    65   114   115    1
    66   115   118    1
    67    71    72    2
    68    93    91   am
    69   105   104    2
    70    44    45    2
    71    68    67    1
    72    56    54    1
    73    91    92    2
    74    91    90    1
    75   104   103    1
    76    90    87    1
    77    67    65   ar
    78    67    66   ar
    79   118   119    1
    80    65    63   ar
    81    66    64   ar
    82    50    51    1
    83    54    51    1
    84    54    55    1
    85   103   106    1
    86   103   102    1
    87   109   107   ar
    88   120   119   ar
    89    89    88    2
    90    81    83   ar
    91    81    79   ar
    92    63    62   ar
    93   119   121   ar
    94    64    62   ar
    95    51    52    1
    96    87    86    1
    97    87    88    1
    98    83    84   ar
    99   106   107    1
   100    62    61    1
   101    97    96    2
   102    78    79    1
   103    78    75    1
   104    86    76   am
   105   107   108   ar
   106    79    80   ar
   107    76    75    1
   108    76    77    2
   109    61    58    1
   110    53    52    2
   111    74    75    1
   112    84    85    1
   113    84    82   ar
   114    96    95    1
   115    80    82   ar
   116    94    95    1
   117    58    59    1
   118    58    57    1
   119    95    98    1
   120    98    99    1
   121    59    60    2
   122    99   101   ar
   123    99   100   ar
