@<TRIPOS>MOLECULE
tmp/6eptA00.pdb
 149 143 0 0 0
SMALL
GASTEIGER

@<TRIPOS>ATOM
      1  N        -24.8690   43.5720    0.4660 N.3    29  ARG29      -0.1231
      2  CA       -24.9890   45.0080    0.6700 C.3    29  ARG29       0.1694
      3  C        -24.9020   45.3700    2.1480 C.2    29  ARG29       0.2592
      4  O        -24.4000   46.4430    2.4900 O.2    29  ARG29      -0.2718
      5  CB       -26.2850   45.5310    0.0490 C.3    29  ARG29       0.0321
      6  CG       -26.3530   47.0470    0.0700 C.3    29  ARG29       0.0489
      7  CD       -27.7650   47.5870    0.1390 C.3    29  ARG29       0.2205
      8  NE       -27.8290   48.9170   -0.4610 N.pl3  29  ARG29      -0.0865
      9  CZ       -28.4340   49.1910   -1.6110 C.cat  29  ARG29       0.5346
     10  NH1      -29.0310   48.2210   -2.2880 N.pl3  29  ARG29       0.1354
     11  NH2      -28.4390   50.4320   -2.0860 N.pl3  29  ARG29       0.1354
     12  N        -25.3480   44.4810    3.0410 N.am   30  VAL30      -0.1966
     13  CA       -25.2630   44.7290    4.4820 C.3    30  VAL30       0.1727
     14  C        -23.8170   44.8960    4.9510 C.2    30  VAL30       0.2616
     15  O        -23.5730   45.4390    6.0360 O.2    30  VAL30      -0.2715
     16  CB       -25.9840   43.5730    5.2190 C.3    30  VAL30       0.0290
     17  CG1      -25.2960   42.2360    4.9510 C.3    30  VAL30       0.0023
     18  CG2      -26.0860   43.8290    6.7020 C.3    30  VAL30       0.0023
     19  N        -22.8470   44.4570    4.1520 N.am   31  PHE31      -0.1974
     20  CA       -21.4400   44.5000    4.5360 C.3    31  PHE31       0.1639
     21  C        -20.6550   45.5770    3.7950 C.2    31  PHE31       0.2290
     22  O        -19.4230   45.6140    3.9040 O.2    31  PHE31      -0.2864
     23  CB       -20.7890   43.1300    4.3020 C.3    31  PHE31       0.0560
     24  CG       -21.5350   41.9790    4.9330 C.ar   31  PHE31      -0.0200
     25  CD1      -21.7690   41.9500    6.3010 C.ar   31  PHE31      -0.0042
     26  CD2      -22.0060   40.9340    4.1550 C.ar   31  PHE31      -0.0042
     27  CE1      -22.4580   40.8960    6.8800 C.ar   31  PHE31      -0.0003
     28  CE2      -22.7010   39.8710    4.7210 C.ar   31  PHE31      -0.0003
     29  CZ       -22.9210   39.8510    6.0930 C.ar   31  PHE31      -0.0000
     30  N        -20.8170   49.0200    4.0010 N.3    33  LYS33      -0.1231
     31  CA       -20.5500   50.2670    4.7000 C.3    33  LYS33       0.1678
     32  C        -20.5200   50.0050    6.1960 C.2    33  LYS33       0.2434
     33  O        -21.0960   49.0190    6.6730 O.2    33  LYS33      -0.2733
     34  CB       -21.6080   51.3290    4.3650 C.3    33  LYS33       0.0284
     35  CG       -21.6470   51.7160    2.9150 C.3    33  LYS33       0.0035
     36  CD       -22.6800   52.7890    2.6320 C.3    33  LYS33       0.0206
     37  CE       -23.9240   52.2420    1.9670 C.3    33  LYS33       0.1093
     38  NZ       -23.6550   51.6680    0.6440 N.3    33  LYS33      -0.1314
     39  N        -19.8480   50.8620    6.9660 N.am   34  PRO34      -0.2718
     40  CA       -19.8260   50.6780    8.4220 C.3    34  PRO34       0.1535
     41  C        -21.2210   50.7750    9.0260 C.2    34  PRO34       0.2598
     42  O        -22.1320   51.3820    8.4650 O.2    34  PRO34      -0.2715
     43  CB       -18.9350   51.8240    8.9170 C.3    34  PRO34       0.0310
     44  CG       -18.1360   52.2430    7.7270 C.3    34  PRO34       0.0237
     45  CD       -19.0200   52.0040    6.5380 C.3    34  PRO34       0.0939
     46  N        -21.3750   50.1690   10.2030 N.am   35  VAL35      -0.1964
     47  CA       -22.6170   50.2990   10.9570 C.3    35  VAL35       0.1727
     48  C        -22.6770   51.6760   11.6100 C.2    35  VAL35       0.2616
     49  O        -21.6940   52.1490   12.1970 O.2    35  VAL35      -0.2715
     50  CB       -22.7210   49.1800   12.0080 C.3    35  VAL35       0.0290
     51  CG1      -23.9510   49.3780   12.8810 C.3    35  VAL35       0.0023
     52  CG2      -22.7550   47.8210   11.3310 C.3    35  VAL35       0.0023
     53  N        -23.8610   52.3380   11.5140 N.am   36  ASP36      -0.1971
     54  CA       -24.0580   53.6830   12.0600 C.3    36  ASP36       0.1709
     55  C        -24.4510   53.6040   13.5330 C.2    36  ASP36       0.2293
     56  O        -25.4110   52.9020   13.8750 O.2    36  ASP36      -0.2864
     57  CB       -25.1300   54.4340   11.2810 C.3    36  ASP36       0.1436
     58  CG       -25.1450   55.9240   11.5890 C.2    36  ASP36       0.3671
     59  OD1      -25.4910   56.3040   12.7290 O.co2  36  ASP36      -0.2456
     60  OD2      -24.8080   56.7190   10.6860 O.co2  36  ASP36      -0.2456
     61  N        -28.1650   54.5410   14.0400 N.3    39  GLU39      -0.1231
     62  CA       -29.0850   53.5230   13.5450 C.3    39  GLU39       0.1699
     63  C        -29.0310   52.2640   14.4010 C.2    39  GLU39       0.2592
     64  O        -30.0580   51.6080   14.6110 O.2    39  GLU39      -0.2718
     65  CB       -28.7700   53.1970   12.0850 C.3    39  GLU39       0.0402
     66  CG       -28.9250   54.4230   11.1840 C.3    39  GLU39       0.1161
     67  CD       -30.3520   54.4630   10.6750 C.2    39  GLU39       0.3649
     68  OE1      -31.1950   53.5880   10.9910 O.co2  39  GLU39      -0.2457
     69  OE2      -30.6800   55.4220    9.9680 O.co2  39  GLU39      -0.2457
     70  N        -27.8500   51.9070   14.9010 N.am   40  VAL40      -0.1980
     71  CA       -27.6800   50.7030   15.7150 C.3    40  VAL40       0.1595
     72  C        -26.8220   51.0320   16.9320 C.2    40  VAL40       0.2287
     73  O        -25.5900   51.1210   16.8160 O.2    40  VAL40      -0.2864
     74  CB       -27.0540   49.5600   14.9010 C.3    40  VAL40       0.0276
     75  CG1      -26.8370   48.3520   15.7870 C.3    40  VAL40       0.0022
     76  CG2      -27.9300   49.1980   13.7100 C.3    40  VAL40       0.0022
     77  N        -24.5010   47.9290   18.8080 N.3    43  TYR43      -0.1241
     78  CA       -23.5150   47.1950   18.0180 C.3    43  TYR43       0.1605
     79  C        -22.1590   47.1570   18.7150 C.2    43  TYR43       0.2264
     80  O        -21.5230   46.0980   18.7870 O.2    43  TYR43      -0.2867
     81  CB       -23.3850   47.8070   16.6210 C.3    43  TYR43       0.0534
     82  CG       -22.5820   46.9480   15.6590 C.ar   43  TYR43      -0.0201
     83  CD1      -23.0940   45.7480   15.1750 C.ar   43  TYR43      -0.0009
     84  CD2      -21.3080   47.3280   15.2560 C.ar   43  TYR43      -0.0009
     85  CE1      -22.3600   44.9550   14.2980 C.ar   43  TYR43       0.0417
     86  CE2      -20.5680   46.5440   14.3820 C.ar   43  TYR43       0.0417
     87  CZ       -21.0990   45.3660   13.9080 C.ar   43  TYR43       0.1957
     88  OH       -20.3650   44.5840   13.0490 O.3    43  TYR43      -0.2866
     89  N        -20.3850   39.5750   12.0390 N.3    82  ALA82      -0.1245
     90  CA       -21.7890   39.3500   11.7140 C.3    82  ALA82       0.1562
     91  C        -22.3620   38.1680   12.4870 C.2    82  ALA82       0.2260
     92  O        -23.5060   38.2240   12.9510 O.2    82  ALA82      -0.2867
     93  CB       -21.9370   39.1270   10.2070 C.3    82  ALA82       0.0290
     94  N        -22.8180   39.2860   16.2410 N.3    85  TYR85      -0.1227
     95  CA       -23.9140   40.2180   16.4440 C.3    85  TYR85       0.1736
     96  C        -25.2710   39.6010   16.1210 C.2    85  TYR85       0.2595
     97  O        -26.2930   40.1390   16.5600 O.2    85  TYR85      -0.2718
     98  CB       -23.6990   41.4890   15.6160 C.3    85  TYR85       0.0548
     99  CG       -24.7120   42.5650   15.9290 C.ar   85  TYR85      -0.0200
    100  CD1      -25.6670   42.9460   14.9950 C.ar   85  TYR85      -0.0009
    101  CD2      -24.7420   43.1730   17.1800 C.ar   85  TYR85      -0.0009
    102  CE1      -26.6050   43.9160   15.2870 C.ar   85  TYR85       0.0417
    103  CE2      -25.6780   44.1440   17.4780 C.ar   85  TYR85       0.0417
    104  CZ       -26.6060   44.5100   16.5300 C.ar   85  TYR85       0.1957
    105  OH       -27.5450   45.4730   16.8210 O.3    85  TYR85      -0.2866
    106  N        -25.3130   38.4740   15.4070 N.am   86  ASN86      -0.1974
    107  CA       -26.5760   37.8710   14.9670 C.3    86  ASN86       0.1688
    108  C        -26.6500   36.4070   15.3640 C.2    86  ASN86       0.2292
    109  O        -26.7360   35.5220   14.5090 O.2    86  ASN86      -0.2864
    110  CB       -26.7220   38.0300   13.4540 C.3    86  ASN86       0.1181
    111  CG       -26.9360   39.4620   13.0520 C.2    86  ASN86       0.2629
    112  OD1      -28.0490   39.9800   13.1310 O.2    86  ASN86      -0.2716
    113  ND2      -25.8630   40.1260   12.6140 N.am   86  ASN86      -0.0877
    114  N        -28.9960   34.7050   17.2710 N.3    88  ASP88      -0.1239
    115  CA       -30.2790   34.1980   17.7360 C.3    88  ASP88       0.1674
    116  C        -31.0670   33.5620   16.5890 C.2    88  ASP88       0.2266
    117  O        -30.6700   33.6140   15.4200 O.2    88  ASP88      -0.2867
    118  CB       -31.0740   35.3280   18.3850 C.3    88  ASP88       0.1410
    119  CG       -30.3400   35.9440   19.5780 C.2    88  ASP88       0.3668
    120  OD1      -29.6620   35.1840   20.2970 O.co2  88  ASP88      -0.2456
    121  OD2      -30.4490   37.1680   19.8030 O.co2  88  ASP88      -0.2456
    122  N        -33.9230   34.5110   15.4530 N.3    90  ASP90      -0.1239
    123  CA       -34.7010   35.5140   14.7340 C.3    90  ASP90       0.1674
    124  C        -34.3970   35.4450   13.2350 C.2    90  ASP90       0.2266
    125  O        -33.2300   35.2930   12.8510 O.2    90  ASP90      -0.2867
    126  CB       -34.3560   36.9070   15.2730 C.3    90  ASP90       0.1410
    127  CG       -35.2030   38.0180   14.6670 C.2    90  ASP90       0.3668
    128  OD1      -34.9940   38.3780   13.4840 O.co2  90  ASP90      -0.2456
    129  OD2      -36.0730   38.5580   15.3900 O.co2  90  ASP90      -0.2456
    130  N        -34.2010   37.6950   11.0240 N.3    92  GLY92      -0.1210
    131  CA       -33.2370   38.7100   10.6330 C.3    92  GLY92       0.1956
    132  C        -31.8110   38.2780   10.9170 C.2    92  GLY92       0.2611
    133  O        -30.9270   38.4260   10.0650 O.2    92  GLY92      -0.2717
    134  N        -31.5740   37.7310   12.1170 N.am   93  ASP93      -0.1973
    135  CA       -30.2760   37.1470   12.4480 C.3    93  ASP93       0.1709
    136  C        -29.8870   36.0650   11.4500 C.2    93  ASP93       0.2293
    137  O        -28.7660   36.0540   10.9280 O.2    93  ASP93      -0.2864
    138  CB       -30.3020   36.5370   13.8580 C.3    93  ASP93       0.1436
    139  CG       -30.2800   37.5750   14.9550 C.2    93  ASP93       0.3671
    140  OD1      -30.9480   38.6130   14.8070 O.co2  93  ASP93      -0.2456
    141  OD2      -29.5930   37.3420   15.9780 O.co2  93  ASP93      -0.2456
    142  N        -28.7750   37.3340    7.9820 N.3    96  ILE96      -0.1245
    143  CA       -27.4470   37.9430    7.9750 C.3    96  ILE96       0.1561
    144  C        -26.3600   36.8870    8.1470 C.2    96  ILE96       0.2260
    145  O        -25.3070   36.9630    7.4970 O.2    96  ILE96      -0.2867
    146  CB       -27.3690   39.0410    9.0460 C.3    96  ILE96       0.0252
    147  CG1      -28.3030   40.1760    8.6500 C.3    96  ILE96       0.0019
    148  CG2      -25.9300   39.5580    9.1710 C.3    96  ILE96       0.0019
    149  CD1      -28.6160   41.1080    9.7370 C.3    96  ILE96       0.0001
@<TRIPOS>BOND
     1    10     9    1
     2    11     9    1
     3     9     8    2
     4     8     7    1
     5     5     6    1
     6     5     2    1
     7     6     7    1
     8     1     2    1
     9    38    37    1
    10     2     3    1
    11    37    36    1
    12     3     4    2
    13     3    12   am
    14    36    35    1
    15    35    34    1
    16    12    13    1
    17    21    22    2
    18    21    20    1
    19    30    31    1
    20    19    20    1
    21    19    14   am
    22    26    28   ar
    23    26    24   ar
    24    23    20    1
    25    23    24    1
    26    34    31    1
    27    13    14    1
    28    13    16    1
    29    31    32    1
    30    28    29   ar
    31    24    25   ar
    32    17    16    1
    33    14    15    2
    34    16    18    1
    35    29    27   ar
    36    32    33    2
    37    32    39   am
    38    25    27   ar
    39    45    39    1
    40    45    44    1
    41    39    40    1
    42   145   144    2
    43    44    43    1
    44   143   142    1
    45   143   144    1
    46   143   146    1
    47    40    43    1
    48    40    41    1
    49    42    41    2
    50   147   146    1
    51   147   149    1
    52    41    46   am
    53   146   148    1
    54    69    67   ar
    55   133   132    2
    56    46    47    1
    57    93    90    1
    58   131   132    1
    59   131   130    1
    60    67    68   ar
    61    67    66    1
    62    60    58   ar
    63   132   134   am
    64   137   136    2
    65    47    48    1
    66    47    50    1
    67    66    65    1
    68    57    58    1
    69    57    54    1
    70    52    50    1
    71   136   135    1
    72    53    48   am
    73    53    54    1
    74    58    59   ar
    75    48    49    2
    76    90    89    1
    77    90    91    1
    78    50    51    1
    79    54    55    1
    80    65    62    1
    81   134   135    1
    82   135   138    1
    83    91    92    2
    84   113   111   am
    85   125   124    2
    86    88    87    1
    87   111   112    2
    88   111   110    1
    89   124   123    1
    90   110   107    1
    91   128   127   ar
    92    55    56    2
    93    62    61    1
    94    62    63    1
    95    76    74    1
    96   138   139    1
    97    87    85   ar
    98    87    86   ar
    99    85    83   ar
   100    86    84   ar
   101    63    64    2
   102    63    70   am
   103   109   108    2
   104   127   126    1
   105   127   129   ar
   106   123   126    1
   107   123   122    1
   108   140   139   ar
   109    70    71    1
   110    74    71    1
   111    74    75    1
   112   139   141   ar
   113   107   108    1
   114   107   106    1
   115   100   102   ar
   116   100    99   ar
   117    83    82   ar
   118    84    82   ar
   119   102   104   ar
   120   106    96   am
   121   117   116    2
   122    98    99    1
   123    98    95    1
   124    82    81    1
   125    71    72    1
   126    99   101   ar
   127    96    95    1
   128    96    97    2
   129    94    95    1
   130   104   105    1
   131   104   103   ar
   132   116   115    1
   133    81    78    1
   134    73    72    2
   135   101   103   ar
   136   114   115    1
   137   115   118    1
   138    78    79    1
   139    78    77    1
   140   118   119    1
   141    79    80    2
   142   119   121   ar
   143   119   120   ar
