@<TRIPOS>MOLECULE
tmp/6epuA00.pdb
 105 98 0 0 0
SMALL
GASTEIGER

@<TRIPOS>ATOM
      1  N        -25.5730   44.8470    3.1430 N.3    30  VAL30      -0.1231
      2  CA       -25.4930   45.1640    4.5630 C.3    30  VAL30       0.1692
      3  C        -24.0420   45.2620    5.0100 C.2    30  VAL30       0.2592
      4  O        -23.7390   45.8760    6.0380 O.2    30  VAL30      -0.2718
      5  CB       -26.2650   44.1040    5.3760 C.3    30  VAL30       0.0266
      6  CG1      -25.6930   42.7210    5.1360 C.3    30  VAL30       0.0020
      7  CG2      -26.2740   44.4420    6.8580 C.3    30  VAL30       0.0020
      8  N        -23.1250   44.6950    4.2350 N.am   31  PHE31      -0.1976
      9  CA       -21.7200   44.6570    4.6040 C.3    31  PHE31       0.1639
     10  C        -20.8900   45.7030    3.8830 C.2    31  PHE31       0.2290
     11  O        -19.6690   45.7140    4.0460 O.2    31  PHE31      -0.2864
     12  CB       -21.1460   43.2670    4.3280 C.3    31  PHE31       0.0560
     13  CG       -21.9290   42.1560    4.9580 C.ar   31  PHE31      -0.0200
     14  CD1      -22.1720   42.1550    6.3220 C.ar   31  PHE31      -0.0042
     15  CD2      -22.4170   41.1140    4.1870 C.ar   31  PHE31      -0.0042
     16  CE1      -22.9040   41.1340    6.9140 C.ar   31  PHE31      -0.0003
     17  CE2      -23.1430   40.0800    4.7670 C.ar   31  PHE31      -0.0003
     18  CZ       -23.3890   40.0870    6.1330 C.ar   31  PHE31      -0.0000
     19  N        -21.8820   50.4230   10.1320 N.3    35  VAL35      -0.1245
     20  CA       -23.2250   50.4480   10.6960 C.3    35  VAL35       0.1561
     21  C        -23.5180   51.8350   11.2540 C.2    35  VAL35       0.2260
     22  O        -22.7420   52.3770   12.0540 O.2    35  VAL35      -0.2867
     23  CB       -23.3650   49.3690   11.7790 C.3    35  VAL35       0.0252
     24  CG1      -24.6970   49.5080   12.4920 C.3    35  VAL35       0.0019
     25  CG2      -23.2260   47.9830   11.1650 C.3    35  VAL35       0.0019
     26  N        -28.7590   51.7060   14.1390 N.3    40  VAL40      -0.1245
     27  CA       -28.5380   50.5120   14.9520 C.3    40  VAL40       0.1561
     28  C        -27.7310   50.9020   16.1870 C.2    40  VAL40       0.2260
     29  O        -26.5080   50.6960   16.2220 O.2    40  VAL40      -0.2867
     30  CB       -27.8360   49.4110   14.1380 C.3    40  VAL40       0.0252
     31  CG1      -27.8420   48.1100   14.8900 C.3    40  VAL40       0.0019
     32  CG2      -28.5030   49.2370   12.7730 C.3    40  VAL40       0.0019
     33  N        -25.1180   48.5450   18.1450 N.3    43  TYR43      -0.1241
     34  CA       -24.0510   47.8620   17.4130 C.3    43  TYR43       0.1605
     35  C        -22.6790   48.1770   18.0020 C.2    43  TYR43       0.2264
     36  O        -21.9110   47.2620   18.3240 O.2    43  TYR43      -0.2867
     37  CB       -24.0880   48.2220   15.9290 C.3    43  TYR43       0.0534
     38  CG       -23.1960   47.3090   15.0960 C.ar   43  TYR43      -0.0201
     39  CD1      -23.5920   46.0110   14.7940 C.ar   43  TYR43      -0.0009
     40  CD2      -21.9440   47.7350   14.6500 C.ar   43  TYR43      -0.0009
     41  CE1      -22.7820   45.1670   14.0490 C.ar   43  TYR43       0.0417
     42  CE2      -21.1190   46.8980   13.9040 C.ar   43  TYR43       0.0417
     43  CZ       -21.5440   45.6170   13.6070 C.ar   43  TYR43       0.1957
     44  OH       -20.7440   44.7740   12.8690 O.3    43  TYR43      -0.2866
     45  N        -20.8340   39.5700   12.0480 N.3    82  ALA82      -0.1245
     46  CA       -22.2490   39.4380   11.7110 C.3    82  ALA82       0.1562
     47  C        -22.8800   38.2620   12.4480 C.2    82  ALA82       0.2260
     48  O        -24.0320   38.3470   12.8970 O.2    82  ALA82      -0.2867
     49  CB       -22.4160   39.2950   10.1960 C.3    82  ALA82       0.0290
     50  N        -23.3130   39.3690   16.1650 N.3    85  TYR85      -0.1227
     51  CA       -24.3800   40.3310   16.3790 C.3    85  TYR85       0.1736
     52  C        -25.7640   39.7610   16.0870 C.2    85  TYR85       0.2595
     53  O        -26.7580   40.3060   16.5800 O.2    85  TYR85      -0.2718
     54  CB       -24.1560   41.5650   15.5100 C.3    85  TYR85       0.0548
     55  CG       -25.0790   42.6980   15.8640 C.ar   85  TYR85      -0.0200
     56  CD1      -24.9480   43.3710   17.0730 C.ar   85  TYR85      -0.0009
     57  CD2      -26.0960   43.0830   15.0040 C.ar   85  TYR85      -0.0009
     58  CE1      -25.8030   44.4030   17.4100 C.ar   85  TYR85       0.0417
     59  CE2      -26.9560   44.1160   15.3330 C.ar   85  TYR85       0.0417
     60  CZ       -26.8020   44.7700   16.5360 C.ar   85  TYR85       0.1957
     61  OH       -27.6520   45.7960   16.8660 O.3    85  TYR85      -0.2866
     62  N        -25.8590   38.6870   15.3080 N.am   86  ASN86      -0.1974
     63  CA       -27.1460   38.1210   14.8980 C.3    86  ASN86       0.1688
     64  C        -27.2630   36.6620   15.3220 C.2    86  ASN86       0.2292
     65  O        -27.4080   35.7690   14.4800 O.2    86  ASN86      -0.2864
     66  CB       -27.3350   38.2600   13.3890 C.3    86  ASN86       0.1181
     67  CG       -27.4170   39.7010   12.9400 C.2    86  ASN86       0.2629
     68  OD1      -28.4740   40.3220   13.0090 O.2    86  ASN86      -0.2716
     69  ND2      -26.2990   40.2400   12.4500 N.am   86  ASN86      -0.0877
     70  N        -29.7350   35.1670   17.0880 N.3    88  ASP88      -0.1239
     71  CA       -31.0830   34.7380   17.4450 C.3    88  ASP88       0.1674
     72  C        -31.6890   33.8650   16.3520 C.2    88  ASP88       0.2266
     73  O        -31.2350   33.8550   15.2050 O.2    88  ASP88      -0.2867
     74  CB       -31.9900   35.9450   17.6730 C.3    88  ASP88       0.1410
     75  CG       -31.5770   36.7700   18.8730 C.2    88  ASP88       0.3668
     76  OD1      -30.8820   36.2160   19.7520 O.co2  88  ASP88      -0.2456
     77  OD2      -31.9560   37.9630   18.9380 O.co2  88  ASP88      -0.2456
     78  N        -34.5180   34.4930   15.1580 N.3    90  ASP90      -0.1239
     79  CA       -35.4030   35.3870   14.4170 C.3    90  ASP90       0.1674
     80  C        -35.0110   35.4410   12.9400 C.2    90  ASP90       0.2266
     81  O        -33.8170   35.4150   12.6140 O.2    90  ASP90      -0.2867
     82  CB       -35.3420   36.7980   15.0130 C.3    90  ASP90       0.1410
     83  CG       -35.8310   36.8510   16.4560 C.2    90  ASP90       0.3668
     84  OD1      -36.7000   37.6980   16.7590 O.co2  90  ASP90      -0.2456
     85  OD2      -35.3500   36.0480   17.2890 O.co2  90  ASP90      -0.2456
     86  N        -34.8420   37.8630   10.8460 N.3    92  GLY92      -0.1210
     87  CA       -33.9480   38.9660   10.5290 C.3    92  GLY92       0.1956
     88  C        -32.5020   38.6110   10.8110 C.2    92  GLY92       0.2611
     89  O        -31.6100   38.9210   10.0180 O.2    92  GLY92      -0.2717
     90  N        -32.2630   37.9240   11.9330 N.am   93  ASP93      -0.1973
     91  CA       -30.9290   37.4410   12.2780 C.3    93  ASP93       0.1709
     92  C        -30.4860   36.3220   11.3430 C.2    93  ASP93       0.2293
     93  O        -29.3400   36.3020   10.8830 O.2    93  ASP93      -0.2864
     94  CB       -30.9120   36.9390   13.7260 C.3    93  ASP93       0.1436
     95  CG       -30.9320   38.0640   14.7440 C.2    93  ASP93       0.3671
     96  OD1      -31.5510   39.1120   14.4710 O.co2  93  ASP93      -0.2456
     97  OD2      -30.3070   37.9020   15.8180 O.co2  93  ASP93      -0.2456
     98  N        -29.2410   37.5840    7.8980 N.3    96  ILE96      -0.1245
     99  CA       -27.9170   38.2000    7.8720 C.3    96  ILE96       0.1561
    100  C        -26.8320   37.1520    8.0710 C.2    96  ILE96       0.2260
    101  O        -25.7700   37.2210    7.4370 O.2    96  ILE96      -0.2867
    102  CB       -27.8350   39.3280    8.9120 C.3    96  ILE96       0.0252
    103  CG1      -28.8700   40.3950    8.5710 C.3    96  ILE96       0.0019
    104  CG2      -26.4260   39.9490    8.9170 C.3    96  ILE96       0.0019
    105  CD1      -28.9750   41.4720    9.6050 C.3    96  ILE96       0.0001
@<TRIPOS>BOND
     1     1     2    1
     2    10    11    2
     3    10     9    1
     4    15    17   ar
     5    15    13   ar
     6     8     9    1
     7     8     3   am
     8    12     9    1
     9    12    13    1
    10     2     3    1
    11     2     5    1
    12    17    18   ar
    13    13    14   ar
    14     3     4    2
    15     6     5    1
    16     5     7    1
    17    18    16   ar
    18    14    16   ar
    19   101   100    2
    20    99    98    1
    21    99   100    1
    22    99   102    1
    23   103   102    1
    24   103   105    1
    25   102   104    1
    26    89    88    2
    27    19    20    1
    28    49    46    1
    29    87    88    1
    30    87    86    1
    31    20    21    1
    32    20    23    1
    33    88    90   am
    34    93    92    2
    35    25    23    1
    36    21    22    2
    37    92    91    1
    38    46    45    1
    39    46    47    1
    40    23    24    1
    41    90    91    1
    42    91    94    1
    43    47    48    2
    44    69    67   am
    45    81    80    2
    46    32    30    1
    47    44    43    1
    48    80    79    1
    49    67    68    2
    50    67    66    1
    51    66    63    1
    52    43    42   ar
    53    43    41   ar
    54    94    95    1
    55    42    40   ar
    56    41    39   ar
    57    30    31    1
    58    30    27    1
    59    26    27    1
    60    79    82    1
    61    79    78    1
    62    96    95   ar
    63    65    64    2
    64    40    38   ar
    65    95    97   ar
    66    39    38   ar
    67    63    62    1
    68    63    64    1
    69    27    28    1
    70    57    59   ar
    71    57    55   ar
    72    82    83    1
    73    38    37    1
    74    73    72    2
    75    62    52   am
    76    59    60   ar
    77    54    55    1
    78    54    51    1
    79    55    56   ar
    80    37    34    1
    81    52    51    1
    82    52    53    2
    83    50    51    1
    84    28    29    2
    85    72    71    1
    86    83    84   ar
    87    83    85   ar
    88    60    61    1
    89    60    58   ar
    90    56    58   ar
    91    70    71    1
    92    34    35    1
    93    34    33    1
    94    71    74    1
    95    74    75    1
    96    35    36    2
    97    75    77   ar
    98    75    76   ar
