@<TRIPOS>MOLECULE
tmp/6epvA00.pdb
 98 92 0 0 0
SMALL
GASTEIGER

@<TRIPOS>ATOM
      1  N         25.4160  -44.8210  141.0000 N.3    30  VAL30      -0.1231
      2  CA        25.3160  -45.1810  142.4140 C.3    30  VAL30       0.1692
      3  C         23.8730  -45.2220  142.8940 C.2    30  VAL30       0.2592
      4  O         23.5940  -45.7930  143.9560 O.2    30  VAL30      -0.2718
      5  CB        26.1150  -44.2160  143.3080 C.3    30  VAL30       0.0266
      6  CG1       27.6080  -44.3930  143.0670 C.3    30  VAL30       0.0020
      7  CG2       25.6680  -42.7650  143.0810 C.3    30  VAL30       0.0020
      8  N         22.9410  -44.6450  142.1350 N.am   31  PHE31      -0.1976
      9  CA        21.5360  -44.6350  142.5180 C.3    31  PHE31       0.1639
     10  C         20.7010  -45.6690  141.7630 C.2    31  PHE31       0.2290
     11  O         19.4750  -45.6650  141.8970 O.2    31  PHE31      -0.2864
     12  CB        20.9490  -43.2360  142.3050 C.3    31  PHE31       0.0560
     13  CG        21.7290  -42.1380  142.9790 C.ar   31  PHE31      -0.0200
     14  CD1       22.0000  -42.1910  144.3470 C.ar   31  PHE31      -0.0042
     15  CD2       22.2010  -41.0610  142.2410 C.ar   31  PHE31      -0.0042
     16  CE1       22.7190  -41.1720  144.9650 C.ar   31  PHE31      -0.0003
     17  CE2       22.9270  -40.0370  142.8460 C.ar   31  PHE31      -0.0003
     18  CZ        23.1870  -40.0910  144.2130 C.ar   31  PHE31      -0.0000
     19  N         20.7240  -49.1380  141.8640 N.3    33  LYS33      -0.1245
     20  CA        20.4150  -50.4090  142.4970 C.3    33  LYS33       0.1561
     21  C         20.3530  -50.2510  144.0090 C.2    33  LYS33       0.2260
     22  O         20.8900  -49.2830  144.5620 O.2    33  LYS33      -0.2867
     23  CB        21.4600  -51.4750  142.1230 C.3    33  LYS33       0.0271
     24  CG        21.2860  -52.0260  140.7130 C.3    33  LYS33       0.0035
     25  CD        19.8770  -52.6000  140.5460 C.3    33  LYS33       0.0206
     26  CE        19.7350  -53.5690  139.3590 C.3    33  LYS33       0.1093
     27  NZ        19.4320  -54.9790  139.7850 N.3    33  LYS33      -0.1314
     28  N         21.2220  -50.8300  147.9940 N.3    35  VAL35      -0.1245
     29  CA        22.5030  -50.8960  148.6910 C.3    35  VAL35       0.1561
     30  C         22.6800  -52.2970  149.2760 C.2    35  VAL35       0.2260
     31  O         21.9660  -52.6890  150.2020 O.2    35  VAL35      -0.2867
     32  CB        22.5970  -49.8280  149.7850 C.3    35  VAL35       0.0252
     33  CG1       23.8490  -50.0320  150.6230 C.3    35  VAL35       0.0019
     34  CG2       22.5800  -48.4480  149.1660 C.3    35  VAL35       0.0019
     35  N         27.9590  -52.1670  152.2930 N.3    40  VAL40      -0.1245
     36  CA        27.6720  -50.9980  153.1210 C.3    40  VAL40       0.1561
     37  C         26.8240  -51.4150  154.3170 C.2    40  VAL40       0.2260
     38  O         25.5930  -51.2630  154.2890 O.2    40  VAL40      -0.2867
     39  CB        26.9740  -49.9000  152.3040 C.3    40  VAL40       0.0252
     40  CG1       27.0940  -48.5840  153.0040 C.3    40  VAL40       0.0019
     41  CG2       27.5710  -49.8020  150.9100 C.3    40  VAL40       0.0019
     42  N         24.4880  -48.6570  156.1340 N.3    43  TYR43      -0.1241
     43  CA        23.4610  -47.9520  155.3710 C.3    43  TYR43       0.1605
     44  C         22.0680  -48.3230  155.8580 C.2    43  TYR43       0.2264
     45  O         21.2590  -47.4470  156.1900 O.2    43  TYR43      -0.2867
     46  CB        23.5990  -48.2560  153.8790 C.3    43  TYR43       0.0534
     47  CG        22.7220  -47.3790  153.0060 C.ar   43  TYR43      -0.0201
     48  CD1       23.1520  -46.1170  152.6110 C.ar   43  TYR43      -0.0009
     49  CD2       21.4630  -47.8040  152.5930 C.ar   43  TYR43      -0.0009
     50  CE1       22.3650  -45.3060  151.8180 C.ar   43  TYR43       0.0417
     51  CE2       20.6600  -46.9940  151.7980 C.ar   43  TYR43       0.0417
     52  CZ        21.1210  -45.7470  151.4160 C.ar   43  TYR43       0.1957
     53  OH        20.3570  -44.9230  150.6240 O.3    43  TYR43      -0.2866
     54  N         20.6130  -39.5220  150.0460 N.3    82  ALA82      -0.1245
     55  CA        22.0280  -39.3590  149.7270 C.3    82  ALA82       0.1562
     56  C         22.6460  -38.2070  150.5110 C.2    82  ALA82       0.2260
     57  O         23.7840  -38.3140  150.9810 O.2    82  ALA82      -0.2867
     58  CB        22.1910  -39.1420  148.2160 C.3    82  ALA82       0.0290
     59  N         23.0370  -39.4550  154.1150 N.3    85  TYR85      -0.1227
     60  CA        24.0820  -40.4560  154.2600 C.3    85  TYR85       0.1736
     61  C         25.4790  -39.9090  153.9860 C.2    85  TYR85       0.2595
     62  O         26.4610  -40.5600  154.3660 O.2    85  TYR85      -0.2718
     63  CB        23.8060  -41.6440  153.3390 C.3    85  TYR85       0.0548
     64  CG        24.7350  -42.7910  153.5910 C.ar   85  TYR85      -0.0200
     65  CD1       24.6600  -43.5190  154.7730 C.ar   85  TYR85      -0.0009
     66  CD2       25.7150  -43.1270  152.6720 C.ar   85  TYR85      -0.0009
     67  CE1       25.5200  -44.5660  155.0190 C.ar   85  TYR85       0.0417
     68  CE2       26.5810  -44.1730  152.9100 C.ar   85  TYR85       0.0417
     69  CZ        26.4790  -44.8860  154.0860 C.ar   85  TYR85       0.1957
     70  OH        27.3450  -45.9230  154.3260 O.3    85  TYR85      -0.2866
     71  N         25.5910  -38.7340  153.3630 N.am   86  ASN86      -0.1974
     72  CA        26.8770  -38.1510  152.9610 C.3    86  ASN86       0.1688
     73  C         27.0140  -36.7290  153.4910 C.2    86  ASN86       0.2292
     74  O         27.1240  -35.7750  152.7190 O.2    86  ASN86      -0.2864
     75  CB        27.0200  -38.1640  151.4340 C.3    86  ASN86       0.1181
     76  CG        27.2110  -39.5520  150.8800 C.2    86  ASN86       0.2629
     77  OD1       28.3290  -40.0540  150.8300 O.2    86  ASN86      -0.2716
     78  ND2       26.1140  -40.1870  150.4470 N.am   86  ASN86      -0.0877
     79  N         34.5660  -37.6730  148.8180 N.3    92  GLY92      -0.1210
     80  CA        33.6610  -38.7650  148.4970 C.3    92  GLY92       0.1956
     81  C         32.2160  -38.4220  148.8180 C.2    92  GLY92       0.2611
     82  O         31.3110  -38.6780  148.0160 O.2    92  GLY92      -0.2717
     83  N         31.9880  -37.8130  149.9880 N.am   93  ASP93      -0.1973
     84  CA        30.6630  -37.3140  150.3460 C.3    93  ASP93       0.1709
     85  C         30.2070  -36.2250  149.3910 C.2    93  ASP93       0.2293
     86  O         29.0550  -36.2250  148.9380 O.2    93  ASP93      -0.2864
     87  CB        30.6600  -36.7530  151.7750 C.3    93  ASP93       0.1436
     88  CG        30.8520  -37.8210  152.8290 C.2    93  ASP93       0.3671
     89  OD1       31.7710  -38.6560  152.6640 O.co2  93  ASP93      -0.2456
     90  OD2       30.0780  -37.8210  153.8210 O.co2  93  ASP93      -0.2456
     91  N         28.9810  -37.5680  145.9520 N.3    96  ILE96      -0.1245
     92  CA        27.6600  -38.1940  145.9460 C.3    96  ILE96       0.1561
     93  C         26.5680  -37.1470  146.1250 C.2    96  ILE96       0.2260
     94  O         25.5140  -37.2130  145.4710 O.2    96  ILE96      -0.2867
     95  CB        27.5730  -39.3040  147.0090 C.3    96  ILE96       0.0252
     96  CG1       28.6380  -40.3690  146.7470 C.3    96  ILE96       0.0019
     97  CG2       26.1700  -39.9570  146.9960 C.3    96  ILE96       0.0019
     98  CD1       28.6520  -40.8700  145.3060 C.3    96  ILE96       0.0001
@<TRIPOS>BOND
     1    26    27    1
     2    26    25    1
     3    25    24    1
     4    24    23    1
     5     1     2    1
     6    10    11    2
     7    10     9    1
     8    19    20    1
     9    23    20    1
    10     8     9    1
    11     8     3   am
    12    15    17   ar
    13    15    13   ar
    14    12     9    1
    15    12    13    1
    16     2     3    1
    17     2     5    1
    18    20    21    1
    19    17    18   ar
    20     3     4    2
    21    13    14   ar
    22     6     5    1
    23     7     5    1
    24    21    22    2
    25    18    16   ar
    26    14    16   ar
    27    98    96    1
    28    94    93    2
    29    92    91    1
    30    92    93    1
    31    92    95    1
    32    96    95    1
    33    97    95    1
    34    28    29    1
    35    82    81    2
    36    58    55    1
    37    80    81    1
    38    80    79    1
    39    29    30    1
    40    29    32    1
    41    81    83   am
    42    86    85    2
    43    34    32    1
    44    30    31    2
    45    85    84    1
    46    55    54    1
    47    55    56    1
    48    32    33    1
    49    83    84    1
    50    84    87    1
    51    78    76   am
    52    56    57    2
    53    53    52    1
    54    77    76    2
    55    76    75    1
    56    41    39    1
    57    52    51   ar
    58    52    50   ar
    59    75    72    1
    60    87    88    1
    61    51    49   ar
    62    50    48   ar
    63    35    36    1
    64    39    40    1
    65    39    36    1
    66    49    47   ar
    67    48    47   ar
    68    89    88   ar
    69    66    68   ar
    70    66    64   ar
    71    74    73    2
    72    88    90   ar
    73    68    69   ar
    74    72    71    1
    75    72    73    1
    76    47    46    1
    77    36    37    1
    78    63    64    1
    79    63    60    1
    80    71    61   am
    81    64    65   ar
    82    46    43    1
    83    61    60    1
    84    61    62    2
    85    69    70    1
    86    69    67   ar
    87    59    60    1
    88    38    37    2
    89    65    67   ar
    90    43    44    1
    91    43    42    1
    92    44    45    2
