@<TRIPOS>MOLECULE
tmp/6epwA00.pdb
 156 152 0 0 0
SMALL
GASTEIGER

@<TRIPOS>ATOM
      1  N         24.3780  -44.1080  140.0890 N.3    29  ARG29      -0.1231
      2  CA        24.5000  -45.5530  140.2470 C.3    29  ARG29       0.1694
      3  C         24.2910  -45.9820  141.6960 C.2    29  ARG29       0.2592
      4  O         23.6810  -47.0250  141.9540 O.2    29  ARG29      -0.2718
      5  CB        25.8650  -46.0180  139.7480 C.3    29  ARG29       0.0321
      6  CG        26.1300  -47.5350  139.8920 C.3    29  ARG29       0.0489
      7  CD        27.6350  -47.8190  139.7330 C.3    29  ARG29       0.2205
      8  NE        28.3910  -47.2720  140.8500 N.pl3  29  ARG29      -0.0865
      9  CZ        29.4090  -46.4370  140.6400 C.cat  29  ARG29       0.5346
     10  NH1       29.8050  -46.0740  139.4190 N.pl3  29  ARG29       0.1354
     11  NH2       30.0180  -45.9180  141.6890 N.pl3  29  ARG29       0.1354
     12  N         24.7830  -45.1940  142.6540 N.am   30  VAL30      -0.1966
     13  CA        24.6600  -45.5830  144.0620 C.3    30  VAL30       0.1727
     14  C         23.2110  -45.6420  144.5220 C.2    30  VAL30       0.2616
     15  O         22.9160  -46.2640  145.5530 O.2    30  VAL30      -0.2715
     16  CB        25.4510  -44.6230  144.9730 C.3    30  VAL30       0.0290
     17  CG1       26.9540  -44.7270  144.6850 C.3    30  VAL30       0.0023
     18  CG2       24.9460  -43.1840  144.8140 C.3    30  VAL30       0.0023
     19  N         22.2960  -44.9870  143.8040 N.am   31  PHE31      -0.1974
     20  CA        20.8860  -44.9510  144.1770 C.3    31  PHE31       0.1639
     21  C         20.0340  -45.9650  143.4160 C.2    31  PHE31       0.2290
     22  O         18.8030  -45.9570  143.5560 O.2    31  PHE31      -0.2864
     23  CB        20.3200  -43.5450  143.9590 C.3    31  PHE31       0.0560
     24  CG        21.1530  -42.4490  144.5710 C.ar   31  PHE31      -0.0200
     25  CD1       21.4060  -42.4280  145.9380 C.ar   31  PHE31      -0.0042
     26  CD2       21.7010  -41.4490  143.7700 C.ar   31  PHE31      -0.0042
     27  CE1       22.1800  -41.4330  146.4990 C.ar   31  PHE31      -0.0003
     28  CE2       22.4750  -40.4320  144.3280 C.ar   31  PHE31      -0.0003
     29  CZ        22.7200  -40.4330  145.7050 C.ar   31  PHE31      -0.0000
     30  N         19.9740  -49.4100  143.5350 N.3    33  LYS33      -0.1231
     31  CA        19.5710  -50.6560  144.1710 C.3    33  LYS33       0.1678
     32  C         19.4580  -50.4800  145.6810 C.2    33  LYS33       0.2434
     33  O         20.0710  -49.5730  146.2630 O.2    33  LYS33      -0.2733
     34  CB        20.5690  -51.7840  143.8630 C.3    33  LYS33       0.0284
     35  CG        20.4810  -52.3380  142.4450 C.3    33  LYS33       0.0035
     36  CD        21.8800  -52.4560  141.8310 C.3    33  LYS33       0.0206
     37  CE        21.8660  -52.2770  140.3070 C.3    33  LYS33       0.1093
     38  NZ        22.9210  -51.3300  139.7970 N.3    33  LYS33      -0.1314
     39  N         18.6500  -51.3170  146.3320 N.am   34  PRO34      -0.2718
     40  CA        18.5410  -51.2530  147.7960 C.3    34  PRO34       0.1535
     41  C         19.8970  -51.4520  148.4570 C.2    34  PRO34       0.2598
     42  O         20.7410  -52.1980  147.9650 O.2    34  PRO34      -0.2715
     43  CB        17.5810  -52.4000  148.1340 C.3    34  PRO34       0.0310
     44  CG        16.7830  -52.6350  146.8730 C.3    34  PRO34       0.0237
     45  CD        17.7240  -52.2990  145.7320 C.3    34  PRO34       0.0939
     46  N         20.0910  -50.7920  149.6010 N.am   35  VAL35      -0.1964
     47  CA        21.3580  -50.9070  150.3200 C.3    35  VAL35       0.1727
     48  C         21.5580  -52.3370  150.8090 C.2    35  VAL35       0.2616
     49  O         20.6050  -53.0220  151.2030 O.2    35  VAL35      -0.2715
     50  CB        21.4010  -49.8970  151.4790 C.3    35  VAL35       0.0290
     51  CG1       22.4600  -50.2580  152.4620 C.3    35  VAL35       0.0023
     52  CG2       21.6540  -48.5020  150.9440 C.3    35  VAL35       0.0023
     53  N         22.8080  -52.8040  150.7550 N.am   36  ASP36      -0.1971
     54  CA        23.1910  -54.1080  151.2790 C.3    36  ASP36       0.1709
     55  C         23.7730  -53.9100  152.6700 C.2    36  ASP36       0.2293
     56  O         24.8720  -53.3480  152.7940 O.2    36  ASP36      -0.2864
     57  CB        24.2130  -54.7860  150.3630 C.3    36  ASP36       0.1436
     58  CG        24.6160  -56.1700  150.8530 C.2    36  ASP36       0.3671
     59  OD1       23.9540  -56.7130  151.7660 O.co2  36  ASP36      -0.2456
     60  OD2       25.6090  -56.7160  150.3260 O.co2  36  ASP36      -0.2456
     61  N         27.2850  -54.3850  153.4870 N.3    39  GLU39      -0.1231
     62  CA        28.2450  -53.3880  153.0310 C.3    39  GLU39       0.1699
     63  C         28.2360  -52.1030  153.8500 C.2    39  GLU39       0.2592
     64  O         29.2700  -51.4300  153.9250 O.2    39  GLU39      -0.2718
     65  CB        27.9900  -53.0550  151.5620 C.3    39  GLU39       0.0402
     66  CG        28.0520  -54.2600  150.6480 C.3    39  GLU39       0.1161
     67  CD        29.1860  -54.1670  149.6500 C.2    39  GLU39       0.3649
     68  OE1       28.9100  -54.1780  148.4300 O.co2  39  GLU39      -0.2457
     69  OE2       30.3530  -54.0740  150.0890 O.co2  39  GLU39      -0.2457
     70  N         27.1120  -51.7240  154.4490 N.am   40  VAL40      -0.1980
     71  CA        27.1050  -50.6100  155.4010 C.3    40  VAL40       0.1595
     72  C         26.2250  -50.9680  156.5930 C.2    40  VAL40       0.2287
     73  O         25.0510  -50.5750  156.6320 O.2    40  VAL40      -0.2864
     74  CB        26.6390  -49.3020  154.7420 C.3    40  VAL40       0.0276
     75  CG1       27.7780  -48.6520  153.9930 C.3    40  VAL40       0.0022
     76  CG2       25.5020  -49.5700  153.7980 C.3    40  VAL40       0.0022
     77  N         25.7660  -49.9890  159.6240 N.3    42  ASP42      -0.1225
     78  CA        25.1290  -48.9270  160.3910 C.3    42  ASP42       0.1805
     79  C         23.9930  -48.2370  159.6370 C.2    42  ASP42       0.2597
     80  O         23.2830  -47.4150  160.2310 O.2    42  ASP42      -0.2718
     81  CB        26.1760  -47.8990  160.7930 C.3    42  ASP42       0.1424
     82  CG        26.8580  -47.2880  159.5950 C.2    42  ASP42       0.3668
     83  OD1       27.1140  -48.0340  158.6240 O.co2  42  ASP42      -0.2456
     84  OD2       27.1390  -46.0700  159.6290 O.co2  42  ASP42      -0.2456
     85  N         23.8020  -48.5570  158.3550 N.am   43  TYR43      -0.1976
     86  CA        22.7650  -47.9080  157.5570 C.3    43  TYR43       0.1639
     87  C         21.3750  -48.2100  158.1050 C.2    43  TYR43       0.2290
     88  O         20.5280  -47.3150  158.2270 O.2    43  TYR43      -0.2864
     89  CB        22.8810  -48.3670  156.0980 C.3    43  TYR43       0.0560
     90  CG        22.0600  -47.5480  155.1340 C.ar   43  TYR43      -0.0198
     91  CD1       22.5900  -46.4080  154.5510 C.ar   43  TYR43      -0.0009
     92  CD2       20.7620  -47.9190  154.7920 C.ar   43  TYR43      -0.0009
     93  CE1       21.8610  -45.6510  153.6640 C.ar   43  TYR43       0.0417
     94  CE2       20.0070  -47.1530  153.8920 C.ar   43  TYR43       0.0417
     95  CZ        20.5720  -46.0160  153.3340 C.ar   43  TYR43       0.1957
     96  OH        19.8750  -45.2310  152.4290 O.3    43  TYR43      -0.2866
     97  N         20.1510  -40.0390  151.7290 N.3    82  ALA82      -0.1245
     98  CA        21.5700  -39.9030  151.4100 C.3    82  ALA82       0.1562
     99  C         22.2110  -38.7860  152.2250 C.2    82  ALA82       0.2260
    100  O         23.3320  -38.9430  152.7290 O.2    82  ALA82      -0.2867
    101  CB        21.7460  -39.6580  149.8940 C.3    82  ALA82       0.0290
    102  N         22.4490  -40.0680  155.9200 N.3    85  TYR85      -0.1227
    103  CA        23.4850  -41.0590  156.1630 C.3    85  TYR85       0.1736
    104  C         24.8920  -40.5110  155.9110 C.2    85  TYR85       0.2595
    105  O         25.8670  -41.0880  156.4130 O.2    85  TYR85      -0.2718
    106  CB        23.2360  -42.3000  155.3090 C.3    85  TYR85       0.0548
    107  CG        24.2380  -43.3890  155.5790 C.ar   85  TYR85      -0.0200
    108  CD1       24.2820  -44.0330  156.8240 C.ar   85  TYR85      -0.0009
    109  CD2       25.1590  -43.7550  154.6140 C.ar   85  TYR85      -0.0009
    110  CE1       25.2200  -45.0270  157.0770 C.ar   85  TYR85       0.0417
    111  CE2       26.1000  -44.7350  154.8530 C.ar   85  TYR85       0.0417
    112  CZ        26.1330  -45.3680  156.0860 C.ar   85  TYR85       0.1957
    113  OH        27.0760  -46.3480  156.3120 O.3    85  TYR85      -0.2866
    114  N         25.0140  -39.3970  155.1840 N.am   86  ASN86      -0.1961
    115  CA        26.3130  -38.8450  154.7710 C.3    86  ASN86       0.1804
    116  C         26.4390  -37.3810  155.1850 C.2    86  ASN86       0.2463
    117  O         26.6650  -36.5010  154.3430 O.2    86  ASN86      -0.2730
    118  CB        26.4970  -38.9830  153.2560 C.3    86  ASN86       0.1195
    119  CG        26.6390  -40.4150  152.8240 C.2    86  ASN86       0.2630
    120  OD1       27.6930  -41.0250  153.0160 O.2    86  ASN86      -0.2716
    121  ND2       25.5730  -40.9780  152.2410 N.am   86  ASN86      -0.0877
    122  N         26.3370  -37.0830  156.4860 N.am   87  PRO87      -0.2727
    123  CA        26.2820  -35.6860  156.9320 C.3    87  PRO87       0.1402
    124  C         27.6290  -35.0050  157.1290 C.2    87  PRO87       0.2269
    125  O         27.6460  -33.7970  157.4070 O.2    87  PRO87      -0.2865
    126  CB        25.5560  -35.8130  158.2850 C.3    87  PRO87       0.0296
    127  CG        26.0910  -37.0820  158.8380 C.3    87  PRO87       0.0237
    128  CD        26.3250  -38.0110  157.6340 C.3    87  PRO87       0.0939
    129  N         33.6510  -34.8620  155.2050 N.3    90  ASP90      -0.1239
    130  CA        34.6890  -35.5490  154.4680 C.3    90  ASP90       0.1674
    131  C         34.2520  -35.7710  153.0180 C.2    90  ASP90       0.2266
    132  O         33.0470  -35.8070  152.7250 O.2    90  ASP90      -0.2867
    133  CB        35.0400  -36.8760  155.1400 C.3    90  ASP90       0.1410
    134  CG        34.1430  -38.0050  154.7170 C.2    90  ASP90       0.3668
    135  OD1       34.6220  -38.9160  153.9890 O.co2  90  ASP90      -0.2456
    136  OD2       32.9660  -37.9850  155.1380 O.co2  90  ASP90      -0.2456
    137  N         34.1040  -38.1940  150.8100 N.3    92  GLY92      -0.1210
    138  CA        33.1990  -39.2800  150.4580 C.3    92  GLY92       0.1956
    139  C         31.7490  -38.9360  150.7420 C.2    92  GLY92       0.2611
    140  O         30.8700  -39.1380  149.8980 O.2    92  GLY92      -0.2717
    141  N         31.4800  -38.4190  151.9440 N.am   93  ASP93      -0.1973
    142  CA        30.1430  -37.9350  152.2620 C.3    93  ASP93       0.1709
    143  C         29.7080  -36.8410  151.2960 C.2    93  ASP93       0.2293
    144  O         28.5720  -36.8510  150.8020 O.2    93  ASP93      -0.2864
    145  CB        30.0860  -37.4050  153.6970 C.3    93  ASP93       0.1436
    146  CG        30.0480  -38.5200  154.7370 C.2    93  ASP93       0.3671
    147  OD1       30.5360  -39.6240  154.4330 O.co2  93  ASP93      -0.2456
    148  OD2       29.5030  -38.2900  155.8470 O.co2  93  ASP93      -0.2456
    149  N         28.5500  -38.1090  147.8120 N.3    96  ILE96      -0.1245
    150  CA        27.2230  -38.7130  147.7880 C.3    96  ILE96       0.1561
    151  C         26.1530  -37.6420  147.9240 C.2    96  ILE96       0.2260
    152  O         25.1430  -37.6670  147.2110 O.2    96  ILE96      -0.2867
    153  CB        27.0890  -39.7820  148.8810 C.3    96  ILE96       0.0252
    154  CG1       28.1030  -40.8980  148.6580 C.3    96  ILE96       0.0019
    155  CG2       25.6780  -40.3530  148.8820 C.3    96  ILE96       0.0019
    156  CD1       27.8020  -41.7650  147.4710 C.3    96  ILE96       0.0001
@<TRIPOS>BOND
     1    10     9    1
     2     7     6    1
     3     7     8    1
     4     5     6    1
     5     5     2    1
     6    38    37    1
     7     1     2    1
     8     2     3    1
     9    37    36    1
    10     9     8    2
    11     9    11    1
    12     3     4    2
    13     3    12   am
    14    36    35    1
    15    35    34    1
    16    12    13    1
    17    21    22    2
    18    21    20    1
    19    30    31    1
    20    26    28   ar
    21    26    24   ar
    22    19    20    1
    23    19    14   am
    24    34    31    1
    25    23    20    1
    26    23    24    1
    27    13    14    1
    28    13    16    1
    29    31    32    1
    30    28    29   ar
    31    14    15    2
    32    24    25   ar
    33    17    16    1
    34    18    16    1
    35    32    33    2
    36    32    39   am
    37    29    27   ar
    38    45    39    1
    39    45    44    1
    40    25    27   ar
    41    39    40    1
    42    44    43    1
    43   152   151    2
    44   156   154    1
    45   150   149    1
    46   150   151    1
    47   150   153    1
    48    40    43    1
    49    40    41    1
    50    42    41    2
    51    68    67   ar
    52    41    46   am
    53   154   153    1
    54   153   155    1
    55    46    47    1
    56    67    69   ar
    57    67    66    1
    58   101    98    1
    59   140   139    2
    60    47    48    1
    61    47    50    1
    62    60    58   ar
    63    57    58    1
    64    57    54    1
    65   138   139    1
    66   138   137    1
    67    66    65    1
    68   139   141   am
    69    53    48   am
    70    53    54    1
    71   144   143    2
    72    48    49    2
    73    58    59   ar
    74    52    50    1
    75    54    55    1
    76   143   142    1
    77    98    97    1
    78    98    99    1
    79    50    51    1
    80    65    62    1
    81   141   142    1
    82    99   100    2
    83   121   119   am
    84   142   145    1
    85    96    95    1
    86    55    56    2
    87   132   131    2
    88   119   120    2
    89   119   118    1
    90   131   130    1
    91    62    61    1
    92    62    63    1
    93   118   115    1
    94    95    93   ar
    95    95    94   ar
    96    93    91   ar
    97   145   146    1
    98    76    74    1
    99    63    64    2
   100    63    70   am
   101    94    92   ar
   102   135   134   ar
   103    75    74    1
   104   117   116    2
   105   147   146   ar
   106    70    71    1
   107   130   133    1
   108   130   129    1
   109    91    90   ar
   110   109   111   ar
   111   109   107   ar
   112   134   136   ar
   113   134   133    1
   114   146   148   ar
   115    74    71    1
   116   115   114    1
   117   115   116    1
   118    92    90   ar
   119   111   112   ar
   120    90    89    1
   121   114   104   am
   122   116   122   am
   123   106   107    1
   124   106   103    1
   125    71    72    1
   126   107   108   ar
   127   104   103    1
   128   104   105    2
   129   102   103    1
   130   112   113    1
   131   112   110   ar
   132    89    86    1
   133   122   123    1
   134   122   128    1
   135    72    73    2
   136   108   110   ar
   137   123   124    1
   138   123   126    1
   139   124   125    2
   140    86    87    1
   141    86    85    1
   142   128   127    1
   143    87    88    2
   144   126   127    1
   145    85    79   am
   146    83    82   ar
   147    82    84   ar
   148    82    81    1
   149    77    78    1
   150    79    80    2
   151    79    78    1
   152    78    81    1
