@<TRIPOS>MOLECULE
tmp/6epwA01.pdb
 80 80 0 0 0
SMALL
GASTEIGER

@<TRIPOS>ATOM
      1  N         18.6500  -51.3170  146.3320 N.3    34  PRO34      -0.2102
      2  CA        18.5410  -51.2530  147.7960 C.3    34  PRO34       0.1504
      3  C         19.8970  -51.4520  148.4570 C.2    34  PRO34       0.2576
      4  O         20.7410  -52.1980  147.9650 O.2    34  PRO34      -0.2718
      5  CB        17.5810  -52.4000  148.1340 C.3    34  PRO34       0.0282
      6  CG        16.7830  -52.6350  146.8730 C.3    34  PRO34       0.0208
      7  CD        17.7240  -52.2990  145.7320 C.3    34  PRO34       0.0893
      8  N         20.0910  -50.7920  149.6010 N.am   35  VAL35      -0.1966
      9  CA        21.3580  -50.9070  150.3200 C.3    35  VAL35       0.1727
     10  C         21.5580  -52.3370  150.8090 C.2    35  VAL35       0.2616
     11  O         20.6050  -53.0220  151.2030 O.2    35  VAL35      -0.2715
     12  CB        21.4010  -49.8970  151.4790 C.3    35  VAL35       0.0290
     13  CG1       22.4600  -50.2580  152.4620 C.3    35  VAL35       0.0023
     14  CG2       21.6540  -48.5020  150.9440 C.3    35  VAL35       0.0023
     15  N         22.8080  -52.8040  150.7550 N.am   36  ASP36      -0.1958
     16  CA        23.1910  -54.1080  151.2790 C.3    36  ASP36       0.1825
     17  C         23.7730  -53.9100  152.6700 C.2    36  ASP36       0.2464
     18  O         24.8720  -53.3480  152.7940 O.2    36  ASP36      -0.2730
     19  CB        24.2130  -54.7860  150.3630 C.3    36  ASP36       0.1450
     20  CG        24.6160  -56.1700  150.8530 C.2    36  ASP36       0.3671
     21  OD1       23.9540  -56.7130  151.7660 O.co2  36  ASP36      -0.2456
     22  OD2       25.6090  -56.7160  150.3260 O.co2  36  ASP36      -0.2456
     23  N         23.0830  -54.3260  153.7360 N.am   37  PRO37      -0.2715
     24  CA        23.6230  -54.1080  155.0890 C.3    37  PRO37       0.1536
     25  C         24.9750  -54.7580  155.3050 C.2    37  PRO37       0.2598
     26  O         25.7800  -54.2340  156.0830 O.2    37  PRO37      -0.2715
     27  CB        22.5470  -54.7170  155.9990 C.3    37  PRO37       0.0310
     28  CG        21.3150  -54.7410  155.1690 C.3    37  PRO37       0.0237
     29  CD        21.7600  -54.9630  153.7610 C.3    37  PRO37       0.0939
     30  N         25.2420  -55.8860  154.6360 N.am   38  ASP38      -0.1972
     31  CA        26.5870  -56.4540  154.5920 C.3    38  ASP38       0.1709
     32  C         27.6300  -55.3710  154.3200 C.2    38  ASP38       0.2293
     33  O         28.7320  -55.4020  154.8770 O.2    38  ASP38      -0.2864
     34  CB        26.6640  -57.5480  153.5100 C.3    38  ASP38       0.1436
     35  CG        25.6510  -58.6850  153.7190 C.2    38  ASP38       0.3671
     36  OD1       25.3520  -59.0170  154.8870 O.co2  38  ASP38      -0.2456
     37  OD2       25.1550  -59.2510  152.7080 O.co2  38  ASP38      -0.2456
     38  N         23.8020  -48.5570  158.3550 N.3    43  TYR43      -0.1227
     39  CA        22.7650  -47.9080  157.5570 C.3    43  TYR43       0.1736
     40  C         21.3750  -48.2100  158.1050 C.2    43  TYR43       0.2595
     41  O         20.5280  -47.3150  158.2270 O.2    43  TYR43      -0.2718
     42  CB        22.8810  -48.3670  156.0980 C.3    43  TYR43       0.0548
     43  CG        22.0600  -47.5480  155.1340 C.ar   43  TYR43      -0.0200
     44  CD1       22.5900  -46.4080  154.5510 C.ar   43  TYR43      -0.0009
     45  CD2       20.7620  -47.9190  154.7920 C.ar   43  TYR43      -0.0009
     46  CE1       21.8610  -45.6510  153.6640 C.ar   43  TYR43       0.0417
     47  CE2       20.0070  -47.1530  153.8920 C.ar   43  TYR43       0.0417
     48  CZ        20.5720  -46.0160  153.3340 C.ar   43  TYR43       0.1957
     49  OH        19.8750  -45.2310  152.4290 O.3    43  TYR43      -0.2866
     50  N         21.1270  -49.4720  158.4520 N.am   44  VAL44      -0.1980
     51  CA        19.7990  -49.8730  158.9050 C.3    44  VAL44       0.1595
     52  C         19.4020  -49.1000  160.1570 C.2    44  VAL44       0.2287
     53  O         18.2520  -48.6670  160.2960 O.2    44  VAL44      -0.2864
     54  CB        19.7640  -51.3960  159.1180 C.3    44  VAL44       0.0276
     55  CG1       18.3400  -51.8720  159.3350 C.3    44  VAL44       0.0022
     56  CG2       20.3830  -52.0920  157.9070 C.3    44  VAL44       0.0022
     57  N         18.7440  -45.1870  158.8120 N.3    47  ILE47      -0.1231
     58  CA        17.7790  -44.9000  157.7560 C.3    47  ILE47       0.1692
     59  C         16.5430  -45.7560  158.0140 C.2    47  ILE47       0.2591
     60  O         16.5430  -46.9590  157.7370 O.2    47  ILE47      -0.2718
     61  CB        18.3690  -45.1700  156.3670 C.3    47  ILE47       0.0266
     62  CG1       19.5510  -44.2330  156.1120 C.3    47  ILE47       0.0019
     63  CG2       17.2900  -45.0060  155.2910 C.3    47  ILE47       0.0020
     64  CD1       19.2160  -42.7890  156.3500 C.3    47  ILE47       0.0001
     65  N         15.4840  -45.1350  158.5430 N.am   48  LYS48      -0.1980
     66  CA        14.2880  -45.8970  158.9200 C.3    48  LYS48       0.1596
     67  C         13.4270  -46.2770  157.7140 C.2    48  LYS48       0.2287
     68  O         12.7520  -47.3140  157.7420 O.2    48  LYS48      -0.2864
     69  CB        13.4360  -45.0980  159.9100 C.3    48  LYS48       0.0298
     70  CG        14.1730  -44.6420  161.1750 C.3    48  LYS48       0.0038
     71  CD        14.9530  -45.7690  161.8100 C.3    48  LYS48       0.0206
     72  CE        15.6310  -45.3060  163.1130 C.3    48  LYS48       0.1093
     73  NZ        16.2670  -46.4550  163.8440 N.3    48  LYS48      -0.1314
     74  N         14.0610  -46.7800  153.9360 N.3    50  PRO50      -0.2116
     75  CA        14.9920  -46.8260  152.7960 C.3    50  PRO50       0.1372
     76  C         14.2620  -46.7280  151.4680 C.2    50  PRO50       0.2244
     77  O         13.1200  -47.1700  151.3320 O.2    50  PRO50      -0.2868
     78  CB        15.6560  -48.1940  152.9440 C.3    50  PRO50       0.0268
     79  CG        14.6540  -49.0040  153.7160 C.3    50  PRO50       0.0207
     80  CD        14.0510  -48.0390  154.6920 C.3    50  PRO50       0.0892
@<TRIPOS>BOND
     1     7     1    1
     2     7     6    1
     3     1     2    1
     4     6     5    1
     5     2     5    1
     6     2     3    1
     7     4     3    2
     8     3     8   am
     9     8     9    1
    10     9    10    1
    11     9    12    1
    12    22    20   ar
    13    19    20    1
    14    19    16    1
    15    15    10   am
    16    15    16    1
    17    10    11    2
    18    20    21   ar
    19    14    12    1
    20    16    17    1
    21    77    76    2
    22    76    75    1
    23    12    13    1
    24    49    48    1
    25    17    18    2
    26    17    23   am
    27    37    35   ar
    28    75    78    1
    29    75    74    1
    30    78    79    1
    31    48    46   ar
    32    48    47   ar
    33    34    35    1
    34    34    31    1
    35    46    44   ar
    36    79    80    1
    37    35    36   ar
    38    23    29    1
    39    23    24    1
    40    29    28    1
    41    47    45   ar
    42    74    80    1
    43    32    31    1
    44    32    33    2
    45    44    43   ar
    46    31    30    1
    47    30    25   am
    48    45    43   ar
    49    24    25    1
    50    24    27    1
    51    43    42    1
    52    28    27    1
    53    63    61    1
    54    25    26    2
    55    42    39    1
    56    62    64    1
    57    62    61    1
    58    61    58    1
    59    39    40    1
    60    39    38    1
    61    67    68    2
    62    67    66    1
    63    60    59    2
    64    58    59    1
    65    58    57    1
    66    56    54    1
    67    59    65   am
    68    40    41    2
    69    40    50   am
    70    50    51    1
    71    65    66    1
    72    51    54    1
    73    51    52    1
    74    66    69    1
    75    54    55    1
    76    69    70    1
    77    52    53    2
    78    70    71    1
    79    71    72    1
    80    72    73    1
