@<TRIPOS>MOLECULE
tmp/6epxA00.pdb
 120 115 0 0 0
SMALL
GASTEIGER

@<TRIPOS>ATOM
      1  N        -25.4190   44.8860    2.9930 N.3    30  VAL30      -0.1231
      2  CA       -25.3130   45.2590    4.4030 C.3    30  VAL30       0.1692
      3  C        -23.8660   45.3240    4.8660 C.2    30  VAL30       0.2592
      4  O        -23.5850   45.9170    5.9160 O.2    30  VAL30      -0.2718
      5  CB       -26.0880   44.2880    5.3130 C.3    30  VAL30       0.0266
      6  CG1      -27.5900   44.4570    5.1030 C.3    30  VAL30       0.0020
      7  CG2      -25.6490   42.8500    5.0540 C.3    30  VAL30       0.0020
      8  N        -22.9340   44.7400    4.1110 N.am   31  PHE31      -0.1976
      9  CA       -21.5240   44.7470    4.4870 C.3    31  PHE31       0.1639
     10  C        -20.6990   45.7620    3.7070 C.2    31  PHE31       0.2290
     11  O        -19.4730   45.7760    3.8430 O.2    31  PHE31      -0.2864
     12  CB       -20.9260   43.3520    4.3060 C.3    31  PHE31       0.0560
     13  CG       -21.7440   42.2560    4.9340 C.ar   31  PHE31      -0.0200
     14  CD1      -21.9740   42.2390    6.3070 C.ar   31  PHE31      -0.0042
     15  CD2      -22.3020   41.2600    4.1430 C.ar   31  PHE31      -0.0042
     16  CE1      -22.7380   41.2380    6.8830 C.ar   31  PHE31      -0.0003
     17  CE2      -23.0810   40.2570    4.7090 C.ar   31  PHE31      -0.0003
     18  CZ       -23.2930   40.2400    6.0830 C.ar   31  PHE31      -0.0000
     19  N        -21.5330   50.2810    9.7950 N.3    35  VAL35      -0.1245
     20  CA       -22.8420   50.3140   10.4300 C.3    35  VAL35       0.1561
     21  C        -23.1230   51.7220   10.9450 C.2    35  VAL35       0.2260
     22  O        -22.3040   52.3150   11.6590 O.2    35  VAL35      -0.2867
     23  CB       -22.8820   49.2720   11.5560 C.3    35  VAL35       0.0252
     24  CG1      -23.8590   49.6790   12.6310 C.3    35  VAL35       0.0019
     25  CG2      -23.2030   47.8870   10.9940 C.3    35  VAL35       0.0019
     26  N        -28.7600   51.8650   14.3680 N.3    40  VAL40      -0.1245
     27  CA       -28.5200   50.7490   15.2790 C.3    40  VAL40       0.1561
     28  C        -27.4720   51.1520   16.3140 C.2    40  VAL40       0.2260
     29  O        -26.2710   51.2110   16.0080 O.2    40  VAL40      -0.2867
     30  CB       -28.1330   49.4870   14.4910 C.3    40  VAL40       0.0252
     31  CG1      -27.0680   49.8060   13.4700 C.3    40  VAL40       0.0019
     32  CG2      -27.6410   48.4310   15.4190 C.3    40  VAL40       0.0019
     33  N        -26.5490   49.8850   19.4840 N.3    42  ASP42      -0.1225
     34  CA       -25.8150   48.9130   20.2890 C.3    42  ASP42       0.1805
     35  C        -24.6400   48.2720   19.5520 C.2    42  ASP42       0.2597
     36  O        -23.9170   47.4740   20.1640 O.2    42  ASP42      -0.2718
     37  CB       -26.7600   47.8120   20.7870 C.3    42  ASP42       0.1424
     38  CG       -27.4870   47.1070   19.6560 C.2    42  ASP42       0.3668
     39  OD1      -27.7250   47.7430   18.6060 O.co2  42  ASP42      -0.2456
     40  OD2      -27.8140   45.9100   19.8140 O.co2  42  ASP42      -0.2456
     41  N        -24.4240   48.5980   18.2720 N.am   43  TYR43      -0.1976
     42  CA       -23.3760   47.9280   17.5020 C.3    43  TYR43       0.1639
     43  C        -21.9900   48.3050   18.0080 C.2    43  TYR43       0.2290
     44  O        -21.1540   47.4300   18.2600 O.2    43  TYR43      -0.2864
     45  CB       -23.5010   48.2660   16.0180 C.3    43  TYR43       0.0560
     46  CG       -22.6360   47.3940   15.1290 C.ar   43  TYR43      -0.0198
     47  CD1      -23.0890   46.1530   14.6980 C.ar   43  TYR43      -0.0009
     48  CD2      -21.3660   47.8040   14.7360 C.ar   43  TYR43      -0.0009
     49  CE1      -22.3110   45.3480   13.8890 C.ar   43  TYR43       0.0417
     50  CE2      -20.5720   47.0030   13.9240 C.ar   43  TYR43       0.0417
     51  CZ       -21.0540   45.7760   13.5070 C.ar   43  TYR43       0.1957
     52  OH       -20.2920   44.9640   12.7000 O.3    43  TYR43      -0.2866
     53  N        -20.5870   39.6600   12.0540 N.3    82  ALA82      -0.1245
     54  CA       -22.0120   39.5560   11.7460 C.3    82  ALA82       0.1562
     55  C        -22.6580   38.4160   12.5180 C.2    82  ALA82       0.2260
     56  O        -23.7930   38.5460   12.9890 O.2    82  ALA82      -0.2867
     57  CB       -22.2100   39.3720   10.2350 C.3    82  ALA82       0.0290
     58  N        -22.9620   39.6700   16.1430 N.3    85  TYR85      -0.1227
     59  CA       -23.9910   40.6770   16.3310 C.3    85  TYR85       0.1736
     60  C        -25.3990   40.1460   16.0510 C.2    85  TYR85       0.2595
     61  O        -26.3720   40.7530   16.5200 O.2    85  TYR85      -0.2718
     62  CB       -23.6970   41.9040   15.4670 C.3    85  TYR85       0.0548
     63  CG       -24.6930   42.9840   15.7230 C.ar   85  TYR85      -0.0200
     64  CD1      -25.6400   43.3270   14.7670 C.ar   85  TYR85      -0.0009
     65  CD2      -24.7570   43.5980   16.9700 C.ar   85  TYR85      -0.0009
     66  CE1      -26.5860   44.3000   15.0270 C.ar   85  TYR85       0.0417
     67  CE2      -25.6910   44.5620   17.2380 C.ar   85  TYR85       0.0417
     68  CZ       -26.6040   44.9080   16.2690 C.ar   85  TYR85       0.1957
     69  OH       -27.5400   45.8660   16.5470 O.3    85  TYR85      -0.2866
     70  N        -25.5330   39.0200   15.3370 N.am   86  ASN86      -0.1961
     71  CA       -26.8410   38.4600   14.9580 C.3    86  ASN86       0.1804
     72  C        -26.9680   37.0020   15.3830 C.2    86  ASN86       0.2463
     73  O        -27.1070   36.1050   14.5400 O.2    86  ASN86      -0.2730
     74  CB       -27.0720   38.5890   13.4490 C.3    86  ASN86       0.1195
     75  CG       -27.1290   40.0190   13.0040 C.2    86  ASN86       0.2630
     76  OD1      -28.1570   40.6800   13.1470 O.2    86  ASN86      -0.2716
     77  ND2      -26.0220   40.5200   12.4560 N.am   86  ASN86      -0.0877
     78  N        -26.9810   36.7260   16.6930 N.am   87  PRO87      -0.2716
     79  CA       -26.9930   35.3330   17.1590 C.3    87  PRO87       0.1536
     80  C        -28.3590   34.6620   17.2940 C.2    87  PRO87       0.2598
     81  O        -28.3920   33.4330   17.4540 O.2    87  PRO87      -0.2715
     82  CB       -26.3230   35.4530   18.5390 C.3    87  PRO87       0.0310
     83  CG       -26.8050   36.7820   19.0380 C.3    87  PRO87       0.0237
     84  CD       -26.9330   37.6810   17.8140 C.3    87  PRO87       0.0939
     85  N        -29.4660   35.4010   17.2200 N.am   88  ASP88      -0.1972
     86  CA       -30.7910   34.9040   17.5840 C.3    88  ASP88       0.1709
     87  C        -31.4210   34.0860   16.4550 C.2    88  ASP88       0.2293
     88  O        -31.0090   34.1640   15.2910 O.2    88  ASP88      -0.2864
     89  CB       -31.7210   36.0650   17.9390 C.3    88  ASP88       0.1436
     90  CG       -31.2040   36.9090   19.0970 C.2    88  ASP88       0.3671
     91  OD1      -30.4110   36.3890   19.9150 O.co2  88  ASP88      -0.2456
     92  OD2      -31.6150   38.0870   19.2040 O.co2  88  ASP88      -0.2456
     93  N        -34.3160   34.5460   15.2220 N.3    90  ASP90      -0.1239
     94  CA       -35.3170   35.2850   14.4770 C.3    90  ASP90       0.1674
     95  C        -34.8470   35.5280   13.0390 C.2    90  ASP90       0.2266
     96  O        -33.6400   35.5810   12.7680 O.2    90  ASP90      -0.2867
     97  CB       -35.6590   36.5930   15.1920 C.3    90  ASP90       0.1410
     98  CG       -34.6690   37.6930   14.9360 C.2    90  ASP90       0.3668
     99  OD1      -34.9110   38.5140   14.0180 O.co2  90  ASP90      -0.2456
    100  OD2      -33.6580   37.7560   15.6740 O.co2  90  ASP90      -0.2456
    101  N        -34.6370   37.9580   10.8960 N.3    92  GLY92      -0.1210
    102  CA       -33.7520   39.0630   10.5440 C.3    92  GLY92       0.1956
    103  C        -32.2960   38.7340   10.8230 C.2    92  GLY92       0.2611
    104  O        -31.4190   38.9470    9.9770 O.2    92  GLY92      -0.2717
    105  N        -32.0230   38.2080   12.0210 N.am   93  ASP93      -0.1973
    106  CA       -30.6800   37.7450   12.3660 C.3    93  ASP93       0.1709
    107  C        -30.2360   36.6090   11.4570 C.2    93  ASP93       0.2293
    108  O        -29.0870   36.5880   10.9970 O.2    93  ASP93      -0.2864
    109  CB       -30.6290   37.2770   13.8270 C.3    93  ASP93       0.1436
    110  CG       -30.5160   38.4230   14.8220 C.2    93  ASP93       0.3671
    111  OD1      -30.9340   39.5600   14.5120 O.co2  93  ASP93      -0.2456
    112  OD2      -29.9730   38.1800   15.9240 O.co2  93  ASP93      -0.2456
    113  N        -29.0400   37.8130    7.9720 N.3    96  ILE96      -0.1245
    114  CA       -27.7160   38.4340    7.9740 C.3    96  ILE96       0.1561
    115  C        -26.6300   37.3740    8.1150 C.2    96  ILE96       0.2260
    116  O        -25.5920   37.4290    7.4340 O.2    96  ILE96      -0.2867
    117  CB       -27.6170   39.4960    9.0810 C.3    96  ILE96       0.0252
    118  CG1      -28.6840   40.5740    8.8860 C.3    96  ILE96       0.0019
    119  CG2      -26.2250   40.1410    9.0670 C.3    96  ILE96       0.0019
    120  CD1      -28.6380   41.2350    7.5390 C.3    96  ILE96       0.0001
@<TRIPOS>BOND
     1     1     2    1
     2    10    11    2
     3    10     9    1
     4     8     9    1
     5     8     3   am
     6    15    17   ar
     7    15    13   ar
     8    12     9    1
     9    12    13    1
    10     2     3    1
    11     2     5    1
    12    17    18   ar
    13     3     4    2
    14    13    14   ar
    15     7     5    1
    16     6     5    1
    17    18    16   ar
    18    14    16   ar
    19   116   115    2
    20   120   118    1
    21   113   114    1
    22   114   115    1
    23   114   117    1
    24   118   117    1
    25   119   117    1
    26    19    20    1
    27   104   103    2
    28    57    54    1
    29    20    21    1
    30    20    23    1
    31   102   103    1
    32   102   101    1
    33   103   105   am
    34    21    22    2
    35    25    23    1
    36   108   107    2
    37   107   106    1
    38    23    24    1
    39    54    53    1
    40    54    55    1
    41   105   106    1
    42   106   109    1
    43    77    75   am
    44    55    56    2
    45    52    51    1
    46    96    95    2
    47    75    76    2
    48    75    74    1
    49    95    94    1
    50    74    71    1
    51    31    30    1
    52    51    49   ar
    53    51    50   ar
    54   109   110    1
    55    49    47   ar
    56    50    48   ar
    57    99    98   ar
    58    26    27    1
    59    94    97    1
    60    94    93    1
    61    30    27    1
    62    30    32    1
    63   111   110   ar
    64    73    72    2
    65    47    46   ar
    66    48    46   ar
    67    64    66   ar
    68    64    63   ar
    69   110   112   ar
    70    98    97    1
    71    98   100   ar
    72    71    70    1
    73    71    72    1
    74    66    68   ar
    75    46    45    1
    76    27    28    1
    77    88    87    2
    78    70    60   am
    79    72    78   am
    80    62    63    1
    81    62    59    1
    82    63    65   ar
    83    29    28    2
    84    45    42    1
    85    60    59    1
    86    60    61    2
    87    58    59    1
    88    68    69    1
    89    68    67   ar
    90    87    86    1
    91    78    79    1
    92    78    84    1
    93    65    67   ar
    94    79    80    1
    95    79    82    1
    96    85    80   am
    97    85    86    1
    98    80    81    2
    99    42    43    1
   100    42    41    1
   101    86    89    1
   102    84    83    1
   103    89    90    1
   104    43    44    2
   105    41    35   am
   106    82    83    1
   107    39    38   ar
   108    90    92   ar
   109    90    91   ar
   110    33    34    1
   111    35    36    2
   112    35    34    1
   113    38    40   ar
   114    38    37    1
   115    34    37    1
