@<TRIPOS>MOLECULE
tmp/6epyB00.pdb
 259 254 0 0 0
SMALL
GASTEIGER

@<TRIPOS>ATOM
      1  N        153.1100   40.3350   19.2970 N.3   101  TRP101     -0.1227
      2  CA       152.9210   41.5060   20.1650 C.3   101  TRP101      0.1737
      3  C        154.0660   41.6430   21.1980 C.2   101  TRP101      0.2596
      4  O        155.1680   41.1510   20.9650 O.2   101  TRP101     -0.2718
      5  CB       151.5330   41.4630   20.8570 C.3   101  TRP101      0.0564
      6  CG       150.3690   41.3370   19.9180 C.ar  101  TRP101      0.0003
      7  CD1      149.6190   40.2210   19.6880 C.ar  101  TRP101      0.0946
      8  CD2      149.8140   42.3720   19.0890 C.ar  101  TRP101      0.0152
      9  NE1      148.6030   40.5040   18.8030 N.ar  101  TRP101     -0.2442
     10  CE2      148.7080   41.8150   18.4070 C.ar  101  TRP101      0.0810
     11  CE3      150.1500   43.7200   18.8520 C.ar  101  TRP101      0.0012
     12  CZ2      147.9340   42.5580   17.4950 C.ar  101  TRP101      0.0191
     13  CZ3      149.3600   44.4660   17.9840 C.ar  101  TRP101      0.0001
     14  CH2      148.2710   43.8860   17.3130 C.ar  101  TRP101      0.0015
     15  N        153.7970   42.2930   22.3290 N.am  102  GLY102     -0.1942
     16  CA       154.7810   42.4640   23.4010 C.3   102  GLY102      0.2014
     17  C        156.0710   43.1750   23.0010 C.2   102  GLY102      0.2639
     18  O        157.1250   42.9210   23.5980 O.2   102  GLY102     -0.2714
     19  N        155.9830   44.0350   21.9720 N.am  103  GLY103     -0.1954
     20  CA       157.1130   44.8250   21.4880 C.3   103  GLY103      0.1869
     21  C        157.7700   44.3910   20.1920 C.2   103  GLY103      0.2309
     22  O        158.5390   45.1610   19.6260 O.2   103  GLY103     -0.2863
     23  N        156.5030   43.6770   16.8890 N.3   105  ASP105     -0.1225
     24  CA       156.1510   44.4730   15.6940 C.3   105  ASP105      0.1805
     25  C        156.4860   45.9730   15.9170 C.2   105  ASP105      0.2597
     26  O        156.7610   46.6790   14.9480 O.2   105  ASP105     -0.2718
     27  CB       154.6890   44.2900   15.2880 C.3   105  ASP105      0.1424
     28  CG       153.7330   44.6280   16.3960 C.2   105  ASP105      0.3668
     29  OD1      153.7450   43.9160   17.4230 O.co2 105  ASP105     -0.2456
     30  OD2      153.0200   45.6470   16.2710 O.co2 105  ASP105     -0.2456
     31  N        156.5010   46.4280   17.1900 N.am  106  ILE106     -0.1980
     32  CA       156.9110   47.8060   17.5430 C.3   106  ILE106      0.1595
     33  C        158.3810   48.0420   17.1300 C.2   106  ILE106      0.2287
     34  O        158.6870   49.0820   16.5620 O.2   106  ILE106     -0.2864
     35  CB       156.6470   48.1580   19.0470 C.3   106  ILE106      0.0276
     36  CG1      155.1350   48.3450   19.3040 C.3   106  ILE106      0.0022
     37  CG2      157.4700   49.3990   19.5150 C.3   106  ILE106      0.0022
     38  CD1      154.6900   48.3600   20.8400 C.3   106  ILE106      0.0001
     39  N        146.4070   45.8310   13.6540 N.3   181  GLY181     -0.1225
     40  CA       145.9300   46.8060   14.6310 C.3   181  GLY181      0.1811
     41  C        144.4670   47.1780   14.5160 C.2   181  GLY181      0.2280
     42  O        143.9120   47.7590   15.4500 O.2   181  GLY181     -0.2866
     43  N        153.1170   54.7130   14.9860 N.3   220  TYR220     -0.1228
     44  CA       152.6380   53.3540   15.2420 C.3   220  TYR220      0.1721
     45  C        151.1730   53.4130   15.7640 C.2   220  TYR220      0.2437
     46  O        150.8500   54.2780   16.5680 O.2   220  TYR220     -0.2733
     47  CB       153.5800   52.6370   16.2210 C.3   220  TYR220      0.0547
     48  CG       153.1200   51.2520   16.6040 C.ar  220  TYR220     -0.0200
     49  CD1      152.1800   51.0620   17.6180 C.ar  220  TYR220     -0.0009
     50  CD2      153.5800   50.1280   15.9210 C.ar  220  TYR220     -0.0009
     51  CE1      151.7170   49.7900   17.9510 C.ar  220  TYR220      0.0417
     52  CE2      153.1340   48.8470   16.2550 C.ar  220  TYR220      0.0417
     53  CZ       152.2120   48.6860   17.2830 C.ar  220  TYR220      0.1957
     54  OH       151.7660   47.4480   17.6660 O.3   220  TYR220     -0.2866
     55  N        150.2690   52.5290   15.3090 N.am  221  PRO221     -0.2729
     56  CA       150.4890   51.3960   14.3770 C.3   221  PRO221      0.1401
     57  C        150.0970   51.6400   12.9050 C.2   221  PRO221      0.2269
     58  O        150.2780   50.7470   12.0740 O.2   221  PRO221     -0.2865
     59  CB       149.5370   50.3400   14.9630 C.3   221  PRO221      0.0296
     60  CG       148.3220   51.1680   15.4260 C.3   221  PRO221      0.0237
     61  CD       148.8840   52.5270   15.8450 C.3   221  PRO221      0.0939
     62  N        151.0830   35.9180   28.8480 N.3   302  TRP302     -0.1241
     63  CA       151.1700   37.3020   29.3260 C.3   302  TRP302      0.1605
     64  C        151.4020   37.3540   30.8560 C.2   302  TRP302      0.2264
     65  O        152.1980   38.1730   31.3070 O.2   302  TRP302     -0.2867
     66  CB       149.9360   38.1230   28.8910 C.3   302  TRP302      0.0550
     67  CG       149.8350   38.2850   27.3970 C.ar  302  TRP302      0.0003
     68  CD1      148.8710   37.7750   26.5800 C.ar  302  TRP302      0.0946
     69  CD2      150.7770   38.9570   26.5420 C.ar  302  TRP302      0.0152
     70  NE1      149.1570   38.0770   25.2680 N.ar  302  TRP302     -0.2442
     71  CE2      150.3000   38.8420   25.2220 C.ar  302  TRP302      0.0810
     72  CE3      152.0000   39.6390   26.7690 C.ar  302  TRP302      0.0012
     73  CZ2      150.9970   39.3710   24.1260 C.ar  302  TRP302      0.0191
     74  CZ3      152.7000   40.1430   25.6790 C.ar  302  TRP302      0.0001
     75  CH2      152.2100   39.9990   24.3810 C.ar  302  TRP302      0.0015
     76  N        155.0520   36.7420   31.7520 N.3   305  ARG305     -0.1245
     77  CA       155.9450   37.8880   31.5200 C.3   305  ARG305      0.1563
     78  C        156.2520   38.6000   32.8600 C.2   305  ARG305      0.2260
     79  O        157.4160   38.9080   33.1280 O.2   305  ARG305     -0.2867
     80  CB       155.3900   38.8480   30.4630 C.3   305  ARG305      0.0307
     81  CG       156.3090   40.0690   30.2400 C.3   305  ARG305      0.0489
     82  CD       155.7760   41.0830   29.2360 C.3   305  ARG305      0.2205
     83  NE       154.4570   41.6130   29.5930 N.pl3 305  ARG305     -0.0865
     84  CZ       153.7460   42.4120   28.8080 C.cat 305  ARG305      0.5346
     85  NH1      154.2120   42.7720   27.6200 N.pl3 305  ARG305      0.1354
     86  NH2      152.5570   42.8390   29.1930 N.pl3 305  ARG305      0.1354
     87  N        154.9990   44.8480   31.3660 N.3   318  ASN318     -0.1240
     88  CA       153.9570   45.8200   31.6440 C.3   318  ASN318      0.1653
     89  C        153.0360   45.0230   32.5880 C.2   318  ASN318      0.2266
     90  O        152.3420   44.1020   32.1400 O.2   318  ASN318     -0.2867
     91  CB       153.2030   46.2560   30.3710 C.3   318  ASN318      0.1155
     92  CG       154.0380   47.0090   29.3710 C.2   318  ASN318      0.2627
     93  OD1      154.8430   47.8620   29.7180 O.2   318  ASN318     -0.2716
     94  ND2      153.8760   46.6950   28.0960 N.am  318  ASN318     -0.0877
     95  N        149.9700   44.7110   34.1300 N.3   320  GLU320     -0.1245
     96  CA       148.6870   45.2440   33.6990 C.3   320  GLU320      0.1567
     97  C        147.4840   44.3650   34.0620 C.2   320  GLU320      0.2260
     98  O        146.3710   44.6680   33.6400 O.2   320  GLU320     -0.2867
     99  CB       148.7460   45.4410   32.1700 C.3   320  GLU320      0.0388
    100  CG       149.0100   44.1260   31.4410 C.3   320  GLU320      0.1160
    101  CD       149.3390   44.1760   29.9650 C.2   320  GLU320      0.3649
    102  OE1      149.2700   43.1010   29.3300 O.co2 320  GLU320     -0.2457
    103  OE2      149.5930   45.2770   29.4250 O.co2 320  GLU320     -0.2457
    104  N        139.0190   37.8870   24.7720 N.3   468  ASN468     -0.1240
    105  CA       140.4060   37.5760   24.4670 C.3   468  ASN468      0.1653
    106  C        140.8620   36.5220   25.4930 C.2   468  ASN468      0.2266
    107  O        140.9640   36.8070   26.6990 O.2   468  ASN468     -0.2867
    108  CB       141.2900   38.8330   24.5610 C.3   468  ASN468      0.1155
    109  CG       142.6760   38.6440   23.9750 C.2   468  ASN468      0.2627
    110  OD1      143.3470   37.6130   24.1580 O.2   468  ASN468     -0.2716
    111  ND2      143.1330   39.6420   23.2530 N.am  468  ASN468     -0.0877
    112  N        144.2860   36.5560   28.4810 N.3   471  TYR471     -0.1241
    113  CA       144.4100   37.3110   29.7320 C.3   471  TYR471      0.1605
    114  C        143.4510   36.8800   30.8190 C.2   471  TYR471      0.2264
    115  O        142.2590   36.7390   30.5650 O.2   471  TYR471     -0.2867
    116  CB       144.2010   38.8160   29.4610 C.3   471  TYR471      0.0534
    117  CG       145.1460   39.4100   28.4430 C.ar  471  TYR471     -0.0201
    118  CD1      144.8650   39.3450   27.0770 C.ar  471  TYR471     -0.0009
    119  CD2      146.3050   40.0710   28.8420 C.ar  471  TYR471     -0.0009
    120  CE1      145.7380   39.8870   26.1340 C.ar  471  TYR471      0.0417
    121  CE2      147.1650   40.6490   27.9080 C.ar  471  TYR471      0.0417
    122  CZ       146.8700   40.5640   26.5560 C.ar  471  TYR471      0.1957
    123  OH       147.7320   41.0830   25.6320 O.3   471  TYR471     -0.2866
    124  N        144.0430   35.5370   20.3850 N.3   498  SER498     -0.1217
    125  CA       144.2760   36.8710   19.8220 C.3   498  SER498      0.1889
    126  C        143.9550   37.0100   18.3420 C.2   498  SER498      0.2288
    127  O        143.1810   37.9060   17.9700 O.2   498  SER498     -0.2866
    128  CB       145.7100   37.3280   20.0930 C.3   498  SER498      0.2089
    129  OG       145.9210   38.6180   19.5490 O.3   498  SER498     -0.2183
    130  N        140.2490   36.2800   17.6710 N.3   501  ARG501     -0.1231
    131  CA       139.4910   37.3330   18.3590 C.3   501  ARG501      0.1694
    132  C        139.4870   38.6030   17.5030 C.2   501  ARG501      0.2592
    133  O        138.4190   39.1880   17.2960 O.2   501  ARG501     -0.2718
    134  CB       140.0580   37.6040   19.7730 C.3   501  ARG501      0.0321
    135  CG       139.1570   38.5110   20.6350 C.3   501  ARG501      0.0489
    136  CD       139.9090   39.7040   21.2320 C.3   501  ARG501      0.2205
    137  NE       140.3140   40.6880   20.2230 N.pl3 501  ARG501     -0.0865
    138  CZ       139.5690   41.7250   19.8410 C.cat 501  ARG501      0.5346
    139  NH1      138.3720   41.9270   20.3760 N.pl3 501  ARG501      0.1354
    140  NH2      140.0100   42.5550   18.9120 N.pl3 501  ARG501      0.1354
    141  N        140.6670   39.0060   16.9720 N.am  502  ASP502     -0.1974
    142  CA       140.7870   40.1930   16.1180 C.3   502  ASP502      0.1709
    143  C        139.9760   40.0480   14.8320 C.2   502  ASP502      0.2293
    144  O        139.2860   40.9910   14.4490 O.2   502  ASP502     -0.2864
    145  CB       142.2600   40.5360   15.8180 C.3   502  ASP502      0.1436
    146  CG       143.0570   41.1250   16.9870 C.2   502  ASP502      0.3671
    147  OD1      142.4530   41.3800   18.0650 O.co2 502  ASP502     -0.2456
    148  OD2      144.2780   41.3290   16.8260 O.co2 502  ASP502     -0.2456
    149  N        136.9670   42.6790   14.0470 N.3   506  TYR506     -0.1241
    150  CA       137.0680   43.5410   12.8570 C.3   506  TYR506      0.1605
    151  C        136.1220   43.1000   11.7230 C.2   506  TYR506      0.2264
    152  O        135.6690   43.9540   10.9640 O.2   506  TYR506     -0.2867
    153  CB       138.5330   43.7060   12.3930 C.3   506  TYR506      0.0534
    154  CG       139.4640   44.0790   13.5310 C.ar  506  TYR506     -0.0201
    155  CD1      139.0130   44.8450   14.6110 C.ar  506  TYR506     -0.0009
    156  CD2      140.7870   43.6430   13.5470 C.ar  506  TYR506     -0.0009
    157  CE1      139.8420   45.1300   15.6930 C.ar  506  TYR506      0.0417
    158  CE2      141.6400   43.9670   14.6030 C.ar  506  TYR506      0.0417
    159  CZ       141.1620   44.7080   15.6750 C.ar  506  TYR506      0.1957
    160  OH       141.9910   45.0200   16.7280 O.3   506  TYR506     -0.2866
    161  N        136.8720   44.4130   26.0290 N.3   515  ARG515     -0.1231
    162  CA       138.1330   44.8520   25.4480 C.3   515  ARG515      0.1694
    163  C        138.8370   45.8880   26.3160 C.2   515  ARG515      0.2592
    164  O        138.2050   46.8240   26.8380 O.2   515  ARG515     -0.2718
    165  CB       137.8510   45.4530   24.0610 C.3   515  ARG515      0.0321
    166  CG       139.0550   45.6750   23.1740 C.3   515  ARG515      0.0489
    167  CD       138.6030   46.3220   21.8770 C.3   515  ARG515      0.2205
    168  NE       139.6970   47.0190   21.2020 N.pl3 515  ARG515     -0.0865
    169  CZ       140.0000   48.3000   21.3750 C.cat 515  ARG515      0.5346
    170  NH1      139.3050   49.0470   22.2270 N.pl3 515  ARG515      0.1354
    171  NH2      141.0170   48.8380   20.7220 N.pl3 515  ARG515      0.1354
    172  N        140.1650   45.7450   26.4110 N.am  516  ARG516     -0.1966
    173  CA       141.0400   46.7150   27.0480 C.3   516  ARG516      0.1729
    174  C        141.1310   47.8930   26.0810 C.2   516  ARG516      0.2616
    175  O        141.2260   47.6820   24.8610 O.2   516  ARG516     -0.2715
    176  CB       142.4330   46.1020   27.2780 C.3   516  ARG516      0.0348
    177  CG       143.3420   46.9690   28.1600 C.3   516  ARG516      0.0492
    178  CD       144.6320   46.2410   28.5120 C.3   516  ARG516      0.2205
    179  NE       145.3910   45.8900   27.3070 N.pl3 516  ARG516     -0.0865
    180  CZ       146.3150   44.9390   27.2460 C.cat 516  ARG516      0.5346
    181  NH1      146.6240   44.2380   28.3250 N.pl3 516  ARG516      0.1354
    182  NH2      146.9380   44.6830   26.1010 N.pl3 516  ARG516      0.1354
    183  N        141.0680   49.1220   26.6030 N.am  517  ASN517     -0.1958
    184  CA       141.1170   50.3350   25.7790 C.3   517  ASN517      0.1819
    185  C        142.4120   50.5080   25.0300 C.2   517  ASN517      0.2622
    186  O        143.4530   50.1410   25.5440 O.2   517  ASN517     -0.2715
    187  CB       140.8630   51.5950   26.6260 C.3   517  ASN517      0.1195
    188  CG       139.4860   51.6690   27.2130 C.2   517  ASN517      0.2630
    189  OD1      138.5650   50.9730   26.7890 O.2   517  ASN517     -0.2716
    190  ND2      139.3240   52.5060   28.2170 N.am  517  ASN517     -0.0877
    191  N        142.3370   51.0670   23.8120 N.am  518  SER518     -0.1936
    192  CA       143.5150   51.3970   23.0060 C.3   518  SER518      0.2055
    193  C        143.8650   52.8840   23.2920 C.2   518  SER518      0.2643
    194  O        143.2380   53.4860   24.1700 O.2   518  SER518     -0.2714
    195  CB       143.2820   51.1060   21.5270 C.3   518  SER518      0.2130
    196  OG       141.9800   51.4680   21.1160 O.3   518  SER518     -0.2179
    197  N        144.8920   53.4380   22.6130 N.am  519  THR519     -0.1950
    198  CA       145.4680   54.7610   22.8650 C.3   519  THR519      0.1897
    199  C        144.5020   55.9640   22.8480 C.2   519  THR519      0.2313
    200  O        144.7390   56.9010   23.6100 O.2   519  THR519     -0.2863
    201  CB       146.6310   55.0530   21.9190 C.3   519  THR519      0.1794
    202  OG1      146.1720   55.0320   20.5750 O.3   519  THR519     -0.2208
    203  CG2      147.7850   54.0960   22.1030 C.3   519  THR519      0.0378
    204  N        135.4900   51.1490   16.7240 N.3   540  TRP540     -0.1241
    205  CA       135.6990   49.7690   17.1530 C.3   540  TRP540      0.1605
    206  C        134.3910   48.9560   17.1590 C.2   540  TRP540      0.2264
    207  O        134.4420   47.7470   16.9790 O.2   540  TRP540     -0.2867
    208  CB       136.3440   49.6950   18.5580 C.3   540  TRP540      0.0550
    209  CG       137.7150   50.2900   18.6450 C.ar  540  TRP540      0.0003
    210  CD1      138.0900   51.3810   19.3710 C.ar  540  TRP540      0.0946
    211  CD2      138.9030   49.8070   18.0000 C.ar  540  TRP540      0.0152
    212  NE1      139.4270   51.6400   19.1830 N.ar  540  TRP540     -0.2442
    213  CE2      139.9540   50.6890   18.3460 C.ar  540  TRP540      0.0810
    214  CE3      139.1840   48.7090   17.1630 C.ar  540  TRP540      0.0012
    215  CZ2      141.2620   50.4990   17.9040 C.ar  540  TRP540      0.0191
    216  CZ3      140.4800   48.5370   16.7020 C.ar  540  TRP540      0.0001
    217  CH2      141.5050   49.4180   17.0780 C.ar  540  TRP540      0.0015
    218  N        151.4240   52.6120   29.2530 N.3   615  PHE615     -0.1241
    219  CA       150.5580   52.8500   28.1180 C.3   615  PHE615      0.1605
    220  C        150.0160   54.2600   28.0960 C.2   615  PHE615      0.2264
    221  O        149.2830   54.6500   28.9970 O.2   615  PHE615     -0.2867
    222  CB       149.4080   51.8230   28.1440 C.3   615  PHE615      0.0534
    223  CG       148.5340   51.8060   26.9180 C.ar  615  PHE615     -0.0203
    224  CD1      149.0640   51.4840   25.6710 C.ar  615  PHE615     -0.0042
    225  CD2      147.1850   52.1350   27.0020 C.ar  615  PHE615     -0.0042
    226  CE1      148.2520   51.4270   24.5420 C.ar  615  PHE615     -0.0003
    227  CE2      146.3630   52.0750   25.8660 C.ar  615  PHE615     -0.0003
    228  CZ       146.8990   51.7030   24.6470 C.ar  615  PHE615     -0.0000
    229  N        151.6430   55.1120   23.2930 N.3   617  ASN617     -0.1225
    230  CA       151.8810   53.7170   22.9190 C.3   617  ASN617      0.1785
    231  C        152.3560   52.9510   24.1610 C.2   617  ASN617      0.2597
    232  O        152.5000   53.5260   25.2420 O.2   617  ASN617     -0.2718
    233  CB       152.9150   53.5720   21.7600 C.3   617  ASN617      0.1169
    234  CG       152.8520   52.2480   21.0080 C.2   617  ASN617      0.2627
    235  OD1      151.9570   51.4230   21.2040 O.2   617  ASN617     -0.2716
    236  ND2      153.7970   52.0110   20.1130 N.am  617  ASN617     -0.0877
    237  N        152.5910   51.6440   23.9980 N.am  618  TRP618     -0.1976
    238  CA       153.1230   50.7840   25.0460 C.3   618  TRP618      0.1640
    239  C        154.5560   51.2080   25.4170 C.2   618  TRP618      0.2290
    240  O        155.2520   51.8160   24.6020 O.2   618  TRP618     -0.2864
    241  CB       153.0570   49.3140   24.5880 C.3   618  TRP618      0.0576
    242  CG       151.6320   48.8520   24.4770 C.ar  618  TRP618      0.0006
    243  CD1      150.8950   48.7270   23.3340 C.ar  618  TRP618      0.0946
    244  CD2      150.7520   48.5330   25.5630 C.ar  618  TRP618      0.0152
    245  NE1      149.6410   48.2720   23.6340 N.ar  618  TRP618     -0.2442
    246  CE2      149.5190   48.1570   25.0000 C.ar  618  TRP618      0.0810
    247  CE3      150.9070   48.4820   26.9650 C.ar  618  TRP618      0.0012
    248  CZ2      148.4070   47.8170   25.7920 C.ar  618  TRP618      0.0191
    249  CZ3      149.8210   48.1030   27.7470 C.ar  618  TRP618      0.0001
    250  CH2      148.5820   47.8030   27.1630 C.ar  618  TRP618      0.0015
    251  N        157.2700   49.5720   25.6250 N.3   620  GLU620     -0.1245
    252  CA       158.3080   49.0030   24.7370 C.3   620  GLU620      0.1567
    253  C        158.7720   50.0720   23.7310 C.2   620  GLU620      0.2260
    254  O        159.9580   50.1620   23.4400 O.2   620  GLU620     -0.2867
    255  CB       157.8180   47.7580   23.9770 C.3   620  GLU620      0.0388
    256  CG       157.5840   46.5550   24.8770 C.3   620  GLU620      0.1160
    257  CD       156.1620   46.3970   25.3830 C.2   620  GLU620      0.3649
    258  OE1      155.5040   47.4090   25.7160 O.co2 620  GLU620     -0.2457
    259  OE2      155.7200   45.2400   25.5060 O.co2 620  GLU620     -0.2457
@<TRIPOS>BOND
     1   152   151    2
     2   151   150    1
     3    58    57    2
     4   153   150    1
     5   153   154    1
     6   150   149    1
     7    57    56    1
     8   154   156   ar
     9   154   155   ar
    10   156   158   ar
    11    39    40    1
    12    56    59    1
    13    56    55    1
    14   144   143    2
    15    41    40    1
    16    41    42    2
    17   158   159   ar
    18   155   157   ar
    19   143   142    1
    20    26    25    2
    21    59    60    1
    22    43    44    1
    23    44    45    1
    24    44    47    1
    25    27    24    1
    26    27    28    1
    27    55    45   am
    28    55    61    1
    29    60    61    1
    30   159   157   ar
    31   159   160    1
    32    24    25    1
    33    24    23    1
    34    45    46    2
    35   145   142    1
    36   145   146    1
    37    25    31   am
    38    50    52   ar
    39    50    48   ar
    40   142   141    1
    41    47    48    1
    42    52    53   ar
    43    30    28   ar
    44    28    29   ar
    45    34    33    2
    46    48    49   ar
    47   216   217   ar
    48   216   214   ar
    49   204   205    1
    50   148   146   ar
    51   141   132   am
    52   207   206    2
    53   146   147   ar
    54   217   215   ar
    55    33    32    1
    56   205   206    1
    57   205   208    1
    58   214   211   ar
    59    31    32    1
    60    53    54    1
    61    53    51   ar
    62   133   132    2
    63    14    12   ar
    64    14    13   ar
    65    12    10   ar
    66   132   131    1
    67    32    35    1
    68    49    51   ar
    69   130   131    1
    70   215   213   ar
    71   127   126    2
    72    13    11   ar
    73   211   213   ar
    74   211   209   ar
    75   126   125    1
    76   213   212   ar
    77   131   134    1
    78    10     9   ar
    79    10     8   ar
    80   208   209    1
    81   209   210   ar
    82     9     7   ar
    83    11     8   ar
    84   140   138    1
    85    35    36    1
    86    35    37    1
    87     8     6   ar
    88   212   210   ar
    89     1     2    1
    90    36    38    1
    91   129   128    1
    92    22    21    2
    93     7     6   ar
    94   134   135    1
    95   125   128    1
    96   125   124    1
    97   138   137    2
    98   138   139    1
    99     6     5    1
   100   236   234   am
   101     2     5    1
   102     2     3    1
   103    21    20    1
   104   137   136    1
   105   202   201    1
   106   135   136    1
   107   171   169    1
   108     4     3    2
   109   234   235    2
   110   234   233    1
   111   196   195    1
   112     3    15   am
   113   168   169    2
   114   168   167    1
   115   169   170    1
   116    20    19    1
   117   195   192    1
   118   233   230    1
   119   167   166    1
   120   201   203    1
   121   201   198    1
   122    19    17   am
   123    15    16    1
   124   197   198    1
   125   197   193   am
   126   199   198    1
   127   199   200    2
   128   230   229    1
   129   230   231    1
   130    17    16    1
   131    17    18    2
   132   192   193    1
   133   192   191    1
   134   166   165    1
   135   111   109   am
   136   193   194    2
   137   243   245   ar
   138   243   242   ar
   139   254   253    2
   140   245   246   ar
   141   253   252    1
   142   191   185   am
   143   109   110    2
   144   109   108    1
   145   255   252    1
   146   255   256    1
   147   237   231   am
   148   237   238    1
   149   165   162    1
   150    73    75   ar
   151    73    71   ar
   152   231   232    2
   153    75    74   ar
   154   105   108    1
   155   105   104    1
   156   105   106    1
   157   242   241    1
   158   242   244   ar
   159   226   228   ar
   160   226   224   ar
   161   241   238    1
   162   240   239    2
   163   228   227   ar
   164   252   251    1
   165   175   174    2
   166   256   257    1
   167   246   244   ar
   168   246   248   ar
   169   185   186    2
   170   185   184    1
   171   238   239    1
   172    71    70   ar
   173    71    69   ar
   174    70    68   ar
   175   257   259   ar
   176   257   258   ar
   177   162   161    1
   178   162   163    1
   179   106   107    2
   180   244   247   ar
   181   123   122    1
   182   224   223   ar
   183    74    72   ar
   184   184   183    1
   185   184   187    1
   186   248   250   ar
   187   227   225   ar
   188   174   183   am
   189   174   173    1
   190   182   180    1
   191   120   122   ar
   192   120   118   ar
   193   163   172   am
   194   163   164    2
   195   172   173    1
   196    69    72   ar
   197    69    67   ar
   198   122   121   ar
   199    68    67   ar
   200   187   188    1
   201   189   188    2
   202   223   225   ar
   203   223   222    1
   204   247   249   ar
   205   173   176    1
   206   118   117   ar
   207   250   249   ar
   208   188   190   am
   209   180   179    2
   210   180   181    1
   211   176   177    1
   212   179   178    1
   213    67    66    1
   214    85    84    1
   215   121   119   ar
   216    94    92   am
   217   220   219    1
   218   220   221    2
   219   219   222    1
   220   219   218    1
   221   177   178    1
   222   117   119   ar
   223   117   116    1
   224   112   113    1
   225    84    86    1
   226    84    83    2
   227    62    63    1
   228    66    63    1
   229    82    83    1
   230    82    81    1
   231    63    64    1
   232   102   101   ar
   233    92    93    2
   234    92    91    1
   235   103   101   ar
   236   116   113    1
   237   113   114    1
   238   101   100    1
   239    81    80    1
   240    91    88    1
   241    80    77    1
   242   115   114    2
   243    64    65    2
   244    87    88    1
   245   100    99    1
   246    77    76    1
   247    77    78    1
   248    88    89    1
   249    90    89    2
   250    99    96    1
   251    78    79    2
   252    98    97    2
   253    96    97    1
   254    96    95    1
