@<TRIPOS>MOLECULE
tmp/6epzC00.pdb
 237 230 0 0 0
SMALL
GASTEIGER

@<TRIPOS>ATOM
      1  N         89.6770  -16.4080   58.1650 N.3   104  TRP104     -0.1227
      2  CA        89.1830  -17.5430   58.9640 C.3   104  TRP104      0.1737
      3  C         87.6390  -17.6160   58.9350 C.2   104  TRP104      0.2596
      4  O         87.0280  -17.1310   57.9810 O.2   104  TRP104     -0.2718
      5  CB        89.7180  -17.4510   60.4230 C.3   104  TRP104      0.0564
      6  CG        91.2140  -17.3860   60.5150 C.ar  104  TRP104      0.0003
      7  CD1       91.9660  -16.3060   60.8580 C.ar  104  TRP104      0.0946
      8  CD2       92.1390  -18.4510   60.2440 C.ar  104  TRP104      0.0152
      9  NE1       93.3060  -16.6330   60.8280 N.ar  104  TRP104     -0.2442
     10  CE2       93.4370  -17.9480   60.4710 C.ar  104  TRP104      0.0810
     11  CE3       91.9950  -19.7980   59.8730 C.ar  104  TRP104      0.0012
     12  CZ2       94.5850  -18.7450   60.3440 C.ar  104  TRP104      0.0191
     13  CZ3       93.1340  -20.5790   59.7280 C.ar  104  TRP104      0.0001
     14  CH2       94.4080  -20.0580   59.9960 C.ar  104  TRP104      0.0015
     15  N         87.0230  -18.1900   59.9690 N.am  105  GLY105     -0.1942
     16  CA        85.5560  -18.2910   60.0400 C.3   105  GLY105      0.2014
     17  C         84.8970  -19.0010   58.8610 C.2   105  GLY105      0.2639
     18  O         83.7230  -18.7760   58.5770 O.2   105  GLY105     -0.2714
     19  N         85.6540  -19.8620   58.1870 N.am  106  GLY106     -0.1954
     20  CA        85.1560  -20.6930   57.0980 C.3   106  GLY106      0.1869
     21  C         85.5820  -20.3190   55.6930 C.2   106  GLY106      0.2309
     22  O         85.3790  -21.1130   54.7720 O.2   106  GLY106     -0.2863
     23  N         88.7640  -19.7590   54.1740 N.3   108  ASP108     -0.1225
     24  CA        89.8100  -20.6240   53.5950 C.3   108  ASP108      0.1805
     25  C         89.3730  -22.0960   53.5930 C.2   108  ASP108      0.2597
     26  O         89.7410  -22.8320   52.6860 O.2   108  ASP108     -0.2718
     27  CB        91.1570  -20.4440   54.2780 C.3   108  ASP108      0.1424
     28  CG        91.0820  -20.7270   55.7590 C.2   108  ASP108      0.3668
     29  OD1       90.4640  -19.9280   56.4780 O.co2 108  ASP108     -0.2456
     30  OD2       91.6160  -21.7510   56.1870 O.co2 108  ASP108     -0.2456
     31  N         88.5260  -22.5010   54.5480 N.am  109  ILE109     -0.1980
     32  CA        88.0080  -23.8770   54.5760 C.3   109  ILE109      0.1595
     33  C         87.2500  -24.1520   53.2600 C.2   109  ILE109      0.2287
     34  O         87.4620  -25.1870   52.6520 O.2   109  ILE109     -0.2864
     35  CB        87.1470  -24.1350   55.8360 C.3   109  ILE109      0.0276
     36  CG1       88.0600  -24.2510   57.0790 C.3   109  ILE109      0.0022
     37  CG2       86.2300  -25.4090   55.6570 C.3   109  ILE109      0.0022
     38  CD1       87.3210  -24.2190   58.4810 C.3   109  ILE109      0.0001
     39  N         98.5820  -21.5740   59.0750 N.3   186  GLY186     -0.1225
     40  CA        98.2410  -22.4560   60.1930 C.3   186  GLY186      0.1811
     41  C         99.3880  -22.8830   61.0900 C.2   186  GLY186      0.2280
     42  O         99.1690  -23.3470   62.2170 O.2   186  GLY186     -0.2866
     43  N         92.4940  -30.7740   55.5620 N.3   226  TYR226     -0.1241
     44  CA        92.6700  -29.4160   56.0260 C.3   226  TYR226      0.1605
     45  C         93.3000  -29.4330   57.4390 C.2   226  TYR226      0.2264
     46  O         92.8520  -30.2250   58.2740 O.2   226  TYR226     -0.2867
     47  CB        91.2970  -28.7020   56.0680 C.3   226  TYR226      0.0534
     48  CG        91.3950  -27.2900   56.6010 C.ar  226  TYR226     -0.0201
     49  CD1       91.3230  -27.0350   57.9710 C.ar  226  TYR226     -0.0009
     50  CD2       91.5680  -26.2130   55.7440 C.ar  226  TYR226     -0.0009
     51  CE1       91.4380  -25.7460   58.4720 C.ar  226  TYR226      0.0417
     52  CE2       91.6220  -24.9100   56.2310 C.ar  226  TYR226      0.0417
     53  CZ        91.5750  -24.6850   57.5990 C.ar  226  TYR226      0.1957
     54  OH        91.6310  -23.4130   58.1130 O.3   226  TYR226     -0.2866
     55  N         84.6830  -11.4590   66.2330 N.3   311  TRP311     -0.1241
     56  CA        84.2340  -12.8210   66.5630 C.3   311  TRP311      0.1605
     57  C         82.9980  -12.7880   67.4860 C.2   311  TRP311      0.2264
     58  O         82.0820  -13.5860   67.2620 O.2   311  TRP311     -0.2867
     59  CB        85.3580  -13.6950   67.1350 C.3   311  TRP311      0.0550
     60  CG        86.4650  -13.9330   66.1450 C.ar  311  TRP311      0.0003
     61  CD1       87.7420  -13.4500   66.2060 C.ar  311  TRP311      0.0946
     62  CD2       86.3590  -14.6210   64.8990 C.ar  311  TRP311      0.0152
     63  NE1       88.4490  -13.8300   65.0890 N.ar  311  TRP311     -0.2442
     64  CE2       87.6360  -14.5840   64.2890 C.ar  311  TRP311      0.0810
     65  CE3       85.3330  -15.3630   64.2800 C.ar  311  TRP311      0.0012
     66  CZ2       87.8720  -15.1310   63.0290 C.ar  311  TRP311      0.0191
     67  CZ3       85.5680  -15.9050   63.0290 C.ar  311  TRP311      0.0001
     68  CH2       86.8340  -15.8280   62.4360 C.ar  311  TRP311      0.0015
     69  N         79.7890  -12.2350   65.5320 N.3   314  ARG314     -0.1245
     70  CA        79.2810  -13.4180   64.8290 C.3   314  ARG314      0.1563
     71  C         78.1520  -14.0640   65.6160 C.2   314  ARG314      0.2260
     72  O         77.1440  -14.4220   65.0160 O.2   314  ARG314     -0.2867
     73  CB        80.4060  -14.4420   64.5470 C.3   314  ARG314      0.0307
     74  CG        79.8850  -15.6550   63.7600 C.3   314  ARG314      0.0489
     75  CD        80.9670  -16.6910   63.4630 C.3   314  ARG314      0.2205
     76  NE        81.5990  -17.2220   64.6640 N.pl3 314  ARG314     -0.0865
     77  CZ        82.6220  -18.0710   64.6350 C.cat 314  ARG314      0.5346
     78  NH1       83.1380  -18.4580   63.4760 N.pl3 314  ARG314      0.1354
     79  NH2       83.1770  -18.4870   65.7650 N.pl3 314  ARG314      0.1354
     80  N         79.9830  -20.4170   65.6750 N.3   327  ASN327     -0.1240
     81  CA        80.5210  -21.3500   66.6450 C.3   327  ASN327      0.1653
     82  C         80.5590  -20.5200   67.9330 C.2   327  ASN327      0.2266
     83  O         81.3740  -19.5860   68.0800 O.2   327  ASN327     -0.2867
     84  CB        81.9340  -21.8450   66.2570 C.3   327  ASN327      0.1155
     85  CG        81.9330  -22.6480   64.9800 C.2   327  ASN327      0.2627
     86  OD1       81.0580  -23.4920   64.7610 O.2   327  ASN327     -0.2716
     87  ND2       82.9280  -22.4100   64.1250 N.am  327  ASN327     -0.0877
     88  N         81.7100  -20.0830   71.0540 N.3   329  GLU329     -0.1245
     89  CA        82.9310  -20.6300   71.6610 C.3   329  GLU329      0.1567
     90  C         83.5790  -19.7220   72.7000 C.2   329  GLU329      0.2260
     91  O         84.6690  -20.0340   73.1800 O.2   329  GLU329     -0.2867
     92  CB        83.9190  -20.9390   70.5290 C.3   329  GLU329      0.0388
     93  CG        84.3810  -19.6590   69.8500 C.3   329  GLU329      0.1160
     94  CD        85.0090  -19.7620   68.4730 C.2   329  GLU329      0.3649
     95  OE1       85.4480  -18.7010   67.9840 O.co2 329  GLU329     -0.2457
     96  OE2       85.1410  -20.8770   67.9190 O.co2 329  GLU329     -0.2457
     97  N         96.0760  -13.4750   71.3360 N.3   478  ASN478     -0.1240
     98  CA        95.3130  -13.1620   70.1410 C.3   478  ASN478      0.1653
     99  C         94.2860  -12.0630   70.5780 C.2   478  ASN478      0.2266
    100  O         93.3940  -12.3170   71.4110 O.2   478  ASN478     -0.2867
    101  CB        94.5970  -14.4250   69.6270 C.3   478  ASN478      0.1155
    102  CG        93.9750  -14.2210   68.2620 C.2   478  ASN478      0.2627
    103  OD1       93.3810  -13.1800   67.9640 O.2   478  ASN478     -0.2716
    104  ND2       94.0960  -15.2060   67.3860 N.am  478  ASN478     -0.0877
    105  N         89.7920  -12.1130   70.5410 N.3   481  TYR481     -0.1241
    106  CA        88.8350  -12.8250   71.3720 C.3   481  TYR481      0.1605
    107  C         88.7950  -12.3140   72.7950 C.2   481  TYR481      0.2264
    108  O         89.8350  -12.1750   73.4170 O.2   481  TYR481     -0.2867
    109  CB        89.1870  -14.3390   71.3810 C.3   481  TYR481      0.0534
    110  CG        89.1900  -15.0090   70.0240 C.ar  481  TYR481     -0.0201
    111  CD1       90.3270  -15.0060   69.2270 C.ar  481  TYR481     -0.0009
    112  CD2       88.0530  -15.6410   69.5350 C.ar  481  TYR481     -0.0009
    113  CE1       90.3290  -15.5980   67.9660 C.ar  481  TYR481      0.0417
    114  CE2       88.0480  -16.2550   68.2840 C.ar  481  TYR481      0.0417
    115  CZ        89.1910  -16.2340   67.5040 C.ar  481  TYR481      0.1957
    116  OH        89.2120  -16.8110   66.2600 O.3   481  TYR481     -0.2866
    117  N         95.5260  -11.5160   64.7800 N.3   509  SER509     -0.1217
    118  CA        95.7940  -12.8990   64.3720 C.3   509  SER509      0.1889
    119  C         97.0560  -13.1140   63.5050 C.2   509  SER509      0.2288
    120  O         97.8710  -13.9800   63.8430 O.2   509  SER509     -0.2866
    121  CB        94.5730  -13.4890   63.6840 C.3   509  SER509      0.2089
    122  OG        94.8080  -14.8550   63.4020 O.3   509  SER509     -0.2183
    123  N        100.1890  -12.1700   65.4760 N.3   512  ARG512     -0.1231
    124  CA       100.2750  -13.1680   66.5580 C.3   512  ARG512      0.1694
    125  C        100.8960  -14.4670   66.0130 C.2   512  ARG512      0.2592
    126  O        101.8140  -15.0140   66.6290 O.2   512  ARG512     -0.2718
    127  CB        98.8800  -13.4490   67.1760 C.3   512  ARG512      0.0321
    128  CG        98.9370  -14.3520   68.4260 C.3   512  ARG512      0.0489
    129  CD        97.9430  -15.5100   68.3390 C.3   512  ARG512      0.2205
    130  NE        98.3600  -16.5440   67.3850 N.pl3 512  ARG512     -0.0865
    131  CZ        99.1740  -17.5570   67.6810 C.cat 512  ARG512      0.5346
    132  NH1       99.6310  -17.7140   68.9210 N.pl3 512  ARG512      0.1354
    133  NH2       99.5140  -18.4330   66.7520 N.pl3 512  ARG512      0.1354
    134  N        100.4300  -14.9170   64.8300 N.am  513  ASP513     -0.1974
    135  CA       100.9490  -16.1250   64.1650 C.3   513  ASP513      0.1709
    136  C        102.4220  -15.9770   63.8120 C.2   513  ASP513      0.2293
    137  O        103.2000  -16.8890   64.0730 O.2   513  ASP513     -0.2864
    138  CB       100.1550  -16.4190   62.8950 C.3   513  ASP513      0.1436
    139  CG        98.8070  -17.0570   63.1550 C.2   513  ASP513      0.3671
    140  OD1       98.4900  -17.3390   64.3530 O.co2 513  ASP513     -0.2456
    141  OD2       98.0690  -17.2750   62.1830 O.co2 513  ASP513     -0.2456
    142  N        104.9910  -18.6560   65.4500 N.3   517  TYR517     -0.1241
    143  CA       105.6900  -19.6010   64.5790 C.3   517  TYR517      0.1605
    144  C        107.1410  -19.1990   64.3850 C.2   517  TYR517      0.2264
    145  O        107.9820  -20.0790   64.2620 O.2   517  TYR517     -0.2867
    146  CB       104.9320  -19.8580   63.2630 C.3   517  TYR517      0.0534
    147  CG       103.4560  -20.1630   63.4870 C.ar  517  TYR517     -0.0201
    148  CD1      103.0200  -20.8160   64.6430 C.ar  517  TYR517     -0.0009
    149  CD2      102.4950  -19.7680   62.5640 C.ar  517  TYR517     -0.0009
    150  CE1      101.6610  -21.0320   64.8910 C.ar  517  TYR517      0.0417
    151  CE2      101.1350  -20.0080   62.7870 C.ar  517  TYR517      0.0417
    152  CZ       100.7260  -20.6420   63.9550 C.ar  517  TYR517      0.1957
    153  OH        99.3950  -20.8660   64.2250 O.3   517  TYR517     -0.2866
    154  N         96.7210  -19.8480   74.2120 N.3   526  ARG526     -0.1231
    155  CA        96.2470  -20.3480   72.9210 C.3   526  ARG526      0.1694
    156  C         95.1330  -21.3420   73.1100 C.2   526  ARG526      0.2591
    157  O         95.1940  -22.2090   74.0070 O.2   526  ARG526     -0.2718
    158  CB        97.4190  -21.0500   72.1830 C.3   526  ARG526      0.0321
    159  CG        97.2520  -21.1640   70.6740 C.3   526  ARG526      0.0489
    160  CD        98.4200  -21.9370   70.1100 C.3   526  ARG526      0.2205
    161  NE        98.0640  -22.6370   68.8800 N.pl3 526  ARG526     -0.0865
    162  CZ        97.5820  -23.8780   68.8360 C.cat 526  ARG526      0.5346
    163  NH1       97.4000  -24.5700   69.9580 N.pl3 526  ARG526      0.1354
    164  NH2       97.2680  -24.4310   67.6760 N.pl3 526  ARG526      0.1354
    165  N         94.1160  -21.2130   72.2450 N.am  527  ARG527     -0.1980
    166  CA        93.0010  -22.1530   72.2030 C.3   527  ARG527      0.1597
    167  C         93.5710  -23.4320   71.5270 C.2   527  ARG527      0.2287
    168  O         94.3340  -23.3300   70.5680 O.2   527  ARG527     -0.2864
    169  CB        91.8530  -21.5540   71.3900 C.3   527  ARG527      0.0334
    170  CG        90.5780  -22.3970   71.4470 C.3   527  ARG527      0.0492
    171  CD        89.4230  -21.6580   70.8070 C.3   527  ARG527      0.2205
    172  NE        89.6900  -21.3670   69.3970 N.pl3 527  ARG527     -0.0865
    173  CZ        88.9930  -20.4910   68.6880 C.cat 527  ARG527      0.5346
    174  NH1       87.9900  -19.8220   69.2470 N.pl3 527  ARG527      0.1354
    175  NH2       89.2830  -20.2840   67.4090 N.pl3 527  ARG527      0.1354
    176  N         94.2980  -26.7730   69.3440 N.3   529  SER529     -0.1217
    177  CA        94.0740  -27.2100   67.9500 C.3   529  SER529      0.1889
    178  C         93.5550  -28.6730   67.9950 C.2   529  SER529      0.2288
    179  O         93.3540  -29.2380   69.0900 O.2   529  SER529     -0.2866
    180  CB        95.3160  -27.0420   67.0640 C.3   529  SER529      0.2089
    181  OG        96.5190  -27.2560   67.7840 O.3   529  SER529     -0.2183
    182  N        104.0010  -26.9370   68.9400 N.3   551  TRP551     -0.1241
    183  CA       103.6120  -25.5330   69.0460 C.3   551  TRP551      0.1605
    184  C        104.5820  -24.7250   69.9130 C.2   551  TRP551      0.2264
    185  O        104.6810  -23.5120   69.7190 O.2   551  TRP551     -0.2867
    186  CB       102.1990  -25.3930   69.6490 C.3   551  TRP551      0.0550
    187  CG       101.1310  -26.0150   68.8080 C.ar  551  TRP551      0.0003
    188  CD1      100.3250  -27.0690   69.1380 C.ar  551  TRP551      0.0946
    189  CD2      100.7230  -25.5830   67.5010 C.ar  551  TRP551      0.0152
    190  NE1       99.4350  -27.3170   68.1130 N.ar  551  TRP551     -0.2442
    191  CE2       99.6870  -26.4460   67.0800 C.ar  551  TRP551      0.0810
    192  CE3      101.1670  -24.5750   66.6240 C.ar  551  TRP551      0.0012
    193  CZ2       99.0590  -26.3010   65.8410 C.ar  551  TRP551      0.0191
    194  CZ3      100.5700  -24.4570   65.3810 C.ar  551  TRP551      0.0001
    195  CH2       99.5160  -25.3020   65.0060 C.ar  551  TRP551      0.0015
    196  N         83.8550  -28.2110   67.0560 N.3   629  PHE629     -0.1241
    197  CA        85.2640  -28.5080   66.7930 C.3   629  PHE629      0.1605
    198  C         85.6470  -29.9040   67.2710 C.2   629  PHE629      0.2264
    199  O         85.5700  -30.2040   68.4740 O.2   629  PHE629     -0.2867
    200  CB        86.1100  -27.4240   67.4640 C.3   629  PHE629      0.0534
    201  CG        87.6060  -27.5160   67.2740 C.ar  629  PHE629     -0.0203
    202  CD1       88.1850  -27.2120   66.0440 C.ar  629  PHE629     -0.0042
    203  CD2       88.4420  -27.7900   68.3540 C.ar  629  PHE629     -0.0042
    204  CE1       89.5840  -27.2380   65.8820 C.ar  629  PHE629     -0.0003
    205  CE2       89.8310  -27.8440   68.1880 C.ar  629  PHE629     -0.0003
    206  CZ        90.3900  -27.5520   66.9570 C.ar  629  PHE629     -0.0000
    207  N         87.7010  -30.9500   62.6900 N.3   632  ASN632     -0.1225
    208  CA        87.9230  -29.5840   62.2210 C.3   632  ASN632      0.1785
    209  C         86.7310  -28.7630   62.7180 C.2   632  ASN632      0.2597
    210  O         85.8420  -29.3100   63.3920 O.2   632  ASN632     -0.2718
    211  CB        88.0430  -29.4990   60.6560 C.3   632  ASN632      0.1169
    212  CG        88.5720  -28.1870   60.0980 C.2   632  ASN632      0.2627
    213  OD1       89.1080  -27.3200   60.8170 O.2   632  ASN632     -0.2716
    214  ND2       88.4340  -27.9980   58.7980 N.am  632  ASN632     -0.0877
    215  N         86.6860  -27.4780   62.3530 N.am  633  TRP633     -0.1976
    216  CA        85.5810  -26.5920   62.6960 C.3   633  TRP633      0.1640
    217  C         84.2980  -27.0490   62.0140 C.2   633  TRP633      0.2290
    218  O         84.3520  -27.6570   60.9270 O.2   633  TRP633     -0.2864
    219  CB        85.9410  -25.1300   62.3190 C.3   633  TRP633      0.0576
    220  CG        87.0790  -24.5950   63.1310 C.ar  633  TRP633      0.0006
    221  CD1       88.3880  -24.4820   62.7490 C.ar  633  TRP633      0.0946
    222  CD2       87.0310  -24.2400   64.5160 C.ar  633  TRP633      0.0152
    223  NE1       89.1520  -24.0460   63.8160 N.ar  633  TRP633     -0.2442
    224  CE2       88.3360  -23.8650   64.9000 C.ar  633  TRP633      0.0810
    225  CE3       85.9900  -24.1290   65.4550 C.ar  633  TRP633      0.0012
    226  CZ2       88.6410  -23.4710   66.2040 C.ar  633  TRP633      0.0191
    227  CZ3       86.2900  -23.7160   66.7450 C.ar  633  TRP633      0.0001
    228  CH2       87.5980  -23.3620   67.0970 C.ar  633  TRP633      0.0015
    229  N         82.2660  -25.4270   60.2460 N.3   635  GLU635     -0.1245
    230  CA        82.1350  -24.8970   58.8710 C.3   635  GLU635      0.1567
    231  C         82.4700  -25.9920   57.8590 C.2   635  GLU635      0.2260
    232  O         81.8490  -26.0630   56.7990 O.2   635  GLU635     -0.2867
    233  CB        83.0260  -23.6630   58.6280 C.3   635  GLU635      0.0388
    234  CG        82.5410  -22.4090   59.3310 C.3   635  GLU635      0.1160
    235  CD        83.1520  -22.1550   60.6970 C.2   635  GLU635      0.3649
    236  OE1       83.4790  -23.1280   61.4080 O.co2 635  GLU635     -0.2457
    237  OE2       83.2620  -20.9690   61.0750 O.co2 635  GLU635     -0.2457
@<TRIPOS>BOND
     1    34    33    2
     2    26    25    2
     3    33    32    1
     4    25    24    1
     5    25    31   am
     6    24    23    1
     7    24    27    1
     8    27    28    1
     9    31    32    1
    10    32    35    1
    11    22    21    2
    12    43    44    1
    13    37    35    1
    14    21    20    1
    15    50    52   ar
    16    50    48   ar
    17    28    30   ar
    18    28    29   ar
    19    35    36    1
    20    44    47    1
    21    44    45    1
    22    47    48    1
    23    52    53   ar
    24    48    49   ar
    25   232   231    2
    26    36    38    1
    27    20    19    1
    28    45    46    2
    29    53    54    1
    30    53    51   ar
    31   231   230    1
    32    49    51   ar
    33     4     3    2
    34     1     2    1
    35    19    17   am
    36    18    17    2
    37   233   230    1
    38   233   234    1
    39   214   212   am
    40    17    16    1
    41   230   229    1
    42     3     2    1
    43     3    15   am
    44     2     5    1
    45    39    40    1
    46   234   235    1
    47    13    11   ar
    48    13    14   ar
    49    11     8   ar
    50    15    16    1
    51    14    12   ar
    52   212   211    1
    53   212   213    2
    54    40    41    1
    55     8    10   ar
    56     8     6   ar
    57    12    10   ar
    58     5     6    1
    59    10     9   ar
    60     6     7   ar
    61   211   208    1
    62   235   237   ar
    63   235   236   ar
    64     9     7   ar
    65   218   217    2
    66    41    42    2
    67   217   216    1
    68   141   139   ar
    69   208   207    1
    70   208   209    1
    71   219   216    1
    72   219   220    1
    73   215   216    1
    74   215   209   am
    75    68    66   ar
    76    68    67   ar
    77   149   151   ar
    78   149   147   ar
    79   209   210    2
    80   221   220   ar
    81   221   223   ar
    82   151   152   ar
    83   138   139    1
    84   138   135    1
    85    66    64   ar
    86    67    65   ar
    87   220   222   ar
    88   139   140   ar
    89   146   147    1
    90   146   143    1
    91   122   121    1
    92    75    74    1
    93    75    76    1
    94    78    77    1
    95   147   148   ar
    96   119   120    2
    97   119   118    1
    98   121   118    1
    99    74    73    1
   100   136   137    2
   101   136   135    1
   102   223   224   ar
   103   152   153    1
   104   152   150   ar
   105    87    85   am
   106   135   134    1
   107   145   144    2
   108    65    62   ar
   109    64    62   ar
   110    64    63   ar
   111   118   117    1
   112   144   143    1
   113   222   224   ar
   114   222   225   ar
   115    73    70    1
   116   143   142    1
   117    77    76    2
   118    77    79    1
   119   148   150   ar
   120    86    85    2
   121    70    69    1
   122    70    71    1
   123   134   125   am
   124    62    60   ar
   125   224   226   ar
   126    85    84    1
   127   195   194   ar
   128   195   193   ar
   129    72    71    2
   130    63    61   ar
   131   194   192   ar
   132   225   227   ar
   133   123   124    1
   134    80    81    1
   135   193   191   ar
   136   204   202   ar
   137   204   206   ar
   138   125   124    1
   139   125   126    2
   140   202   201   ar
   141    60    61   ar
   142    60    59    1
   143   226   228   ar
   144    55    56    1
   145    84    81    1
   146   116   115    1
   147   124   127    1
   148    56    59    1
   149    56    57    1
   150   192   189   ar
   151    81    82    1
   152   227   228   ar
   153   133   131    1
   154   197   196    1
   155   197   198    1
   156   197   200    1
   157   206   205   ar
   158   180   181    1
   159   180   177    1
   160   191   189   ar
   161   191   190   ar
   162   127   128    1
   163    58    57    2
   164   198   199    2
   165   201   200    1
   166   201   203   ar
   167   130   131    2
   168   130   129    1
   169   104   102   am
   170   175   173    1
   171   189   187   ar
   172   115   113   ar
   173   115   114   ar
   174   164   162    1
   175   131   132    1
   176    96    94   ar
   177    82    83    2
   178   177   178    1
   179   177   176    1
   180   103   102    2
   181   113   111   ar
   182    95    94   ar
   183   178   179    2
   184   190   188   ar
   185   205   203   ar
   186   102   101    1
   187   114   112   ar
   188   129   128    1
   189    94    93    1
   190   173   174    1
   191   173   172    2
   192   187   188   ar
   193   187   186    1
   194   162   161    2
   195   162   163    1
   196   161   160    1
   197   182   183    1
   198   183   186    1
   199   183   184    1
   200   111   110   ar
   201   172   171    1
   202   112   110   ar
   203   101    98    1
   204   185   184    2
   205    93    92    1
   206   110   109    1
   207   160   159    1
   208    98    99    1
   209    98    97    1
   210    92    89    1
   211   105   106    1
   212   168   167    2
   213    99   100    2
   214   159   158    1
   215   171   170    1
   216    88    89    1
   217   106   109    1
   218   106   107    1
   219   169   170    1
   220   169   166    1
   221   167   166    1
   222    89    90    1
   223   158   155    1
   224   166   165    1
   225   165   156   am
   226    90    91    2
   227   107   108    2
   228   155   156    1
   229   155   154    1
   230   156   157    2
