@<TRIPOS>MOLECULE
tmp/6eq0B00.pdb
 138 135 0 0 0
SMALL
GASTEIGER

@<TRIPOS>ATOM
      1  N         24.8900  -22.2290   17.0600 N.3   103  TRP103     -0.1227
      2  CA        25.8050  -21.0960   16.9630 C.3   103  TRP103      0.1737
      3  C         26.4970  -21.0530   15.5880 C.2   103  TRP103      0.2596
      4  O         25.9230  -21.5370   14.6130 O.2   103  TRP103     -0.2718
      5  CB        26.7930  -21.0700   18.1620 C.3   103  TRP103      0.0564
      6  CG        26.1300  -21.1910   19.5040 C.ar  103  TRP103      0.0003
      7  CD1       26.0860  -22.3000   20.2960 C.ar  103  TRP103      0.0946
      8  CD2       25.3770  -20.1770   20.1890 C.ar  103  TRP103      0.0152
      9  NE1       25.3880  -22.0280   21.4540 N.ar  103  TRP103     -0.2442
     10  CE2       24.9350  -20.7350   21.4090 C.ar  103  TRP103      0.0810
     11  CE3       25.0820  -18.8300   19.9150 C.ar  103  TRP103      0.0012
     12  CZ2       24.2010  -20.0010   22.3470 C.ar  103  TRP103      0.0191
     13  CZ3       24.3350  -18.1080   20.8370 C.ar  103  TRP103      0.0001
     14  CH2       23.8910  -18.6960   22.0310 C.ar  103  TRP103      0.0015
     15  N         27.6770  -20.4490   15.5050 N.am  104  GLY104     -0.1942
     16  CA        28.4290  -20.3390   14.2600 C.3   104  GLY104      0.2014
     17  C         27.7090  -19.6280   13.1190 C.2   104  GLY104      0.2639
     18  O         27.9750  -19.9140   11.9420 O.2   104  GLY104     -0.2714
     19  N         26.7970  -18.7160   13.4860 N.am  105  GLY105     -0.1954
     20  CA        26.0150  -17.8750   12.5870 C.3   105  GLY105      0.1869
     21  C         24.6360  -18.3900   12.2400 C.2   105  GLY105      0.2309
     22  O         23.9200  -17.7430   11.4770 O.2   105  GLY105     -0.2863
     23  N         21.8400  -18.9490   14.3120 N.3   107  ASP107     -0.1225
     24  CA        20.7460  -18.1760   14.9230 C.3   107  ASP107      0.1805
     25  C         20.7790  -16.6850   14.4970 C.2   107  ASP107      0.2597
     26  O         19.7380  -16.0060   14.5250 O.2   107  ASP107     -0.2718
     27  CB        20.7060  -18.3620   16.4570 C.3   107  ASP107      0.1424
     28  CG        21.9690  -17.9380   17.1730 C.2   107  ASP107      0.3668
     29  OD1       23.0570  -18.4860   16.8420 O.co2 107  ASP107     -0.2456
     30  OD2       21.8780  -17.0440   18.0580 O.co2 107  ASP107     -0.2456
     31  N         21.9600  -16.2110   14.0580 N.am  108  ILE108     -0.1980
     32  CA        22.1550  -14.8520   13.5440 C.3   108  ILE108      0.1595
     33  C         21.4340  -14.7140   12.1630 C.2   108  ILE108      0.2287
     34  O         20.7740  -13.7050   11.9040 O.2   108  ILE108     -0.2864
     35  CB        23.6770  -14.5120   13.4270 C.3   108  ILE108      0.0276
     36  CG1       24.3880  -14.5370   14.8030 C.3   108  ILE108      0.0022
     37  CG2       23.8840  -13.1750   12.6800 C.3   108  ILE108      0.0022
     38  CD1       25.9100  -14.2680   14.7460 C.3   108  ILE108      0.0001
     39  N         20.5920   -7.8890   18.2650 N.3   225  TYR225     -0.1241
     40  CA        20.9480   -9.2600   18.6500 C.3   225  TYR225      0.1605
     41  C         21.8790   -9.2520   19.8760 C.2   225  TYR225      0.2264
     42  O         22.7860   -8.4170   19.9250 O.2   225  TYR225     -0.2867
     43  CB        21.6000   -9.9900   17.4520 C.3   225  TYR225      0.0534
     44  CG        22.1450  -11.3800   17.7390 C.ar  225  TYR225     -0.0201
     45  CD1       23.3770  -11.5530   18.3660 C.ar  225  TYR225     -0.0009
     46  CD2       21.4650  -12.5220   17.3150 C.ar  225  TYR225     -0.0009
     47  CE1       23.8810  -12.8250   18.6400 C.ar  225  TYR225      0.0417
     48  CE2       21.9810  -13.8000   17.5490 C.ar  225  TYR225      0.0417
     49  CZ        23.2030  -13.9450   18.1950 C.ar  225  TYR225      0.1957
     50  OH        23.7500  -15.1850   18.4260 O.3   225  TYR225     -0.2866
     51  N         34.7240  -26.8990   16.7950 N.3   310  TRP310     -0.1241
     52  CA        35.1280  -25.4810   16.6420 C.3   310  TRP310      0.1605
     53  C         36.5110  -25.3120   15.9860 C.2   310  TRP310      0.2264
     54  O         36.7470  -24.3470   15.2310 O.2   310  TRP310     -0.2867
     55  CB        35.0330  -24.7140   17.9770 C.3   310  TRP310      0.0550
     56  CG        33.6150  -24.4550   18.3880 C.ar  310  TRP310      0.0003
     57  CD1       32.9840  -24.9410   19.4920 C.ar  310  TRP310      0.0946
     58  CD2       32.6150  -23.7480   17.6300 C.ar  310  TRP310      0.0152
     59  NE1       31.6790  -24.5060   19.5220 N.ar  310  TRP310     -0.2442
     60  CE2       31.4180  -23.7910   18.3760 C.ar  310  TRP310      0.0810
     61  CE3       32.6190  -23.0770   16.3960 C.ar  310  TRP310      0.0012
     62  CZ2       30.2290  -23.1950   17.9210 C.ar  310  TRP310      0.0191
     63  CZ3       31.4490  -22.5050   15.9430 C.ar  310  TRP310      0.0001
     64  CH2       30.2740  -22.5590   16.7010 C.ar  310  TRP310      0.0015
     65  N         36.3430  -26.0750   12.1780 N.3   313  ARG313     -0.1245
     66  CA        35.9000  -24.9110   11.4130 C.3   313  ARG313      0.1563
     67  C         37.1090  -24.1910   10.7770 C.2   313  ARG313      0.2260
     68  O         37.0610  -23.8570    9.5950 O.2   313  ARG313     -0.2867
     69  CB        35.0210  -23.9540   12.2540 C.3   313  ARG313      0.0307
     70  CG        34.6270  -22.7070   11.4460 C.3   313  ARG313      0.0489
     71  CD        33.8350  -21.6380   12.1410 C.3   313  ARG313      0.2205
     72  NE        34.5090  -21.1070   13.3150 N.pl3 313  ARG313     -0.0865
     73  CZ        33.9440  -20.2860   14.1860 C.cat 313  ARG313      0.5346
     74  NH1       32.7030  -19.8580   13.9980 N.pl3 313  ARG313      0.1354
     75  NH2       34.6140  -19.8800   15.2480 N.pl3 313  ARG313      0.1354
     76  N         36.1150  -17.8710   12.1910 N.3   326  ASN326     -0.1240
     77  CA        36.5500  -16.8800   13.1660 C.3   326  ASN326      0.1653
     78  C         37.6210  -17.6670   13.8620 C.2   326  ASN326      0.2266
     79  O         37.2890  -18.6300   14.5180 O.2   326  ASN326     -0.2867
     80  CB        35.4370  -16.5040   14.1800 C.3   326  ASN326      0.1155
     81  CG        34.3480  -15.6180   13.6340 C.2   326  ASN326      0.2627
     82  OD1       34.5490  -14.8230   12.7300 O.2   326  ASN326     -0.2716
     83  ND2       33.1800  -15.7130   14.2060 N.am  326  ASN326     -0.0877
     84  N         39.7790  -18.0540   16.5630 N.3   328  GLU328     -0.1245
     85  CA        39.7390  -17.5310   17.9380 C.3   328  GLU328      0.1567
     86  C         40.4690  -18.3740   18.9790 C.2   328  GLU328      0.2260
     87  O         40.4530  -18.0280   20.1630 O.2   328  GLU328     -0.2867
     88  CB        38.2520  -17.3660   18.3390 C.3   328  GLU328      0.0388
     89  CG        37.4490  -18.6290   18.0780 C.3   328  GLU328      0.1160
     90  CD        35.9480  -18.4460   18.0140 C.2   328  GLU328      0.3649
     91  OE1       35.4870  -17.3400   17.6620 O.co2 328  GLU328     -0.2457
     92  OE2       35.2260  -19.4240   18.3000 O.co2 328  GLU328     -0.2457
     93  N         35.7830  -25.9310   23.4930 N.3   480  TYR480     -0.1241
     94  CA        36.9690  -25.1490   23.1280 C.3   480  TYR480      0.1605
     95  C         38.1830  -25.5940   23.8650 C.2   480  TYR480      0.2264
     96  O         38.1250  -25.7390   25.0670 O.2   480  TYR480     -0.2867
     97  CB        36.7440  -23.6290   23.3380 C.3   480  TYR480      0.0534
     98  CG        35.4760  -23.1010   22.6910 C.ar  480  TYR480     -0.0201
     99  CD1       34.2330  -23.2980   23.2850 C.ar  480  TYR480     -0.0009
    100  CD2       35.5150  -22.4150   21.4790 C.ar  480  TYR480     -0.0009
    101  CE1       33.0550  -22.8800   22.6650 C.ar  480  TYR480      0.0417
    102  CE2       34.3440  -21.9640   20.8680 C.ar  480  TYR480      0.0417
    103  CZ        33.1140  -22.1950   21.4730 C.ar  480  TYR480      0.1957
    104  OH        31.9190  -21.8100   20.9130 O.3   480  TYR480     -0.2866
    105  N         34.5110  -16.8060   27.8660 N.3   526  ARG526     -0.1245
    106  CA        34.9690  -15.8820   26.8430 C.3   526  ARG526      0.1563
    107  C         34.0680  -14.6470   26.9730 C.2   526  ARG526      0.2260
    108  O         32.8530  -14.7830   27.1630 O.2   526  ARG526     -0.2867
    109  CB        34.8730  -16.5220   25.4510 C.3   526  ARG526      0.0307
    110  CG        35.6350  -15.7490   24.3920 C.3   526  ARG526      0.0489
    111  CD        35.7360  -16.5370   23.1120 C.3   526  ARG526      0.2205
    112  NE        34.4130  -16.8210   22.5470 N.pl3 526  ARG526     -0.0865
    113  CZ        34.1780  -17.7720   21.6550 C.cat 526  ARG526      0.5346
    114  NH1       35.1670  -18.5370   21.2140 N.pl3 526  ARG526      0.1354
    115  NH2       32.9580  -17.9600   21.1880 N.pl3 526  ARG526      0.1354
    116  N         29.6330  -11.0570   16.4520 N.3   632  TRP632     -0.1241
    117  CA        30.4770  -11.9450   15.6700 C.3   632  TRP632      0.1605
    118  C         30.4400  -11.5700   14.2090 C.2   632  TRP632      0.2264
    119  O         29.3800  -11.1450   13.7240 O.2   632  TRP632     -0.2867
    120  CB        30.0120  -13.4030   15.8420 C.3   632  TRP632      0.0550
    121  CG        30.2390  -13.9150   17.2300 C.ar  632  TRP632      0.0003
    122  CD1       29.2990  -14.0930   18.2050 C.ar  632  TRP632      0.0946
    123  CD2       31.5030  -14.2520   17.8220 C.ar  632  TRP632      0.0152
    124  NE1       29.9020  -14.5290   19.3640 N.ar  632  TRP632     -0.2442
    125  CE2       31.2530  -14.6400   19.1530 C.ar  632  TRP632      0.0810
    126  CE3       32.8200  -14.2980   17.3430 C.ar  632  TRP632      0.0012
    127  CZ2       32.2750  -15.0090   20.0240 C.ar  632  TRP632      0.0191
    128  CZ3       33.8360  -14.6680   18.2120 C.ar  632  TRP632      0.0001
    129  CH2       33.5590  -15.0220   19.5330 C.ar  632  TRP632      0.0015
    130  N         30.0490  -13.1510   11.4620 N.3   634  GLU634     -0.1245
    131  CA        28.9280  -13.7080   10.6770 C.3   634  GLU634      0.1567
    132  C         27.8600  -12.6490   10.4910 C.2   634  GLU634      0.2260
    133  O         27.3840  -12.4770    9.3870 O.2   634  GLU634     -0.2867
    134  CB        28.2920  -14.9450   11.3570 C.3   634  GLU634      0.0388
    135  CG        29.1580  -16.1910   11.3950 C.3   634  GLU634      0.1160
    136  CD        30.0570  -16.3720   12.6080 C.2   634  GLU634      0.3649
    137  OE1       30.3900  -15.3680   13.2760 O.co2 634  GLU634     -0.2457
    138  OE2       30.5310  -17.5110   12.8090 O.co2 634  GLU634     -0.2457
@<TRIPOS>BOND
     1   133   132    2
     2    68    67    2
     3   132   131    1
     4   131   134    1
     5   131   130    1
     6    67    66    1
     7   134   135    1
     8   135   136    1
     9    66    65    1
    10    66    69    1
    11    70    71    1
    12    70    69    1
    13    22    21    2
    14    34    33    2
    15    18    17    2
    16    71    72    1
    17    33    32    1
    18    76    77    1
    19    21    20    1
    20    20    19    1
    21   136   138   ar
    22   136   137   ar
    23    37    35    1
    24    82    81    2
    25    17    19   am
    26    17    16    1
    27    77    78    1
    28    77    80    1
    29    72    73    2
    30    35    32    1
    31    35    36    1
    32    32    31    1
    33    81    80    1
    34    81    83   am
    35   119   118    2
    36    78    79    2
    37    74    73    1
    38    31    25   am
    39    73    75    1
    40   118   117    1
    41    16    15    1
    42    23    24    1
    43    25    26    2
    44    25    24    1
    45     4     3    2
    46    38    36    1
    47    24    27    1
    48    54    53    2
    49    15     3   am
    50     3     2    1
    51   117   120    1
    52   117   116    1
    53   120   121    1
    54    63    61   ar
    55    63    64   ar
    56    53    52    1
    57    61    58   ar
    58    27    28    1
    59    84    85    1
    60    52    51    1
    61    52    55    1
    62    64    62   ar
    63    29    28   ar
    64     2     1    1
    65     2     5    1
    66    28    30   ar
    67   121   123   ar
    68   121   122   ar
    69    46    48   ar
    70    46    44   ar
    71   126   123   ar
    72   126   128   ar
    73    43    44    1
    74    43    40    1
    75    48    49   ar
    76    58    60   ar
    77    58    56   ar
    78    91    90   ar
    79    44    45   ar
    80   123   125   ar
    81    62    60   ar
    82    85    88    1
    83    85    86    1
    84    55    56    1
    85    90    89    1
    86    90    92   ar
    87    89    88    1
    88     5     6    1
    89    49    50    1
    90    49    47   ar
    91   122   124   ar
    92   128   129   ar
    93    39    40    1
    94    45    47   ar
    95    60    59   ar
    96    56    57   ar
    97    40    41    1
    98    86    87    2
    99   125   124   ar
   100   125   127   ar
   101    57    59   ar
   102     6     8   ar
   103     6     7   ar
   104   129   127   ar
   105    41    42    2
   106    11     8   ar
   107    11    13   ar
   108     8    10   ar
   109     7     9   ar
   110    13    14   ar
   111   102   103   ar
   112   102   100   ar
   113   104   103    1
   114   115   113    1
   115   114   113    1
   116    10     9   ar
   117    10    12   ar
   118   103   101   ar
   119   100    98   ar
   120   113   112    2
   121    14    12   ar
   122   112   111    1
   123   101    99   ar
   124    98    99   ar
   125    98    97    1
   126   111   110    1
   127    94    97    1
   128    94    93    1
   129    94    95    1
   130    95    96    2
   131   110   109    1
   132   109   106    1
   133   106   107    1
   134   106   105    1
   135   107   108    2
