@<TRIPOS>MOLECULE
tmp/6eq1A06.pdb
 92 91 0 0 0
SMALL
GASTEIGER

@<TRIPOS>ATOM
      1  N         40.7280   22.0270   82.0610 N.3   350  ALA350     -0.1231
      2  CA        41.2170   20.7060   81.6780 C.3   350  ALA350      0.1694
      3  C         41.3410   20.5940   80.1490 C.2   350  ALA350      0.2592
      4  O         40.3420   20.7670   79.4250 O.2   350  ALA350     -0.2718
      5  CB        40.2800   19.6180   82.2190 C.3   350  ALA350      0.0304
      6  N         42.5430   20.2620   79.6840 N.am  351  PHE351     -0.1962
      7  CA        42.8670   20.0270   78.2650 C.3   351  PHE351      0.1771
      8  C         42.4720   18.5950   77.8810 C.2   351  PHE351      0.2620
      9  O         42.4740   17.7100   78.7250 O.2   351  PHE351     -0.2715
     10  CB        44.3720   20.2460   77.9970 C.3   351  PHE351      0.0574
     11  CG        44.7220   21.6920   77.7100 C.ar  351  PHE351     -0.0200
     12  CD1       44.5330   22.2340   76.4440 C.ar  351  PHE351     -0.0042
     13  CD2       45.1970   22.5230   78.7180 C.ar  351  PHE351     -0.0042
     14  CE1       44.8130   23.5880   76.1930 C.ar  351  PHE351     -0.0003
     15  CE2       45.5050   23.8680   78.4560 C.ar  351  PHE351     -0.0003
     16  CZ        45.2930   24.3940   77.1990 C.ar  351  PHE351     -0.0000
     17  N         42.1320   18.3800   76.6300 N.am  352  GLY352     -0.1940
     18  CA        41.7880   17.0480   76.1480 C.3   352  GLY352      0.1998
     19  C         42.6640   16.6910   74.9700 C.2   352  GLY352      0.2480
     20  O         43.7400   17.2710   74.8320 O.2   352  GLY352     -0.2729
     21  N         42.2390   15.7370   74.0980 N.am  353  PRO353     -0.2726
     22  CA        43.0990   15.3430   72.9620 C.3   353  PRO353      0.1402
     23  C         43.1830   16.4270   71.8840 C.2   353  PRO353      0.2269
     24  O         42.4200   17.3790   71.9420 O.2   353  PRO353     -0.2865
     25  CB        42.4440   14.0530   72.4510 C.3   353  PRO353      0.0296
     26  CG        41.0410   14.1620   72.8340 C.3   353  PRO353      0.0237
     27  CD        40.9760   14.9660   74.1170 C.3   353  PRO353      0.0939
     28  N         41.9920   17.8190   69.0020 N.3   355  LEU355     -0.1231
     29  CA        40.8200   17.6990   68.1450 C.3   355  LEU355      0.1693
     30  C         40.3890   19.0070   67.4410 C.2   355  LEU355      0.2591
     31  O         39.3820   19.0040   66.7210 O.2   355  LEU355     -0.2718
     32  CB        39.6610   17.0950   68.9510 C.3   355  LEU355      0.0284
     33  CG        39.8310   15.6490   69.3860 C.3   355  LEU355      0.0019
     34  CD1       38.6920   15.2430   70.2280 C.3   355  LEU355      0.0001
     35  CD2       39.9570   14.6870   68.1680 C.3   355  LEU355      0.0001
     36  N         41.1470   20.1160   67.6540 N.am  356  ILE356     -0.1980
     37  CA        40.8760   21.4110   67.0190 C.3   356  ILE356      0.1595
     38  C         41.8260   21.5330   65.8610 C.2   356  ILE356      0.2287
     39  O         43.0360   21.5330   66.0500 O.2   356  ILE356     -0.2864
     40  CB        40.9480   22.6370   67.9750 C.3   356  ILE356      0.0276
     41  CG1       40.0640   22.4460   69.2530 C.3   356  ILE356      0.0022
     42  CG2       40.6150   23.9430   67.2190 C.3   356  ILE356      0.0022
     43  CD1       38.5740   21.9800   69.0240 C.3   356  ILE356      0.0001
     44  N         42.1790   21.8080   72.9190 N.3   610  GLY610     -0.1225
     45  CA        41.4640   22.8800   73.5880 C.3   610  GLY610      0.1811
     46  C         41.2300   22.4560   75.0300 C.2   610  GLY610      0.2280
     47  O         41.4350   21.2830   75.3830 O.2   610  GLY610     -0.2866
     48  N         38.4330   22.7060   78.4590 N.3   612  LEU612     -0.1245
     49  CA        37.1380   23.0780   79.0010 C.3   612  LEU612      0.1561
     50  C         37.3860   23.8550   80.3220 C.2   612  LEU612      0.2260
     51  O         38.1670   23.4200   81.1460 O.2   612  LEU612     -0.2867
     52  CB        36.2760   21.8330   79.2500 C.3   612  LEU612      0.0270
     53  CG        34.9110   22.0990   79.8720 C.3   612  LEU612      0.0019
     54  CD1       34.0180   22.8100   78.9100 C.3   612  LEU612      0.0001
     55  CD2       34.2730   20.8140   80.3670 C.3   612  LEU612      0.0001
     56  N         36.9030   14.6650   82.1170 N.3   624  GLY624     -0.1210
     57  CA        37.5400   14.5350   80.8170 C.3   624  GLY624      0.1956
     58  C         36.6520   14.8310   79.6300 C.2   624  GLY624      0.2613
     59  O         36.9010   14.2900   78.5630 O.2   624  GLY624     -0.2717
     60  N         35.6260   15.6950   79.7770 N.am  625  THR625     -0.1939
     61  CA        34.7660   16.0900   78.6490 C.3   625  THR625      0.2013
     62  C         35.5970   16.8710   77.6250 C.2   625  THR625      0.2484
     63  O         36.1970   17.9000   78.0270 O.2   625  THR625     -0.2729
     64  CB        33.6070   17.0030   79.0880 C.3   625  THR625      0.1807
     65  OG1       32.8870   16.3750   80.1280 O.3   625  THR625     -0.2208
     66  CG2       32.6520   17.3670   77.9050 C.3   625  THR625      0.0379
     67  N         35.6130   16.4480   76.3200 N.am  626  PRO626     -0.2715
     68  CA        36.3300   17.2490   75.2990 C.3   626  PRO626      0.1536
     69  C         35.5450   18.5150   74.9270 C.2   626  PRO626      0.2598
     70  O         34.2950   18.5380   75.0110 O.2   626  PRO626     -0.2715
     71  CB        36.4400   16.2980   74.1080 C.3   626  PRO626      0.0310
     72  CG        35.2950   15.3790   74.2440 C.3   626  PRO626      0.0237
     73  CD        34.9220   15.2920   75.7080 C.3   626  PRO626      0.0939
     74  N         36.2490   19.5740   74.5100 N.am  627  ILE627     -0.1964
     75  CA        35.5530   20.7910   74.0880 C.3   627  ILE627      0.1727
     76  C         34.7790   20.5820   72.7890 C.2   627  ILE627      0.2616
     77  O         33.8000   21.2810   72.5480 O.2   627  ILE627     -0.2715
     78  CB        36.4340   22.0500   74.0250 C.3   627  ILE627      0.0290
     79  CG1       37.6170   21.9110   73.0170 C.3   627  ILE627      0.0022
     80  CG2       36.8740   22.4380   75.4060 C.3   627  ILE627      0.0023
     81  CD1       38.0880   23.2820   72.5110 C.3   627  ILE627      0.0001
     82  N         35.2160   19.5820   71.9870 N.am  628  PHE628     -0.1974
     83  CA        34.6950   19.2320   70.7030 C.3   628  PHE628      0.1639
     84  C         35.0980   17.8330   70.2660 C.2   628  PHE628      0.2290
     85  O         36.2710   17.5790   69.9800 O.2   628  PHE628     -0.2864
     86  CB        35.2050   20.2530   69.6750 C.3   628  PHE628      0.0560
     87  CG        34.6250   20.1300   68.2860 C.ar  628  PHE628     -0.0200
     88  CD1       33.3220   20.5500   68.0190 C.ar  628  PHE628     -0.0042
     89  CD2       35.4060   19.6860   67.2290 C.ar  628  PHE628     -0.0042
     90  CE1       32.7950   20.4660   66.7400 C.ar  628  PHE628     -0.0003
     91  CE2       34.8830   19.6140   65.9360 C.ar  628  PHE628     -0.0003
     92  CZ        33.5890   20.0270   65.6960 C.ar  628  PHE628     -0.0000
@<TRIPOS>BOND
     1    92    91   ar
     2    92    90   ar
     3    38    39    2
     4    38    37    1
     5    91    89   ar
     6    31    30    2
     7    90    88   ar
     8    37    36    1
     9    37    40    1
    10    42    40    1
    11    89    87   ar
    12    30    36   am
    13    30    29    1
    14    40    41    1
    15    88    87   ar
    16    29    32    1
    17    29    28    1
    18    35    33    1
    19    87    86    1
    20    32    33    1
    21    43    41    1
    22    33    34    1
    23    86    83    1
    24    85    84    2
    25    84    83    1
    26    83    82    1
    27    23    24    2
    28    23    22    1
    29    82    76   am
    30    25    26    1
    31    25    22    1
    32    81    79    1
    33    77    76    2
    34    76    75    1
    35    26    27    1
    36    44    45    1
    37    22    21    1
    38    79    78    1
    39    45    46    1
    40    78    75    1
    41    78    80    1
    42    75    74    1
    43    21    27    1
    44    21    19   am
    45    71    72    1
    46    71    68    1
    47    72    73    1
    48    74    69   am
    49    20    19    2
    50    69    70    2
    51    69    68    1
    52    19    18    1
    53    46    47    2
    54    68    67    1
    55    73    67    1
    56    18    17    1
    57    14    12   ar
    58    14    16   ar
    59    67    62   am
    60    12    11   ar
    61    17     8   am
    62    16    15   ar
    63    62    63    2
    64    62    61    1
    65    11    10    1
    66    11    13   ar
    67     8     7    1
    68     8     9    2
    69    66    64    1
    70    10     7    1
    71     7     6    1
    72    15    13   ar
    73    48    49    1
    74    59    58    2
    75    61    64    1
    76    61    60    1
    77    54    53    1
    78    49    52    1
    79    49    50    1
    80    64    65    1
    81    52    53    1
    82     4     3    2
    83    58    60   am
    84    58    57    1
    85     6     3   am
    86    53    55    1
    87     3     2    1
    88    50    51    2
    89    57    56    1
    90     2     1    1
    91     2     5    1
