@<TRIPOS>MOLECULE
tmp/6eq1B00.pdb
 79 75 0 0 0
SMALL
GASTEIGER

@<TRIPOS>ATOM
      1  N         32.1750    7.0540   14.5210 N.3   125  ALA125     -0.1245
      2  CA        31.5050    8.2180   15.0810 C.3   125  ALA125      0.1562
      3  C         31.2570    8.0900   16.5740 C.2   125  ALA125      0.2260
      4  O         31.1260    6.9740   17.0950 O.2   125  ALA125     -0.2867
      5  CB        30.2060    8.4910   14.3390 C.3   125  ALA125      0.0290
      6  N         40.4670   -8.3660   20.9280 N.3   355  LEU355     -0.1245
      7  CA        39.1120   -8.2610   21.4440 C.3   355  LEU355      0.1561
      8  C         38.5340   -9.5750   22.0080 C.2   355  LEU355      0.2260
      9  O         37.3630   -9.6000   22.4060 O.2   355  LEU355     -0.2867
     10  CB        38.1980   -7.6780   20.3620 C.3   355  LEU355      0.0270
     11  CG        38.4490   -6.2290   19.9550 C.3   355  LEU355      0.0019
     12  CD1       37.5480   -5.8570   18.8110 C.3   355  LEU355      0.0001
     13  CD2       38.2240   -5.2650   21.1420 C.3   355  LEU355      0.0001
     14  N         41.5860   -3.5110   23.2160 N.3   421  GLY421     -0.1210
     15  CA        41.2270   -3.1680   21.8400 C.3   421  GLY421      0.1956
     16  C         40.0880   -2.1770   21.6330 C.2   421  GLY421      0.2613
     17  O         39.8740   -1.7480   20.5020 O.2   421  GLY421     -0.2717
     18  N         39.3200   -1.8310   22.6960 N.am  422  THR422     -0.1938
     19  CA        38.1850   -0.8830   22.6540 C.3   422  THR422      0.2028
     20  C         38.7050    0.5410   22.8700 C.2   422  THR422      0.2643
     21  O         39.4620    0.7670   23.8170 O.2   422  THR422     -0.2714
     22  CB        37.1740   -1.2010   23.7880 C.3   422  THR422      0.1808
     23  OG1       36.9260   -2.5980   23.8520 O.3   422  THR422     -0.2208
     24  CG2       35.8590   -0.4290   23.6670 C.3   422  THR422      0.0379
     25  N         38.2420    1.5140   22.0610 N.am  423  SER423     -0.1935
     26  CA        38.6110    2.9400   22.1940 C.3   423  SER423      0.2055
     27  C         38.3980    3.4830   23.6330 C.2   423  SER423      0.2643
     28  O         39.1280    4.3930   24.0630 O.2   423  SER423     -0.2714
     29  CB        37.8180    3.7920   21.2040 C.3   423  SER423      0.2130
     30  OG        36.4650    3.3700   21.0950 O.3   423  SER423     -0.2179
     31  N         37.4140    2.8870   24.3760 N.am  424  PHE424     -0.1973
     32  CA        37.0360    3.2520   25.7460 C.3   424  PHE424      0.1639
     33  C         38.0490    2.8500   26.8050 C.2   424  PHE424      0.2290
     34  O         38.0110    3.3870   27.9150 O.2   424  PHE424     -0.2864
     35  CB        35.6450    2.7120   26.1080 C.3   424  PHE424      0.0560
     36  CG        34.4970    3.5340   25.5800 C.ar  424  PHE424     -0.0200
     37  CD1       34.1980    4.7810   26.1310 C.ar  424  PHE424     -0.0042
     38  CD2       33.6920    3.0520   24.5560 C.ar  424  PHE424     -0.0042
     39  CE1       33.1370    5.5470   25.6350 C.ar  424  PHE424     -0.0003
     40  CE2       32.6200    3.8060   24.0780 C.ar  424  PHE424     -0.0003
     41  CZ        32.3480    5.0470   24.6210 C.ar  424  PHE424     -0.0000
     42  N         34.1690   -5.9400   24.8890 N.3   532  SER532     -0.1202
     43  CA        34.7960   -5.7090   23.5790 C.3   532  SER532      0.2020
     44  C         34.3820   -4.3840   22.9060 C.2   532  SER532      0.2619
     45  O         35.1160   -3.8900   22.0390 O.2   532  SER532     -0.2717
     46  CB        34.4830   -6.8720   22.6410 C.3   532  SER532      0.2103
     47  OG        35.1780   -8.0280   23.0770 O.3   532  SER532     -0.2182
     48  N         33.2010   -3.8230   23.2720 N.am  533  SER533     -0.1951
     49  CA        32.6640   -2.6160   22.6230 C.3   533  SER533      0.1924
     50  C         32.1090   -1.5550   23.5600 C.2   533  SER533      0.2314
     51  O         31.9860   -0.4010   23.1440 O.2   533  SER533     -0.2863
     52  CB        31.5930   -3.0030   21.6080 C.3   533  SER533      0.2116
     53  OG        30.5060   -3.6520   22.2480 O.3   533  SER533     -0.2180
     54  N         29.4670   -0.1300   24.2740 N.3   535  VAL535     -0.1245
     55  CA        28.1910    0.3860   23.7800 C.3   535  VAL535      0.1561
     56  C         27.1730   -0.7270   23.4420 C.2   535  VAL535      0.2260
     57  O         25.9710   -0.4640   23.4810 O.2   535  VAL535     -0.2867
     58  CB        28.3760    1.3950   22.6140 C.3   535  VAL535      0.0252
     59  CG1       29.0550    2.6690   23.1100 C.3   535  VAL535      0.0019
     60  CG2       29.1410    0.7780   21.4430 C.3   535  VAL535      0.0019
     61  N         33.0970   -7.8440   17.8810 N.3   629  MET629     -0.1230
     62  CA        33.1250   -6.4700   18.3740 C.3   629  MET629      0.1702
     63  C         31.7110   -6.1560   18.8370 C.2   629  MET629      0.2592
     64  O         31.4220   -6.4230   19.9940 O.2   629  MET629     -0.2718
     65  CB        33.6630   -5.4940   17.3170 C.3   629  MET629      0.0401
     66  CG        34.0640   -4.1650   17.8700 C.3   629  MET629      0.0596
     67  SD        34.5580   -3.0160   16.5690 S.3   629  MET629     -0.1393
     68  CE        36.2800   -3.4390   16.3940 C.3   629  MET629      0.0692
     69  N         30.8150   -5.6730   17.9460 N.am  630  PHE630     -0.1976
     70  CA        29.4010   -5.4220   18.2840 C.3   630  PHE630      0.1639
     71  C         28.6470   -6.7550   18.2290 C.2   630  PHE630      0.2290
     72  O         27.6250   -6.9180   18.8860 O.2   630  PHE630     -0.2864
     73  CB        28.7630   -4.3860   17.3530 C.3   630  PHE630      0.0560
     74  CG        29.4600   -3.0520   17.3710 C.ar  630  PHE630     -0.0200
     75  CD1       30.5090   -2.7870   16.4970 C.ar  630  PHE630     -0.0042
     76  CD2       29.0820   -2.0630   18.2740 C.ar  630  PHE630     -0.0042
     77  CE1       31.1960   -1.5740   16.5550 C.ar  630  PHE630     -0.0003
     78  CE2       29.7450   -0.8330   18.3080 C.ar  630  PHE630     -0.0003
     79  CZ        30.8010   -0.5970   17.4520 C.ar  630  PHE630     -0.0000
@<TRIPOS>BOND
     1     5     2    1
     2     1     2    1
     3     2     3    1
     4    68    67    1
     5    75    77   ar
     6    75    74   ar
     7    77    79   ar
     8    67    66    1
     9     3     4    2
    10    65    66    1
    11    65    62    1
    12    73    74    1
    13    73    70    1
    14    74    76   ar
    15    79    78   ar
    16    61    62    1
    17    69    70    1
    18    69    63   am
    19    71    70    1
    20    71    72    2
    21    76    78   ar
    22    62    63    1
    23    12    11    1
    24    63    64    2
    25    11    10    1
    26    11    13    1
    27    10     7    1
    28    17    16    2
    29     6     7    1
    30    30    29    1
    31    29    26    1
    32    60    58    1
    33     7     8    1
    34    52    53    1
    35    52    49    1
    36    16    15    1
    37    16    18   am
    38    15    14    1
    39     8     9    2
    40    45    44    2
    41    25    26    1
    42    25    20   am
    43    26    27    1
    44    58    59    1
    45    58    55    1
    46    49    48    1
    47    49    50    1
    48    46    47    1
    49    46    43    1
    50    19    18    1
    51    19    20    1
    52    19    22    1
    53    20    21    2
    54    44    48   am
    55    44    43    1
    56    51    50    2
    57    56    57    2
    58    56    55    1
    59    43    42    1
    60    27    28    2
    61    27    31   am
    62    24    22    1
    63    55    54    1
    64    22    23    1
    65    40    38   ar
    66    40    41   ar
    67    31    32    1
    68    38    36   ar
    69    41    39   ar
    70    36    35    1
    71    36    37   ar
    72    39    37   ar
    73    32    35    1
    74    32    33    1
    75    33    34    2
