@<TRIPOS>MOLECULE
tmp/6eq2A00.pdb
 130 128 0 0 0
SMALL
GASTEIGER

@<TRIPOS>ATOM
      1  N        -19.7360   10.4210    7.6290 N.3     7  LEU7       -0.1245
      2  CA       -19.0890   11.7220    7.7830 C.3     7  LEU7        0.1561
      3  C        -19.0780   12.3550    6.4050 C.2     7  LEU7        0.2260
      4  O        -18.5880   11.7250    5.4700 O.2     7  LEU7       -0.2867
      5  CB       -17.6610   11.5690    8.3160 C.3     7  LEU7        0.0270
      6  CG       -16.9210   12.8720    8.5770 C.3     7  LEU7        0.0019
      7  CD1      -17.6910   13.7210    9.5830 C.3     7  LEU7        0.0001
      8  CD2      -15.5190   12.5890    9.0890 C.3     7  LEU7        0.0001
      9  N        -20.3130   14.0520   21.8660 N.3    25  PHE25      -0.1241
     10  CA       -19.0460   13.4290   21.4910 C.3    25  PHE25       0.1605
     11  C        -18.3180   14.2970   20.4730 C.2    25  PHE25       0.2264
     12  O        -18.8540   14.5750   19.3980 O.2    25  PHE25      -0.2867
     13  CB       -19.3030   12.0420   20.9150 C.3    25  PHE25       0.0534
     14  CG       -18.0560   11.2880   20.5580 C.ar   25  PHE25      -0.0203
     15  CD1      -17.2540   10.7450   21.5450 C.ar   25  PHE25      -0.0042
     16  CD2      -17.6980   11.1080   19.2320 C.ar   25  PHE25      -0.0042
     17  CE1      -16.1160   10.0490   21.2190 C.ar   25  PHE25      -0.0003
     18  CE2      -16.5560   10.4130   18.9040 C.ar   25  PHE25      -0.0003
     19  CZ       -15.7660    9.8810   19.9020 C.ar   25  PHE25      -0.0000
     20  N        -15.5800   19.7240   12.6110 N.3    31  ASN31      -0.1240
     21  CA       -15.7270   18.4190   11.9790 C.3    31  ASN31       0.1653
     22  C        -16.6440   18.5400   10.7760 C.2    31  ASN31       0.2266
     23  O        -17.3000   19.5680   10.5650 O.2    31  ASN31      -0.2867
     24  CB       -16.2840   17.3880   12.9640 C.3    31  ASN31       0.1155
     25  CG       -15.8890   15.9610   12.6020 C.2    31  ASN31       0.2627
     26  OD1      -15.4310   15.6820   11.4830 O.2    31  ASN31      -0.2716
     27  ND2      -16.0390   15.0530   13.5640 N.am   31  ASN31      -0.0877
     28  N        -12.2310    3.6410   13.9330 N.3    70  PHE70      -0.1241
     29  CA       -11.6620    4.2040   15.1480 C.3    70  PHE70       0.1605
     30  C        -11.8340    3.2310   16.2960 C.2    70  PHE70       0.2264
     31  O        -12.9400    2.7440   16.5370 O.2    70  PHE70      -0.2867
     32  CB       -12.3210    5.5370   15.5060 C.3    70  PHE70       0.0534
     33  CG       -12.0690    6.6090   14.4940 C.ar   70  PHE70      -0.0203
     34  CD1      -10.8070    7.1830   14.3900 C.ar   70  PHE70      -0.0042
     35  CD2      -13.0820    7.0450   13.6450 C.ar   70  PHE70      -0.0042
     36  CE1      -10.5500    8.1740   13.4470 C.ar   70  PHE70      -0.0003
     37  CE2      -12.8340    8.0480   12.7000 C.ar   70  PHE70      -0.0003
     38  CZ       -11.5610    8.6150   12.6110 C.ar   70  PHE70      -0.0000
     39  N        -11.1970    3.1110   20.4500 N.3    72  PHE72      -0.1241
     40  CA       -10.8560    3.7920   21.6930 C.3    72  PHE72       0.1605
     41  C        -10.5660    2.7060   22.7100 C.2    72  PHE72       0.2264
     42  O        -11.4370    1.8760   22.9910 O.2    72  PHE72      -0.2867
     43  CB       -11.9840    4.7130   22.1630 C.3    72  PHE72       0.0534
     44  CG       -12.1910    5.8860   21.2610 C.ar   72  PHE72      -0.0203
     45  CD1      -13.0100    5.7780   20.1610 C.ar   72  PHE72      -0.0042
     46  CD2      -11.5240    7.0790   21.4910 C.ar   72  PHE72      -0.0042
     47  CE1      -13.1840    6.8580   19.2970 C.ar   72  PHE72      -0.0003
     48  CE2      -11.6990    8.1640   20.6390 C.ar   72  PHE72      -0.0003
     49  CZ       -12.5240    8.0440   19.5390 C.ar   72  PHE72      -0.0000
     50  N        -15.8380    2.3610   15.8470 N.3    79  MET79      -0.1245
     51  CA       -16.5910    3.2420   14.9510 C.3    79  MET79       0.1570
     52  C        -16.1150    3.0180   13.5240 C.2    79  MET79       0.2261
     53  O        -14.9490    3.2520   13.2110 O.2    79  MET79      -0.2867
     54  CB       -16.4440    4.7230   15.3100 C.3    79  MET79       0.0387
     55  CG       -16.7420    5.0780   16.7410 C.3    79  MET79       0.0595
     56  SD       -16.3640    6.8450   16.9620 S.3    79  MET79      -0.1393
     57  CE       -17.3720    7.6270   15.6970 C.3    79  MET79       0.0692
     58  N        -16.4390    4.4380   10.1730 N.3    81  VAL81      -0.1245
     59  CA       -16.8870    5.7200    9.6380 C.3    81  VAL81       0.1561
     60  C        -16.7250    5.7040    8.1290 C.2    81  VAL81       0.2260
     61  O        -15.6140    5.5580    7.6130 O.2    81  VAL81      -0.2867
     62  CB       -16.1250    6.8950   10.2630 C.3    81  VAL81       0.0252
     63  CG1      -16.6440    8.1870    9.6690 C.3    81  VAL81       0.0019
     64  CG2      -16.2860    6.8680   11.8120 C.3    81  VAL81       0.0019
     65  N        -10.0770   16.7830   15.3760 N.3   115  TRP115     -0.1241
     66  CA        -9.5760   15.4950   15.8190 C.3   115  TRP115      0.1605
     67  C         -8.1640   15.2930   15.2770 C.2   115  TRP115      0.2264
     68  O         -7.8980   15.6250   14.1200 O.2   115  TRP115     -0.2867
     69  CB       -10.4870   14.3690   15.3180 C.3   115  TRP115      0.0550
     70  CG       -11.7520   14.1940   16.1250 C.ar  115  TRP115      0.0003
     71  CD1      -12.9730   14.7760   15.8920 C.ar  115  TRP115      0.0946
     72  CD2      -11.9170   13.3590   17.2720 C.ar  115  TRP115      0.0152
     73  NE1      -13.8870   14.3460   16.8280 N.ar  115  TRP115     -0.2442
     74  CE2      -13.2580   13.4880   17.6960 C.ar  115  TRP115      0.0810
     75  CE3      -11.0580   12.5150   17.9890 C.ar  115  TRP115      0.0012
     76  CZ2      -13.7600   12.7970   18.8000 C.ar  115  TRP115      0.0191
     77  CZ3      -11.5600   11.8260   19.0810 C.ar  115  TRP115      0.0001
     78  CH2      -12.8920   11.9850   19.4880 C.ar  115  TRP115      0.0015
     79  N         -6.4990   12.8110   14.1490 N.3   117  ASP117     -0.1225
     80  CA        -6.3600   11.9740   12.9640 C.3   117  ASP117      0.1805
     81  C         -6.5960   12.7570   11.6750 C.2   117  ASP117      0.2597
     82  O         -6.0990   12.3550   10.6210 O.2   117  ASP117     -0.2718
     83  CB        -7.3240   10.7800   13.0330 C.3   117  ASP117      0.1424
     84  CG        -8.7500   11.2020   13.2830 C.2   117  ASP117      0.3668
     85  OD1       -9.0740   11.5190   14.4520 O.co2 117  ASP117     -0.2456
     86  OD2       -9.5440   11.2270   12.3180 O.co2 117  ASP117     -0.2456
     87  N         -7.3290   13.8730   11.7350 N.am  118  ASP118     -0.1974
     88  CA        -7.6560   14.5860   10.5030 C.3   118  ASP118      0.1709
     89  C         -6.4050   15.1120    9.8130 C.2   118  ASP118      0.2293
     90  O         -6.3750   15.2130    8.5780 O.2   118  ASP118     -0.2864
     91  CB        -8.6210   15.7420   10.8000 C.3   118  ASP118      0.1436
     92  CG        -9.9670   15.2640   11.3150 C.2   118  ASP118      0.3671
     93  OD1      -10.0660   14.0960   11.7320 O.co2 118  ASP118     -0.2456
     94  OD2      -10.9150   16.0700   11.3500 O.co2 118  ASP118     -0.2456
     95  N         -5.4310   12.2660    7.2640 N.3   121  TRP121     -0.1227
     96  CA        -6.1760   11.9020    6.0640 C.3   121  TRP121      0.1737
     97  C         -6.8060   13.0820    5.3290 C.2   121  TRP121      0.2595
     98  O         -7.1550   12.9360    4.1540 O.2   121  TRP121     -0.2718
     99  CB        -7.2560   10.8600    6.3870 C.3   121  TRP121      0.0564
    100  CG        -8.2330   11.2450    7.4700 C.ar  121  TRP121      0.0003
    101  CD1       -8.1410   10.9450    8.7980 C.ar  121  TRP121      0.0946
    102  CD2       -9.4640   11.9500    7.3010 C.ar  121  TRP121      0.0152
    103  NE1       -9.2390   11.4280    9.4680 N.ar  121  TRP121     -0.2442
    104  CE2      -10.0640   12.0530    8.5720 C.ar  121  TRP121      0.0810
    105  CE3      -10.1140   12.5120    6.1950 C.ar  121  TRP121      0.0012
    106  CZ2      -11.2830   12.7090    8.7790 C.ar  121  TRP121      0.0191
    107  CZ3      -11.3360   13.1550    6.4010 C.ar  121  TRP121      0.0001
    108  CH2      -11.9000   13.2480    7.6850 C.ar  121  TRP121      0.0015
    109  N         -6.9620   14.2450    5.9590 N.am  122  PHE122     -0.1976
    110  CA        -7.4510   15.3930    5.1970 C.3   122  PHE122      0.1639
    111  C         -6.6060   15.7410    3.9830 C.2   122  PHE122      0.2290
    112  O         -7.1970   16.0500    2.9310 O.2   122  PHE122     -0.2864
    113  CB        -7.5750   16.6110    6.1100 C.3   122  PHE122      0.0560
    114  CG        -8.9690   16.9580    6.4230 C.ar  122  PHE122     -0.0200
    115  CD1       -9.6830   16.1970    7.3190 C.ar  122  PHE122     -0.0042
    116  CD2       -9.5770   18.0490    5.8250 C.ar  122  PHE122     -0.0042
    117  CE1      -10.9750   16.5020    7.6180 C.ar  122  PHE122     -0.0003
    118  CE2      -10.8950   18.3640    6.1280 C.ar  122  PHE122     -0.0003
    119  CZ       -11.5870   17.5790    7.0250 C.ar  122  PHE122     -0.0000
    120  N         -7.0400    5.1110   19.5590 N.3   137  PHE137     -0.1241
    121  CA        -6.9750    6.2630   20.4360 C.3   137  PHE137      0.1605
    122  C         -6.9050    5.8330   21.8910 C.2   137  PHE137      0.2264
    123  O         -7.5120    4.8390   22.2860 O.2   137  PHE137     -0.2867
    124  CB        -8.2290    7.1310   20.2730 C.3   137  PHE137      0.0534
    125  CG        -8.1190    8.1680   19.2160 C.ar  137  PHE137     -0.0203
    126  CD1       -8.3930    7.8530   17.9040 C.ar  137  PHE137     -0.0042
    127  CD2       -7.7650    9.4710   19.5430 C.ar  137  PHE137     -0.0042
    128  CE1       -8.3140    8.8100   16.9170 C.ar  137  PHE137     -0.0003
    129  CE2       -7.6810   10.4380   18.5580 C.ar  137  PHE137     -0.0003
    130  CZ        -7.9620   10.0990   17.2340 C.ar  137  PHE137     -0.0000
@<TRIPOS>BOND
     1   112   111    2
     2   111   110    1
     3    98    97    2
     4   110   109    1
     5   110   113    1
     6    97   109   am
     7    97    96    1
     8     4     3    2
     9   116   118   ar
    10   116   114   ar
    11    96    99    1
    12    96    95    1
    13   113   114    1
    14   118   119   ar
    15   105   107   ar
    16   105   102   ar
    17    99   100    1
    18   107   108   ar
    19     3     2    1
    20   114   115   ar
    21   119   117   ar
    22   102   100   ar
    23   102   104   ar
    24   115   117   ar
    25   100   101   ar
    26    61    60    2
    27     1     2    1
    28   108   106   ar
    29     2     5    1
    30    60    59    1
    31     5     6    1
    32   104   106   ar
    33   104   103   ar
    34     6     8    1
    35     6     7    1
    36    90    89    2
    37   101   103   ar
    38    59    58    1
    39    59    62    1
    40    63    62    1
    41    89    88    1
    42    62    64    1
    43    88    91    1
    44    88    87    1
    45    23    22    2
    46    82    81    2
    47    22    21    1
    48    91    92    1
    49    92    94   ar
    50    92    93   ar
    51    26    25    2
    52    81    87   am
    53    81    80    1
    54    21    20    1
    55    21    24    1
    56    86    84   ar
    57    25    24    1
    58    25    27   am
    59    38    37   ar
    60    38    36   ar
    61    37    35   ar
    62    80    83    1
    63    80    79    1
    64    83    84    1
    65    53    52    2
    66    84    85   ar
    67    36    34   ar
    68    52    51    1
    69    35    33   ar
    70    28    29    1
    71    68    67    2
    72    34    33   ar
    73    33    32    1
    74    51    54    1
    75    51    50    1
    76    29    32    1
    77    29    30    1
    78    67    66    1
    79    54    55    1
    80    69    66    1
    81    69    70    1
    82    65    66    1
    83    57    56    1
    84    71    70   ar
    85    71    73   ar
    86    70    72   ar
    87    30    31    2
    88    55    56    1
    89    73    74   ar
    90   128   130   ar
    91   128   126   ar
    92   130   129   ar
    93    72    74   ar
    94    72    75   ar
    95    74    76   ar
    96   126   125   ar
    97    75    77   ar
    98   129   127   ar
    99    76    78   ar
   100    18    16   ar
   101    18    19   ar
   102    77    78   ar
   103   125   127   ar
   104   125   124    1
   105    16    14   ar
   106    47    49   ar
   107    47    45   ar
   108    12    11    2
   109    49    48   ar
   110   120   121    1
   111    19    17   ar
   112    45    44   ar
   113   124   121    1
   114   121   122    1
   115    39    40    1
   116    11    10    1
   117    14    13    1
   118    14    15   ar
   119    48    46   ar
   120    13    10    1
   121    17    15   ar
   122    44    46   ar
   123    44    43    1
   124    10     9    1
   125    40    43    1
   126    40    41    1
   127   122   123    2
   128    41    42    2
