@<TRIPOS>MOLECULE
tmp/6eq3A00.pdb
 154 150 0 0 0
SMALL
GASTEIGER

@<TRIPOS>ATOM
      1  N        -21.1850    4.5910  -24.9630 N.3     5  TYR5       -0.1227
      2  CA       -21.3420    6.0370  -24.9310 C.3     5  TYR5        0.1736
      3  C        -21.0530    6.6050  -26.3160 C.2     5  TYR5        0.2596
      4  O        -20.4110    5.9620  -27.1530 O.2     5  TYR5       -0.2718
      5  CB       -20.3880    6.7130  -23.9300 C.3     5  TYR5        0.0548
      6  CG       -20.6120    6.3570  -22.4820 C.ar    5  TYR5       -0.0200
      7  CD1      -20.1360    5.1650  -21.9650 C.ar    5  TYR5       -0.0009
      8  CD2      -21.2680    7.2330  -21.6260 C.ar    5  TYR5       -0.0009
      9  CE1      -20.3330    4.8310  -20.6450 C.ar    5  TYR5        0.0417
     10  CE2      -21.4620    6.9140  -20.3000 C.ar    5  TYR5        0.0417
     11  CZ       -20.9900    5.7130  -19.8130 C.ar    5  TYR5        0.1957
     12  OH       -21.1770    5.3860  -18.4870 O.3     5  TYR5       -0.2866
     13  N        -21.5050    7.8360  -26.5340 N.am    6  THR6       -0.1939
     14  CA       -21.2250    8.5600  -27.7630 C.3     6  THR6        0.2028
     15  C        -20.5260    9.8740  -27.4450 C.2     6  THR6        0.2642
     16  O        -20.5960   10.3860  -26.3240 O.2     6  THR6       -0.2714
     17  CB       -22.5070    8.8400  -28.5460 C.3     6  THR6        0.1808
     18  OG1      -23.3660    9.6810  -27.7630 O.3     6  THR6       -0.2208
     19  CG2      -23.2200    7.5290  -28.8700 C.3     6  THR6        0.0379
     20  N        -19.8440   10.4120  -28.4560 N.am    7  LEU7       -0.1977
     21  CA       -19.2320   11.7320  -28.3800 C.3     7  LEU7        0.1596
     22  C        -19.2700   12.3350  -29.7750 C.2     7  LEU7        0.2287
     23  O        -18.8560   11.6790  -30.7330 O.2     7  LEU7       -0.2864
     24  CB       -17.7860   11.6470  -27.8680 C.3     7  LEU7        0.0297
     25  CG       -17.1020   12.9840  -27.5720 C.3     7  LEU7        0.0022
     26  CD1      -17.6750   13.6200  -26.3210 C.3     7  LEU7        0.0001
     27  CD2      -15.5870   12.8130  -27.4460 C.3     7  LEU7        0.0001
     28  N        -20.4770   13.8320  -14.3610 N.3    25  PHE25      -0.1241
     29  CA       -19.2350   13.2230  -14.8290 C.3    25  PHE25       0.1605
     30  C        -18.6020   14.0850  -15.9100 C.2    25  PHE25       0.2264
     31  O        -19.1960   14.2960  -16.9730 O.2    25  PHE25      -0.2867
     32  CB       -19.5060   11.8180  -15.3630 C.3    25  PHE25       0.0534
     33  CG       -18.3100   11.1690  -16.0060 C.ar   25  PHE25      -0.0203
     34  CD1      -17.3760   10.4930  -15.2370 C.ar   25  PHE25      -0.0042
     35  CD2      -18.1230   11.2290  -17.3780 C.ar   25  PHE25      -0.0042
     36  CE1      -16.2760    9.8930  -15.8210 C.ar   25  PHE25      -0.0003
     37  CE2      -17.0250   10.6340  -17.9660 C.ar   25  PHE25      -0.0003
     38  CZ       -16.1020    9.9630  -17.1840 C.ar   25  PHE25      -0.0000
     39  N        -15.5410   19.6630  -23.7800 N.3    31  ASN31      -0.1240
     40  CA       -15.6620   18.3600  -24.4240 C.3    31  ASN31       0.1653
     41  C        -16.6620   18.4600  -25.5700 C.2    31  ASN31       0.2266
     42  O        -17.3680   19.4610  -25.7270 O.2    31  ASN31      -0.2867
     43  CB       -16.0960   17.2920  -23.4090 C.3    31  ASN31       0.1155
     44  CG       -15.6970   15.8850  -23.8170 C.2    31  ASN31       0.2627
     45  OD1      -15.2530   15.6420  -24.9380 O.2    31  ASN31      -0.2716
     46  ND2      -15.8540   14.9460  -22.8910 N.am   31  ASN31      -0.0877
     47  N        -22.2500   14.2310  -25.8390 N.3    34  GLY34      -0.1210
     48  CA       -22.5640   12.8160  -25.9040 C.3    34  GLY34       0.1956
     49  C        -23.0870   12.3000  -24.5840 C.2    34  GLY34       0.2612
     50  O        -23.3940   13.0670  -23.6690 O.2    34  GLY34      -0.2717
     51  N        -23.1920   10.9770  -24.5080 N.am   35  GLY35      -0.1956
     52  CA       -23.7430   10.3400  -23.3270 C.3    35  GLY35       0.1869
     53  C        -24.0630    8.8830  -23.6010 C.2    35  GLY35       0.2309
     54  O        -23.5900    8.3010  -24.5780 O.2    35  GLY35      -0.2863
     55  N        -12.8810    4.9680  -28.4020 N.3    68  ILE68      -0.1245
     56  CA       -11.9640    5.0120  -27.2700 C.3    68  ILE68       0.1561
     57  C        -12.6020    4.2580  -26.1170 C.2    68  ILE68       0.2260
     58  O        -13.7420    4.5480  -25.7390 O.2    68  ILE68      -0.2867
     59  CB       -11.6280    6.4460  -26.8250 C.3    68  ILE68       0.0252
     60  CG1      -11.3210    7.3530  -28.0130 C.3    68  ILE68       0.0019
     61  CG2      -10.4420    6.4250  -25.8630 C.3    68  ILE68       0.0019
     62  CD1      -11.2670    8.8210  -27.6250 C.3    68  ILE68       0.0001
     63  N        -12.3440    3.5610  -22.1530 N.3    70  PHE70      -0.1241
     64  CA       -11.7780    4.1410  -20.9460 C.3    70  PHE70       0.1605
     65  C        -11.9320    3.1720  -19.7870 C.2    70  PHE70       0.2264
     66  O        -13.0270    2.6530  -19.5380 O.2    70  PHE70      -0.2867
     67  CB       -12.4450    5.4730  -20.6050 C.3    70  PHE70       0.0534
     68  CG       -12.1640    6.5490  -21.5980 C.ar   70  PHE70      -0.0203
     69  CD1      -10.9410    7.2020  -21.6040 C.ar   70  PHE70      -0.0042
     70  CD2      -13.1200    6.9060  -22.5370 C.ar   70  PHE70      -0.0042
     71  CE1      -10.6780    8.1970  -22.5330 C.ar   70  PHE70      -0.0003
     72  CE2      -12.8660    7.8860  -23.4640 C.ar   70  PHE70      -0.0003
     73  CZ       -11.6450    8.5450  -23.4580 C.ar   70  PHE70      -0.0000
     74  N        -11.3390    3.2020  -15.6710 N.3    72  PHE72      -0.1241
     75  CA       -11.0370    3.9310  -14.4470 C.3    72  PHE72       0.1605
     76  C        -10.7530    2.9010  -13.3670 C.2    72  PHE72       0.2264
     77  O        -11.6160    2.0760  -13.0590 O.2    72  PHE72      -0.2867
     78  CB       -12.1860    4.8600  -14.0600 C.3    72  PHE72       0.0534
     79  CG       -12.3620    6.0040  -15.0070 C.ar   72  PHE72      -0.0203
     80  CD1      -11.6410    7.1740  -14.8340 C.ar   72  PHE72      -0.0042
     81  CD2      -13.2210    5.9020  -16.0880 C.ar   72  PHE72      -0.0042
     82  CE1      -11.7850    8.2310  -15.7150 C.ar   72  PHE72      -0.0003
     83  CE2      -13.3670    6.9570  -16.9800 C.ar   72  PHE72      -0.0003
     84  CZ       -12.6490    8.1210  -16.7910 C.ar   72  PHE72      -0.0000
     85  N        -15.8670    2.2060  -20.2420 N.3    79  MET79      -0.1245
     86  CA       -16.6780    3.1410  -21.0190 C.3    79  MET79       0.1570
     87  C        -16.2340    3.0670  -22.4740 C.2    79  MET79       0.2261
     88  O        -15.1130    3.4590  -22.8110 O.2    79  MET79      -0.2867
     89  CB       -16.5550    4.5580  -20.4660 C.3    79  MET79       0.0387
     90  CG       -17.0340    4.6810  -19.0290 C.3    79  MET79       0.0595
     91  SD       -16.7230    6.3110  -18.3270 S.3    79  MET79      -0.1393
     92  CE       -18.3240    7.0880  -18.4450 C.3    79  MET79       0.0692
     93  N        -16.5600    4.4850  -25.8300 N.3    81  VAL81      -0.1245
     94  CA       -17.0120    5.7540  -26.3980 C.3    81  VAL81       0.1561
     95  C        -16.8370    5.7180  -27.9090 C.2    81  VAL81       0.2260
     96  O        -15.7160    5.5750  -28.4130 O.2    81  VAL81      -0.2867
     97  CB       -16.2550    6.9450  -25.7920 C.3    81  VAL81       0.0252
     98  CG1      -16.7530    8.2520  -26.4060 C.3    81  VAL81       0.0019
     99  CG2      -16.4230    6.9650  -24.2800 C.3    81  VAL81       0.0019
    100  N        -10.2250   16.8000  -20.7740 N.3   115  TRP115     -0.1241
    101  CA        -9.6790   15.5160  -20.3630 C.3   115  TRP115      0.1605
    102  C         -8.2710   15.3580  -20.9320 C.2   115  TRP115      0.2264
    103  O         -8.0280   15.7230  -22.0900 O.2   115  TRP115     -0.2867
    104  CB       -10.5660   14.3690  -20.8540 C.3   115  TRP115      0.0550
    105  CG       -11.8250   14.1670  -20.0690 C.ar  115  TRP115      0.0003
    106  CD1      -13.0520   14.7100  -20.3290 C.ar  115  TRP115      0.0946
    107  CD2      -11.9920   13.3380  -18.9100 C.ar  115  TRP115      0.0152
    108  NE1      -13.9680   14.2760  -19.4020 N.ar  115  TRP115     -0.2442
    109  CE2      -13.3430   13.4390  -18.5170 C.ar  115  TRP115      0.0810
    110  CE3      -11.1310   12.5220  -18.1670 C.ar  115  TRP115      0.0012
    111  CZ2      -13.8550   12.7540  -17.4150 C.ar  115  TRP115      0.0191
    112  CZ3      -11.6400   11.8420  -17.0710 C.ar  115  TRP115      0.0001
    113  CH2      -12.9870   11.9670  -16.7030 C.ar  115  TRP115      0.0015
    114  N         -6.5130   12.8380  -22.0300 N.3   117  ASP117     -0.1225
    115  CA        -6.3540   11.9890  -23.2080 C.3   117  ASP117      0.1805
    116  C         -6.6340   12.7360  -24.5060 C.2   117  ASP117      0.2597
    117  O         -6.1310   12.3320  -25.5610 O.2   117  ASP117     -0.2718
    118  CB        -7.2750   10.7700  -23.1210 C.3   117  ASP117      0.1424
    119  CG        -8.7210   11.1570  -22.9470 C.2   117  ASP117      0.3668
    120  OD1       -9.0560   11.6720  -21.8650 O.co2 117  ASP117     -0.2456
    121  OD2       -9.5130   10.9720  -23.8970 O.co2 117  ASP117     -0.2456
    122  N         -7.4330   13.8090  -24.4560 N.am  118  ASP118     -0.1974
    123  CA        -7.7820   14.5340  -25.6730 C.3   118  ASP118      0.1709
    124  C         -6.5480   15.0540  -26.3920 C.2   118  ASP118      0.2293
    125  O         -6.5490   15.1630  -27.6210 O.2   118  ASP118     -0.2864
    126  CB        -8.7280   15.6960  -25.3500 C.3   118  ASP118      0.1436
    127  CG       -10.0520   15.2270  -24.7730 C.2   118  ASP118      0.3671
    128  OD1      -10.0860   14.1270  -24.1920 O.co2 118  ASP118     -0.2456
    129  OD2      -11.0580   15.9570  -24.8980 O.co2 118  ASP118     -0.2456
    130  N         -5.5320   12.2390  -29.0590 N.3   121  TRP121     -0.1241
    131  CA        -6.3100   11.8600  -30.2330 C.3   121  TRP121      0.1605
    132  C         -6.9780   13.0330  -30.9390 C.2   121  TRP121      0.2264
    133  O         -7.2960   12.9150  -32.1290 O.2   121  TRP121     -0.2867
    134  CB        -7.3760   10.8080  -29.8620 C.3   121  TRP121      0.0550
    135  CG        -8.3080   11.2010  -28.7380 C.ar  121  TRP121      0.0003
    136  CD1       -8.1930   10.8640  -27.4140 C.ar  121  TRP121      0.0946
    137  CD2       -9.5020   11.9860  -28.8470 C.ar  121  TRP121      0.0152
    138  NE1       -9.2350   11.4060  -26.6970 N.ar  121  TRP121     -0.2442
    139  CE2      -10.0500   12.0980  -27.5520 C.ar  121  TRP121      0.0810
    140  CE3      -10.1560   12.6120  -29.9140 C.ar  121  TRP121      0.0012
    141  CZ2      -11.2270   12.8070  -27.2960 C.ar  121  TRP121      0.0191
    142  CZ3      -11.3260   13.3200  -29.6570 C.ar  121  TRP121      0.0001
    143  CH2      -11.8460   13.4100  -28.3590 C.ar  121  TRP121      0.0015
    144  N         -7.1210    5.1880  -16.5800 N.3   137  PHE137     -0.1241
    145  CA        -7.0650    6.3500  -15.7060 C.3   137  PHE137      0.1605
    146  C         -6.9740    5.9270  -14.2470 C.2   137  PHE137      0.2264
    147  O         -7.6000    4.9460  -13.8360 O.2   137  PHE137     -0.2867
    148  CB        -8.3170    7.2110  -15.8640 C.3   137  PHE137      0.0534
    149  CG        -8.2110    8.2640  -16.9170 C.ar  137  PHE137     -0.0203
    150  CD1       -8.4770    7.9570  -18.2410 C.ar  137  PHE137     -0.0042
    151  CD2       -7.8780    9.5670  -16.5810 C.ar  137  PHE137     -0.0042
    152  CE1       -8.4100    8.9320  -19.2200 C.ar  137  PHE137     -0.0003
    153  CE2       -7.8020   10.5440  -17.5560 C.ar  137  PHE137     -0.0003
    154  CZ        -8.0700   10.2210  -18.8800 C.ar  137  PHE137     -0.0000
@<TRIPOS>BOND
     1   133   132    2
     2   132   131    1
     3    23    22    2
     4   131   134    1
     5   131   130    1
     6   140   142   ar
     7   140   137   ar
     8   134   135    1
     9    22    21    1
    10   142   143   ar
    11    19    17    1
    12   137   135   ar
    13   137   139   ar
    14   135   136   ar
    15    17    18    1
    16    17    14    1
    17    20    21    1
    18    20    15   am
    19    96    95    2
    20    55    56    1
    21    21    24    1
    22   143   141   ar
    23    60    62    1
    24    60    59    1
    25    95    94    1
    26    24    25    1
    27    14    15    1
    28    14    13    1
    29   125   124    2
    30    25    27    1
    31    25    26    1
    32   139   141   ar
    33   139   138   ar
    34    15    16    2
    35   136   138   ar
    36    56    59    1
    37    56    57    1
    38     4     3    2
    39    59    61    1
    40    13     3   am
    41    98    97    1
    42    94    93    1
    43    94    97    1
    44   124   123    1
    45     3     2    1
    46    57    58    2
    47    48    47    1
    48    48    49    1
    49    97    99    1
    50    42    41    2
    51   123   126    1
    52   123   122    1
    53    41    40    1
    54   117   116    2
    55   126   127    1
    56     1     2    1
    57    45    44    2
    58     2     5    1
    59   129   127   ar
    60   127   128   ar
    61    49    51   am
    62    49    50    2
    63    54    53    2
    64    51    52    1
    65   116   122   am
    66   116   115    1
    67    40    39    1
    68    40    43    1
    69     5     6    1
    70   121   119   ar
    71    44    43    1
    72    44    46   am
    73    53    52    1
    74    72    73   ar
    75    72    70   ar
    76    73    71   ar
    77   115   118    1
    78   115   114    1
    79   118   119    1
    80   119   120   ar
    81    88    87    2
    82    70    68   ar
    83    71    69   ar
    84     6     7   ar
    85     6     8   ar
    86    87    86    1
    87    63    64    1
    88   103   102    2
    89     7     9   ar
    90     8    10   ar
    91    69    68   ar
    92    68    67    1
    93    86    89    1
    94    86    85    1
    95    64    67    1
    96    64    65    1
    97   102   101    1
    98   104   101    1
    99   104   105    1
   100   100   101    1
   101     9    11   ar
   102    89    90    1
   103   106   105   ar
   104   106   108   ar
   105    10    11   ar
   106   105   107   ar
   107    11    12    1
   108    65    66    2
   109   108   109   ar
   110   152   154   ar
   111   152   150   ar
   112    90    91    1
   113   107   109   ar
   114   107   110   ar
   115   154   153   ar
   116   109   111   ar
   117    92    91    1
   118   150   149   ar
   119   110   112   ar
   120    37    35   ar
   121    37    38   ar
   122   153   151   ar
   123   111   113   ar
   124    35    33   ar
   125    38    36   ar
   126   112   113   ar
   127    83    84   ar
   128    83    81   ar
   129    31    30    2
   130   149   151   ar
   131   149   148    1
   132    84    82   ar
   133   144   145    1
   134    81    79   ar
   135    33    32    1
   136    33    34   ar
   137    30    29    1
   138   148   145    1
   139    36    34   ar
   140    82    80   ar
   141   145   146    1
   142    74    75    1
   143    32    29    1
   144    79    80   ar
   145    79    78    1
   146    29    28    1
   147    75    78    1
   148    75    76    1
   149   146   147    2
   150    76    77    2
