@<TRIPOS>MOLECULE
tmp/6eq4A00.pdb
 147 142 0 0 0
SMALL
GASTEIGER

@<TRIPOS>ATOM
      1  N        -21.1920    4.7470  -24.7100 N.3     5  TYR5       -0.1241
      2  CA       -21.3570    6.1930  -24.7170 C.3     5  TYR5        0.1605
      3  C        -21.0720    6.7220  -26.1110 C.2     5  TYR5        0.2264
      4  O        -20.4010    6.0790  -26.9260 O.2     5  TYR5       -0.2867
      5  CB       -20.3730    6.8860  -23.7660 C.3     5  TYR5        0.0534
      6  CG       -20.5660    6.5510  -22.3080 C.ar    5  TYR5       -0.0201
      7  CD1      -20.0520    5.3750  -21.7840 C.ar    5  TYR5       -0.0009
      8  CD2      -21.2280    7.4200  -21.4500 C.ar    5  TYR5       -0.0009
      9  CE1      -20.2210    5.0530  -20.4510 C.ar    5  TYR5        0.0417
     10  CE2      -21.3790    7.1170  -20.1090 C.ar    5  TYR5        0.0417
     11  CZ       -20.8740    5.9220  -19.6300 C.ar    5  TYR5        0.1957
     12  OH       -21.0070    5.5750  -18.2910 O.3     5  TYR5       -0.2866
     13  N        -19.8910   10.4630  -28.3340 N.3     7  LEU7       -0.1245
     14  CA       -19.2180   11.7540  -28.2520 C.3     7  LEU7        0.1561
     15  C        -19.2090   12.3520  -29.6470 C.2     7  LEU7        0.2260
     16  O        -18.7250   11.7100  -30.5790 O.2     7  LEU7       -0.2867
     17  CB       -17.7940   11.5600  -27.7540 C.3     7  LEU7        0.0270
     18  CG       -17.0360   12.8470  -27.4580 C.3     7  LEU7        0.0019
     19  CD1      -17.6980   13.6540  -26.3850 C.3     7  LEU7        0.0001
     20  CD2      -15.6390   12.5220  -27.0460 C.3     7  LEU7        0.0001
     21  N        -20.7190   13.9000  -14.1750 N.3    25  PHE25      -0.1227
     22  CA       -19.4340   13.3070  -14.4950 C.3    25  PHE25       0.1736
     23  C        -18.7480   14.1000  -15.5970 C.2    25  PHE25       0.2596
     24  O        -19.2910   14.2440  -16.6990 O.2    25  PHE25      -0.2718
     25  CB       -19.6710   11.8730  -14.9530 C.3    25  PHE25       0.0547
     26  CG       -18.4180   11.1200  -15.2290 C.ar   25  PHE25      -0.0202
     27  CD1      -17.6420   10.6330  -14.1910 C.ar   25  PHE25      -0.0042
     28  CD2      -18.0080   10.8990  -16.5260 C.ar   25  PHE25      -0.0042
     29  CE1      -16.4800    9.9370  -14.4560 C.ar   25  PHE25      -0.0003
     30  CE2      -16.8540   10.2080  -16.7830 C.ar   25  PHE25      -0.0003
     31  CZ       -16.0940    9.7240  -15.7560 C.ar   25  PHE25      -0.0000
     32  N        -17.5510   14.5920  -15.3090 N.am   26  GLY26      -0.1957
     33  CA       -16.8260   15.4210  -16.2580 C.3    26  GLY26       0.1869
     34  C        -17.0730   16.9050  -16.1010 C.2    26  GLY26       0.2309
     35  O        -16.5560   17.6960  -16.8990 O.2    26  GLY26      -0.2863
     36  N        -15.5920   19.5910  -23.5990 N.3    31  ASN31      -0.1240
     37  CA       -15.6830   18.2890  -24.2630 C.3    31  ASN31       0.1653
     38  C        -16.6640   18.4050  -25.4270 C.2    31  ASN31       0.2266
     39  O        -17.3510   19.4150  -25.5930 O.2    31  ASN31      -0.2867
     40  CB       -16.1600   17.2430  -23.2480 C.3    31  ASN31       0.1155
     41  CG       -15.7130   15.8300  -23.5720 C.2    31  ASN31       0.2627
     42  OD1      -15.3120   15.4910  -24.6860 O.2    31  ASN31      -0.2716
     43  ND2      -15.7450   14.9850  -22.5310 N.am   31  ASN31      -0.0877
     44  N        -23.4010   11.0950  -24.4500 N.3    35  GLY35      -0.1225
     45  CA       -23.8420   10.4580  -23.2240 C.3    35  GLY35       0.1811
     46  C        -24.1740    9.0050  -23.5020 C.2    35  GLY35       0.2280
     47  O        -23.6780    8.4120  -24.4550 O.2    35  GLY35      -0.2866
     48  N        -12.9600    4.8640  -28.1900 N.3    68  ILE68      -0.1245
     49  CA       -12.0390    4.9240  -27.0640 C.3    68  ILE68       0.1561
     50  C        -12.6720    4.1800  -25.9050 C.2    68  ILE68       0.2260
     51  O        -13.8050    4.4950  -25.5210 O.2    68  ILE68      -0.2867
     52  CB       -11.7260    6.3510  -26.6030 C.3    68  ILE68       0.0252
     53  CG1      -11.4490    7.2890  -27.7690 C.3    68  ILE68       0.0019
     54  CG2      -10.5400    6.3200  -25.6340 C.3    68  ILE68       0.0019
     55  CD1      -11.4590    8.7570  -27.3230 C.3    68  ILE68       0.0001
     56  N        -12.3660    3.4960  -21.9150 N.3    70  PHE70      -0.1241
     57  CA       -11.7910    4.0200  -20.6850 C.3    70  PHE70       0.1605
     58  C        -11.9690    3.0300  -19.5570 C.2    70  PHE70       0.2264
     59  O        -13.0760    2.5460  -19.3080 O.2    70  PHE70      -0.2867
     60  CB       -12.4480    5.3400  -20.3000 C.3    70  PHE70       0.0534
     61  CG       -12.1890    6.4290  -21.2880 C.ar   70  PHE70      -0.0203
     62  CD1      -10.9490    7.0440  -21.3460 C.ar   70  PHE70      -0.0042
     63  CD2      -13.1540    6.8110  -22.1950 C.ar   70  PHE70      -0.0042
     64  CE1      -10.6980    8.0520  -22.2910 C.ar   70  PHE70      -0.0003
     65  CE2      -12.8900    7.8190  -23.1380 C.ar   70  PHE70      -0.0003
     66  CZ       -11.6750    8.4350  -23.1790 C.ar   70  PHE70      -0.0000
     67  N        -11.3560    3.0830  -15.4630 N.3    72  PHE72      -0.1241
     68  CA       -11.0240    3.8120  -14.2410 C.3    72  PHE72       0.1605
     69  C        -10.7150    2.7550  -13.1910 C.2    72  PHE72       0.2264
     70  O        -11.6000    1.9750  -12.8160 O.2    72  PHE72      -0.2867
     71  CB       -12.1850    4.7210  -13.8160 C.3    72  PHE72       0.0534
     72  CG       -12.3770    5.8920  -14.7310 C.ar   72  PHE72      -0.0203
     73  CD1      -11.6570    7.0450  -14.5320 C.ar   72  PHE72      -0.0042
     74  CD2      -13.1820    5.8060  -15.8360 C.ar   72  PHE72      -0.0042
     75  CE1      -11.7690    8.1220  -15.3890 C.ar   72  PHE72      -0.0003
     76  CE2      -13.3110    6.8780  -16.6950 C.ar   72  PHE72      -0.0003
     77  CZ       -12.5920    8.0270  -16.4750 C.ar   72  PHE72      -0.0000
     78  N        -15.8850    2.0970  -20.0310 N.3    79  MET79      -0.1245
     79  CA       -16.7030    3.0560  -20.7760 C.3    79  MET79       0.1570
     80  C        -16.2720    3.0010  -22.2370 C.2    79  MET79       0.2261
     81  O        -15.1300    3.3590  -22.5630 O.2    79  MET79      -0.2867
     82  CB       -16.5090    4.4660  -20.2250 C.3    79  MET79       0.0387
     83  CG       -16.8850    4.5870  -18.7790 C.3    79  MET79       0.0595
     84  SD       -16.7080    6.2920  -18.1790 S.3    79  MET79      -0.1393
     85  CE       -17.0610    6.1200  -16.4350 C.3    79  MET79       0.0692
     86  N        -16.5750    4.4950  -25.6020 N.3    81  VAL81      -0.1245
     87  CA       -17.0170    5.7800  -26.1770 C.3    81  VAL81       0.1561
     88  C        -16.8570    5.7560  -27.6940 C.2    81  VAL81       0.2260
     89  O        -15.7510    5.5660  -28.2200 O.2    81  VAL81      -0.2867
     90  CB       -16.2500    6.9640  -25.5650 C.3    81  VAL81       0.0252
     91  CG1      -16.6790    8.2760  -26.2000 C.3    81  VAL81       0.0019
     92  CG2      -16.4040    6.9800  -24.0480 C.3    81  VAL81       0.0019
     93  N        -10.3130   16.6830  -20.6060 N.3   115  TRP115     -0.1241
     94  CA        -9.7870   15.4200  -20.1280 C.3   115  TRP115      0.1605
     95  C         -8.3940   15.2160  -20.7130 C.2   115  TRP115      0.2264
     96  O         -8.1440   15.5800  -21.8690 O.2   115  TRP115     -0.2867
     97  CB       -10.6990   14.2740  -20.5770 C.3   115  TRP115      0.0550
     98  CG       -11.9740   14.1490  -19.8280 C.ar  115  TRP115      0.0003
     99  CD1      -13.1800   14.7360  -20.1180 C.ar  115  TRP115      0.0946
    100  CD2      -12.1970   13.3290  -18.6760 C.ar  115  TRP115      0.0152
    101  NE1      -14.1280   14.3260  -19.2030 N.ar  115  TRP115     -0.2442
    102  CE2      -13.5490   13.4630  -18.3100 C.ar  115  TRP115      0.0810
    103  CE3      -11.3780   12.4800  -17.9240 C.ar  115  TRP115      0.0012
    104  CZ2      -14.1000   12.7860  -17.2030 C.ar  115  TRP115      0.0191
    105  CZ3      -11.9210   11.8190  -16.8300 C.ar  115  TRP115      0.0001
    106  CH2      -13.2590   11.9750  -16.4810 C.ar  115  TRP115      0.0015
    107  N         -6.6900   12.7010  -21.8480 N.3   117  ASP117     -0.1225
    108  CA        -6.5230   11.8600  -23.0250 C.3   117  ASP117      0.1805
    109  C         -6.7810   12.6150  -24.3180 C.2   117  ASP117      0.2597
    110  O         -6.2840   12.1990  -25.3730 O.2   117  ASP117     -0.2718
    111  CB        -7.4260   10.6280  -22.9320 C.3   117  ASP117      0.1424
    112  CG        -8.8650   10.9930  -22.7090 C.2   117  ASP117      0.3668
    113  OD1       -9.2020   11.4250  -21.5870 O.co2 117  ASP117     -0.2456
    114  OD2       -9.6510   10.8820  -23.6610 O.co2 117  ASP117     -0.2456
    115  N         -7.5730   13.6960  -24.2620 N.am  118  ASP118     -0.1974
    116  CA        -7.8900   14.4440  -25.4740 C.3   118  ASP118      0.1709
    117  C         -6.6410   14.9750  -26.1420 C.2   118  ASP118      0.2293
    118  O         -6.6110   15.1210  -27.3600 O.2   118  ASP118     -0.2864
    119  CB        -8.8580   15.5760  -25.1660 C.3   118  ASP118      0.1436
    120  CG       -10.1810   15.0910  -24.6300 C.2   118  ASP118      0.3671
    121  OD1      -10.2740   13.9730  -24.0600 O.co2 118  ASP118     -0.2456
    122  OD2      -11.1280   15.8640  -24.7500 O.co2 118  ASP118     -0.2456
    123  N         -5.6970   12.1360  -28.7320 N.3   121  TRP121     -0.1241
    124  CA        -6.5080   11.7750  -29.8950 C.3   121  TRP121      0.1605
    125  C         -7.1380   12.9590  -30.6080 C.2   121  TRP121      0.2264
    126  O         -7.4290   12.8490  -31.7950 O.2   121  TRP121     -0.2867
    127  CB        -7.5910   10.7370  -29.5400 C.3   121  TRP121      0.0550
    128  CG        -8.5440   11.1820  -28.4420 C.ar  121  TRP121      0.0003
    129  CD1       -8.4620   10.8580  -27.1130 C.ar  121  TRP121      0.0946
    130  CD2       -9.7170   11.9780  -28.5870 C.ar  121  TRP121      0.0152
    131  NE1       -9.4930   11.4180  -26.4280 N.ar  121  TRP121     -0.2442
    132  CE2      -10.2940   12.0990  -27.3070 C.ar  121  TRP121      0.0810
    133  CE3      -10.3580   12.5780  -29.6760 C.ar  121  TRP121      0.0012
    134  CZ2      -11.4380   12.8510  -27.0730 C.ar  121  TRP121      0.0191
    135  CZ3      -11.5310   13.3160  -29.4350 C.ar  121  TRP121      0.0001
    136  CH2      -12.0490   13.4330  -28.1500 C.ar  121  TRP121      0.0015
    137  N         -7.1250    5.1100  -16.3840 N.3   137  PHE137     -0.1241
    138  CA        -7.0590    6.2660  -15.5080 C.3   137  PHE137      0.1605
    139  C         -7.0360    5.8260  -14.0460 C.2   137  PHE137      0.2264
    140  O         -7.6530    4.8270  -13.6660 O.2   137  PHE137     -0.2867
    141  CB        -8.3380    7.1070  -15.6500 C.3   137  PHE137      0.0534
    142  CG        -8.2860    8.1500  -16.7240 C.ar  137  PHE137     -0.0203
    143  CD1       -8.5150    7.8130  -18.0400 C.ar  137  PHE137     -0.0042
    144  CD2       -8.0260    9.4680  -16.4100 C.ar  137  PHE137     -0.0042
    145  CE1       -8.4840    8.7900  -19.0480 C.ar  137  PHE137     -0.0003
    146  CE2       -7.9910   10.4420  -17.3990 C.ar  137  PHE137     -0.0003
    147  CZ        -8.2100   10.0980  -18.7230 C.ar  137  PHE137     -0.0000
@<TRIPOS>BOND
     1   126   125    2
     2   125   124    1
     3    16    15    2
     4   124   127    1
     5   124   123    1
     6   133   135   ar
     7   133   130   ar
     8    15    14    1
     9   127   128    1
    10   135   136   ar
    11   130   128   ar
    12   130   132   ar
    13   128   129   ar
    14    13    14    1
    15    14    17    1
    16    89    88    2
    17    48    49    1
    18   136   134   ar
    19    53    55    1
    20    53    52    1
    21    17    18    1
    22    88    87    1
    23    18    20    1
    24    18    19    1
    25   118   117    2
    26   132   134   ar
    27   132   131   ar
    28   129   131   ar
    29    49    52    1
    30    49    50    1
    31     4     3    2
    32    52    54    1
    33    91    90    1
    34    87    86    1
    35    87    90    1
    36   117   116    1
    37     3     2    1
    38    50    51    2
    39    39    38    2
    40    90    92    1
    41   116   119    1
    42   116   115    1
    43    38    37    1
    44   110   109    2
    45   119   120    1
    46   122   120   ar
    47     2     1    1
    48     2     5    1
    49    42    41    2
    50   120   121   ar
    51    47    46    2
    52    44    45    1
    53   109   115   am
    54   109   108    1
    55    37    36    1
    56    37    40    1
    57     5     6    1
    58   114   112   ar
    59    41    40    1
    60    41    43   am
    61    46    45    1
    62    66    65   ar
    63    66    64   ar
    64    65    63   ar
    65   108   111    1
    66   108   107    1
    67   111   112    1
    68   112   113   ar
    69    81    80    2
    70     6     7   ar
    71     6     8   ar
    72    64    62   ar
    73    80    79    1
    74    63    61   ar
    75    56    57    1
    76    96    95    2
    77     7     9   ar
    78     8    10   ar
    79    62    61   ar
    80    61    60    1
    81    79    82    1
    82    79    78    1
    83    95    94    1
    84    57    60    1
    85    57    58    1
    86    93    94    1
    87    97    94    1
    88    97    98    1
    89     9    11   ar
    90    82    83    1
    91    99    98   ar
    92    99   101   ar
    93    10    11   ar
    94    98   100   ar
    95    11    12    1
    96    58    59    2
    97   101   102   ar
    98   145   147   ar
    99   145   143   ar
   100    83    84    1
   101   147   146   ar
   102   100   102   ar
   103   100   103   ar
   104   102   104   ar
   105    84    85    1
   106   143   142   ar
   107   103   105   ar
   108   146   144   ar
   109   104   106   ar
   110    35    34    2
   111   105   106   ar
   112    30    28   ar
   113    30    31   ar
   114   142   144   ar
   115   142   141    1
   116    24    23    2
   117    76    77   ar
   118    76    74   ar
   119    28    26   ar
   120    77    75   ar
   121   137   138    1
   122    33    34    1
   123    33    32    1
   124    74    72   ar
   125    31    29   ar
   126   141   138    1
   127    23    32   am
   128    23    22    1
   129   138   139    1
   130    67    68    1
   131    75    73   ar
   132    26    25    1
   133    26    27   ar
   134    25    22    1
   135    72    73   ar
   136    72    71    1
   137    22    21    1
   138    29    27   ar
   139    68    71    1
   140    68    69    1
   141   139   140    2
   142    69    70    2
