@<TRIPOS>MOLECULE
tmp/6eq5A00.pdb
 108 105 0 0 0
SMALL
GASTEIGER

@<TRIPOS>ATOM
      1  N        -19.8640   10.4530    7.5410 N.3     8  LEU8       -0.1245
      2  CA       -19.1390   11.7180    7.6770 C.3     8  LEU8        0.1561
      3  C        -19.1100   12.3920    6.3150 C.2     8  LEU8        0.2260
      4  O        -18.5890   11.8330    5.3460 O.2     8  LEU8       -0.2867
      5  CB       -17.7210   11.4840    8.2120 C.3     8  LEU8        0.0270
      6  CG       -16.8350   12.6740    8.5830 C.3     8  LEU8        0.0019
      7  CD1      -17.5910   13.6470    9.4490 C.3     8  LEU8        0.0001
      8  CD2      -15.6230   12.1550    9.3240 C.3     8  LEU8        0.0001
      9  N        -19.9800   13.7960   22.5130 N.3    26  PHE26      -0.1241
     10  CA       -18.6500   13.2140   22.3790 C.3    26  PHE26       0.1605
     11  C        -17.8110   14.0360   21.4070 C.2    26  PHE26       0.2264
     12  O        -18.1840   14.2080   20.2420 O.2    26  PHE26      -0.2867
     13  CB       -18.7600   11.7660   21.9120 C.3    26  PHE26       0.0534
     14  CG       -17.4450   11.0380   21.8730 C.ar   26  PHE26      -0.0203
     15  CD1      -16.8430   10.6010   23.0410 C.ar   26  PHE26      -0.0042
     16  CD2      -16.8140   10.7880   20.6660 C.ar   26  PHE26      -0.0042
     17  CE1      -15.6310    9.9240   23.0060 C.ar   26  PHE26      -0.0003
     18  CE2      -15.6080   10.1160   20.6250 C.ar   26  PHE26      -0.0003
     19  CZ       -15.0140    9.6830   21.7990 C.ar   26  PHE26      -0.0000
     20  N        -16.0550   19.5210   13.0380 N.3    32  ASN32      -0.1240
     21  CA       -16.3820   18.2470   12.4040 C.3    32  ASN32       0.1653
     22  C        -17.0810   18.4740   11.0700 C.2    32  ASN32       0.2266
     23  O        -17.6440   19.5440   10.8080 O.2    32  ASN32      -0.2867
     24  CB       -17.3060   17.3960   13.2960 C.3    32  ASN32       0.1155
     25  CG       -16.6230   16.8830   14.5510 C.2    32  ASN32       0.2627
     26  OD1      -16.5370   17.5820   15.5620 O.2    32  ASN32      -0.2716
     27  ND2      -16.1590   15.6400   14.5010 N.am   32  ASN32      -0.0877
     28  N        -12.3390    3.4410   13.6330 N.3    71  PHE71      -0.1241
     29  CA       -11.7690    3.9780   14.8590 C.3    71  PHE71       0.1605
     30  C        -11.9120    2.9720   15.9830 C.2    71  PHE71       0.2264
     31  O        -12.9960    2.4140   16.1830 O.2    71  PHE71      -0.2867
     32  CB       -12.4580    5.2690   15.2710 C.3    71  PHE71       0.0534
     33  CG       -12.2360    6.3890   14.3150 C.ar   71  PHE71      -0.0203
     34  CD1      -11.0060    7.0020   14.2400 C.ar   71  PHE71      -0.0042
     35  CD2      -13.2520    6.8360   13.5070 C.ar   71  PHE71      -0.0042
     36  CE1      -10.7870    8.0430   13.3570 C.ar   71  PHE71      -0.0003
     37  CE2      -13.0390    7.8790   12.6250 C.ar   71  PHE71      -0.0003
     38  CZ       -11.8010    8.4750   12.5530 C.ar   71  PHE71      -0.0000
     39  N        -11.2410    2.9570   20.1770 N.3    73  PHE73      -0.1241
     40  CA       -10.8500    3.5460   21.4450 C.3    73  PHE73       0.1605
     41  C        -10.5570    2.4210   22.4290 C.2    73  PHE73       0.2264
     42  O        -11.3910    1.5320   22.6180 O.2    73  PHE73      -0.2867
     43  CB       -11.9370    4.4790   21.9800 C.3    73  PHE73       0.0534
     44  CG       -12.1360    5.6950   21.1340 C.ar   73  PHE73      -0.0203
     45  CD1      -12.8170    5.6100   19.9290 C.ar   73  PHE73      -0.0042
     46  CD2      -11.6010    6.9200   21.5260 C.ar   73  PHE73      -0.0042
     47  CE1      -12.9810    6.7340   19.1270 C.ar   73  PHE73      -0.0003
     48  CE2      -11.7620    8.0380   20.7400 C.ar   73  PHE73      -0.0003
     49  CZ       -12.4530    7.9480   19.5390 C.ar   73  PHE73      -0.0000
     50  N        -15.9100    2.0770   15.5730 N.3    80  MET80      -0.1245
     51  CA       -16.6490    2.9920   14.7060 C.3    80  MET80       0.1570
     52  C        -16.2190    2.7740   13.2560 C.2    80  MET80       0.2261
     53  O        -15.0470    2.9600   12.9170 O.2    80  MET80      -0.2867
     54  CB       -16.4110    4.4560   15.0950 C.3    80  MET80       0.0387
     55  CG       -16.9030    4.8380   16.4630 C.3    80  MET80       0.0595
     56  SD       -16.4820    6.5570   16.7860 S.3    80  MET80      -0.1393
     57  CE       -17.1680    7.3280   15.3210 C.3    80  MET80       0.0692
     58  N        -16.5890    4.3300    9.9200 N.3    82  VAL82      -0.1245
     59  CA       -17.0050    5.6420    9.4190 C.3    82  VAL82       0.1561
     60  C        -16.8570    5.6820    7.9010 C.2    82  VAL82       0.2260
     61  O        -15.7560    5.5160    7.3560 O.2    82  VAL82      -0.2867
     62  CB       -16.2160    6.7830   10.0830 C.3    82  VAL82       0.0252
     63  CG1      -16.7390    8.1240    9.5680 C.3    82  VAL82       0.0019
     64  CG2      -16.3030    6.7100   11.6290 C.3    82  VAL82       0.0019
     65  N        -10.2940   16.6440   15.1960 N.3   116  TRP116     -0.1241
     66  CA        -9.8260   15.3290   15.6090 C.3   116  TRP116      0.1605
     67  C         -8.4270   15.0800   15.0590 C.2   116  TRP116      0.2264
     68  O         -8.1460   15.4100   13.9030 O.2   116  TRP116     -0.2867
     69  CB       -10.7910   14.2420   15.1360 C.3   116  TRP116      0.0550
     70  CG       -11.9460   14.0520   16.0790 C.ar  116  TRP116      0.0003
     71  CD1      -13.1470   14.7100   16.0610 C.ar  116  TRP116      0.0946
     72  CD2      -11.9980   13.1560   17.2030 C.ar  116  TRP116      0.0152
     73  NE1      -13.9480   14.2660   17.0950 N.ar  116  TRP116     -0.2442
     74  CE2      -13.2650   13.3150   17.8080 C.ar  116  TRP116      0.0810
     75  CE3      -11.1030   12.2290   17.7430 C.ar  116  TRP116      0.0012
     76  CZ2      -13.6540   12.5840   18.9320 C.ar  116  TRP116      0.0191
     77  CZ3      -11.4930   11.5010   18.8670 C.ar  116  TRP116      0.0001
     78  CH2      -12.7560   11.6850   19.4420 C.ar  116  TRP116      0.0015
     79  N         -6.8430   12.5920   13.9240 N.3   118  ASP118     -0.1225
     80  CA        -6.7420   11.8030   12.7030 C.3   118  ASP118      0.1805
     81  C         -6.9600   12.6290   11.4320 C.2   118  ASP118      0.2597
     82  O         -6.5310   12.1910   10.3630 O.2   118  ASP118     -0.2718
     83  CB        -7.7370   10.6350   12.7210 C.3   118  ASP118      0.1424
     84  CG        -9.1590   11.0820   12.9560 C.2   118  ASP118      0.3668
     85  OD1       -9.5350   11.2890   14.1350 O.co2 118  ASP118     -0.2456
     86  OD2       -9.8940   11.2240   11.9560 O.co2 118  ASP118     -0.2456
     87  N         -7.6210   13.7980   11.5170 N.am  119  ASP119     -0.1974
     88  CA        -7.8550   14.6180   10.3240 C.3   119  ASP119      0.1709
     89  C         -6.5450   15.0600    9.6900 C.2   119  ASP119      0.2293
     90  O         -6.4700   15.2220    8.4690 O.2   119  ASP119     -0.2864
     91  CB        -8.6990   15.8630   10.6450 C.3   119  ASP119      0.1436
     92  CG       -10.1840   15.5430   10.8540 C.2   119  ASP119      0.3671
     93  OD1      -10.7290   14.7510   10.0810 O.co2 119  ASP119     -0.2456
     94  OD2      -10.8170   16.0970   11.7820 O.co2 119  ASP119     -0.2456
     95  N         -5.6610   12.1440    7.0280 N.3   122  TRP122     -0.1241
     96  CA        -6.4070   11.8080    5.8230 C.3   122  TRP122      0.1605
     97  C         -7.0360   13.0110    5.1360 C.2   122  TRP122      0.2264
     98  O         -7.3240   12.9320    3.9400 O.2   122  TRP122     -0.2867
     99  CB        -7.4850   10.7480    6.1240 C.3   122  TRP122      0.0550
    100  CG        -8.5160   11.1360    7.1420 C.ar  122  TRP122      0.0003
    101  CD1       -8.4910   10.8600    8.4730 C.ar  122  TRP122      0.0946
    102  CD2       -9.7350   11.8620    6.9040 C.ar  122  TRP122      0.0152
    103  NE1       -9.6130   11.3650    9.0770 N.ar  122  TRP122     -0.2442
    104  CE2      -10.3930   11.9830    8.1400 C.ar  122  TRP122      0.0810
    105  CE3      -10.3300   12.4150    5.7650 C.ar  122  TRP122      0.0012
    106  CZ2      -11.6240   12.6420    8.2760 C.ar  122  TRP122      0.0191
    107  CZ3      -11.5470   13.0720    5.8970 C.ar  122  TRP122      0.0001
    108  CH2      -12.1720   13.1920    7.1480 C.ar  122  TRP122      0.0015
@<TRIPOS>BOND
     1    98    97    2
     2    97    96    1
     3     4     3    2
     4   105   107   ar
     5   105   102   ar
     6    96    99    1
     7    96    95    1
     8   107   108   ar
     9    99   100    1
    10     3     2    1
    11   102   100   ar
    12   102   104   ar
    13   100   101   ar
    14   108   106   ar
    15    61    60    2
    16     1     2    1
    17     2     5    1
    18    60    59    1
    19   104   106   ar
    20   104   103   ar
    21     5     6    1
    22    90    89    2
    23   101   103   ar
    24     6     8    1
    25     6     7    1
    26    59    58    1
    27    59    62    1
    28    63    62    1
    29    89    88    1
    30    93    92   ar
    31    62    64    1
    32    88    91    1
    33    88    87    1
    34    82    81    2
    35    91    92    1
    36    23    22    2
    37    92    94   ar
    38    22    21    1
    39    81    87   am
    40    81    80    1
    41    86    84   ar
    42    21    20    1
    43    21    24    1
    44    38    37   ar
    45    38    36   ar
    46    37    35   ar
    47    80    83    1
    48    80    79    1
    49    83    84    1
    50    53    52    2
    51    84    85   ar
    52    52    51    1
    53    24    25    1
    54    36    34   ar
    55    35    33   ar
    56    28    29    1
    57    68    67    2
    58    34    33   ar
    59    33    32    1
    60    27    25   am
    61    25    26    2
    62    51    54    1
    63    51    50    1
    64    29    32    1
    65    29    30    1
    66    67    66    1
    67    54    55    1
    68    69    66    1
    69    69    70    1
    70    65    66    1
    71    57    56    1
    72    30    31    2
    73    71    70   ar
    74    71    73   ar
    75    70    72   ar
    76    55    56    1
    77    73    74   ar
    78    72    75   ar
    79    72    74   ar
    80    75    77   ar
    81    74    76   ar
    82    77    78   ar
    83    76    78   ar
    84    47    49   ar
    85    47    45   ar
    86    49    48   ar
    87    45    44   ar
    88    39    40    1
    89    12    11    2
    90    18    16   ar
    91    18    19   ar
    92    16    14   ar
    93    48    46   ar
    94    44    46   ar
    95    44    43    1
    96    11    10    1
    97    40    43    1
    98    40    41    1
    99    19    17   ar
   100    14    13    1
   101    14    15   ar
   102    13    10    1
   103    10     9    1
   104    41    42    2
   105    17    15   ar
