@<TRIPOS>MOLECULE
tmp/6eq6A00.pdb
 163 159 0 0 0
SMALL
GASTEIGER

@<TRIPOS>ATOM
      1  N        -21.0900    4.7030  -24.8790 N.3     5  TYR5       -0.1227
      2  CA       -21.1990    6.1520  -24.8160 C.3     5  TYR5        0.1736
      3  C        -20.9100    6.7350  -26.1910 C.2     5  TYR5        0.2596
      4  O        -20.1880    6.1410  -27.0000 O.2     5  TYR5       -0.2718
      5  CB       -20.2270    6.7560  -23.7980 C.3     5  TYR5        0.0548
      6  CG       -20.6410    6.5600  -22.3760 C.ar    5  TYR5       -0.0200
      7  CD1      -20.3310    5.3870  -21.7000 C.ar    5  TYR5       -0.0009
      8  CD2      -21.3430    7.5440  -21.6970 C.ar    5  TYR5       -0.0009
      9  CE1      -20.7190    5.1950  -20.3850 C.ar    5  TYR5        0.0417
     10  CE2      -21.7330    7.3610  -20.3820 C.ar    5  TYR5        0.0417
     11  CZ       -21.4200    6.1840  -19.7320 C.ar    5  TYR5        0.1957
     12  OH       -21.8060    5.9990  -18.4230 O.3     5  TYR5       -0.2866
     13  N        -21.4760    7.9080  -26.4500 N.am    6  THR6       -0.1939
     14  CA       -21.2040    8.6290  -27.6750 C.3     6  THR6        0.2028
     15  C        -20.5290    9.9520  -27.3520 C.2     6  THR6        0.2642
     16  O        -20.6680   10.4970  -26.2510 O.2     6  THR6       -0.2714
     17  CB       -22.4760    8.8860  -28.4980 C.3     6  THR6        0.1808
     18  OG1      -23.4180    9.6380  -27.7250 O.3     6  THR6       -0.2208
     19  CG2      -23.1060    7.5660  -28.9330 C.3     6  THR6        0.0379
     20  N        -19.8020   10.4610  -28.3380 N.am    7  LEU7       -0.1977
     21  CA       -19.0980   11.7290  -28.2150 C.3     7  LEU7        0.1596
     22  C        -19.0470   12.3280  -29.6070 C.2     7  LEU7        0.2287
     23  O        -18.5740   11.6680  -30.5320 O.2     7  LEU7       -0.2864
     24  CB       -17.6950   11.5140  -27.6490 C.3     7  LEU7        0.0297
     25  CG       -16.8260   12.7570  -27.4650 C.3     7  LEU7        0.0022
     26  CD1      -17.4980   13.7160  -26.5030 C.3     7  LEU7        0.0001
     27  CD2      -15.4430   12.3790  -26.9610 C.3     7  LEU7        0.0001
     28  N        -20.9380   14.9910  -14.3480 N.3    25  PHE25      -0.1227
     29  CA       -19.8720   14.4130  -15.1620 C.3    25  PHE25       0.1736
     30  C        -19.2080   15.4700  -16.0370 C.2    25  PHE25       0.2596
     31  O        -19.8490   16.0550  -16.9150 O.2    25  PHE25      -0.2718
     32  CB       -20.4440   13.2950  -16.0420 C.3    25  PHE25       0.0547
     33  CG       -19.3940   12.4540  -16.7210 C.ar   25  PHE25      -0.0202
     34  CD1      -18.1300   12.3210  -16.1740 C.ar   25  PHE25      -0.0042
     35  CD2      -19.6750   11.7990  -17.9120 C.ar   25  PHE25      -0.0042
     36  CE1      -17.1630   11.5450  -16.7980 C.ar   25  PHE25      -0.0003
     37  CE2      -18.7120   11.0190  -18.5450 C.ar   25  PHE25      -0.0003
     38  CZ       -17.4560   10.8910  -17.9860 C.ar   25  PHE25      -0.0000
     39  N        -17.9220   15.7250  -15.7910 N.am   26  GLY26      -0.1957
     40  CA       -17.1670   16.6400  -16.6240 C.3    26  GLY26       0.1869
     41  C        -17.2730   18.1090  -16.2750 C.2    26  GLY26       0.2309
     42  O        -16.9350   18.9550  -17.1060 O.2    26  GLY26      -0.2863
     43  N        -15.6750   19.7390  -23.1740 N.3    31  ASN31      -0.1225
     44  CA       -16.0960   18.4040  -23.5920 C.3    31  ASN31       0.1785
     45  C        -16.7370   18.4670  -24.9730 C.2    31  ASN31       0.2597
     46  O        -17.3350   19.4760  -25.3460 O.2    31  ASN31      -0.2718
     47  CB       -17.1580   17.8050  -22.6310 C.3    31  ASN31       0.1169
     48  CG       -16.6250   17.5260  -21.2350 C.2    31  ASN31       0.2627
     49  OD1      -16.1170   16.4490  -20.9680 O.2    31  ASN31      -0.2716
     50  ND2      -16.7890   18.4850  -20.3270 N.am   31  ASN31      -0.0877
     51  N        -16.6490   17.3660  -25.7150 N.am   32  GLY32      -0.1957
     52  CA       -17.5790   17.1430  -26.8020 C.3    32  GLY32       0.1869
     53  C        -18.9640   16.8400  -26.2360 C.2    32  GLY32       0.2309
     54  O        -19.1720   16.7580  -25.0270 O.2    32  GLY32      -0.2863
     55  N        -22.2870   14.3800  -25.8290 N.3    34  GLY34      -0.1210
     56  CA       -22.6210   12.9680  -25.8780 C.3    34  GLY34       0.1956
     57  C        -23.1820   12.4840  -24.5630 C.2    34  GLY34       0.2612
     58  O        -23.5270   13.2680  -23.6740 O.2    34  GLY34      -0.2717
     59  N        -23.2500   11.1590  -24.4490 N.am   35  GLY35      -0.1956
     60  CA       -23.9090   10.5250  -23.3360 C.3    35  GLY35       0.1869
     61  C        -24.2130    9.0710  -23.6730 C.2    35  GLY35       0.2309
     62  O        -23.7440    8.5350  -24.6790 O.2    35  GLY35      -0.2863
     63  N        -12.4250    3.4000  -21.9960 N.3    70  PHE70      -0.1241
     64  CA       -11.8460    3.9530  -20.7760 C.3    70  PHE70       0.1605
     65  C        -11.9790    2.9460  -19.6460 C.2    70  PHE70       0.2264
     66  O        -13.0600    2.3880  -19.4310 O.2    70  PHE70      -0.2867
     67  CB       -12.5090    5.2780  -20.3810 C.3    70  PHE70       0.0534
     68  CG       -12.2680    6.3900  -21.3580 C.ar   70  PHE70      -0.0203
     69  CD1      -11.1610    7.2160  -21.2320 C.ar   70  PHE70      -0.0042
     70  CD2      -13.1460    6.6110  -22.4010 C.ar   70  PHE70      -0.0042
     71  CE1      -10.9350    8.2480  -22.1260 C.ar   70  PHE70      -0.0003
     72  CE2      -12.9280    7.6440  -23.3070 C.ar   70  PHE70      -0.0003
     73  CZ       -11.8220    8.4640  -23.1720 C.ar   70  PHE70      -0.0000
     74  N        -11.2100    2.6690  -15.4630 N.3    72  PHE72      -0.1241
     75  CA       -10.9070    3.3770  -14.2240 C.3    72  PHE72       0.1605
     76  C        -10.5550    2.3260  -13.1800 C.2    72  PHE72       0.2264
     77  O        -11.4220    1.5530  -12.7550 O.2    72  PHE72      -0.2867
     78  CB       -12.0860    4.2570  -13.8000 C.3    72  PHE72       0.0534
     79  CG       -12.3770    5.3620  -14.7810 C.ar   72  PHE72      -0.0203
     80  CD1      -11.6990    6.5550  -14.7050 C.ar   72  PHE72      -0.0042
     81  CD2      -13.2830    5.1760  -15.8140 C.ar   72  PHE72      -0.0042
     82  CE1      -11.9360    7.5630  -15.6220 C.ar   72  PHE72      -0.0003
     83  CE2      -13.5310    6.1770  -16.7300 C.ar   72  PHE72      -0.0003
     84  CZ       -12.8510    7.3740  -16.6360 C.ar   72  PHE72      -0.0000
     85  N        -15.9010    2.1450  -20.0210 N.3    79  MET79      -0.1245
     86  CA       -16.6560    3.0800  -20.8600 C.3    79  MET79       0.1570
     87  C        -16.2040    2.9060  -22.3010 C.2    79  MET79       0.2261
     88  O        -15.0500    3.1950  -22.6270 O.2    79  MET79      -0.2867
     89  CB       -16.4520    4.5430  -20.4440 C.3    79  MET79       0.0387
     90  CG       -16.7660    4.9060  -19.0220 C.3    79  MET79       0.0595
     91  SD       -16.5110    6.6820  -18.7620 S.3    79  MET79      -0.1393
     92  CE       -17.5290    7.4110  -20.0450 C.3    79  MET79       0.0692
     93  N        -16.4750    4.3960  -25.6900 N.3    81  VAL81      -0.1245
     94  CA       -16.9050    5.6790  -26.2530 C.3    81  VAL81       0.1561
     95  C        -16.7610    5.6480  -27.7670 C.2    81  VAL81       0.2260
     96  O        -15.6610    5.4520  -28.2950 O.2    81  VAL81      -0.2867
     97  CB       -16.1110    6.8480  -25.6500 C.3    81  VAL81       0.0252
     98  CG1      -16.5590    8.1720  -26.2790 C.3    81  VAL81       0.0019
     99  CG2      -16.2720    6.8760  -24.1330 C.3    81  VAL81       0.0019
    100  N         -9.8220   16.8430  -20.8530 N.3   115  TRP115     -0.1241
    101  CA        -9.3830   15.6140  -20.2140 C.3   115  TRP115      0.1605
    102  C         -7.9870   15.2270  -20.7120 C.2   115  TRP115      0.2264
    103  O         -7.6160   15.5410  -21.8420 O.2   115  TRP115     -0.2867
    104  CB       -10.3710   14.4940  -20.5060 C.3   115  TRP115      0.0550
    105  CG       -11.7720   14.8280  -20.0970 C.ar  115  TRP115      0.0003
    106  CD1      -12.7650   15.3140  -20.8940 C.ar  115  TRP115      0.0946
    107  CD2      -12.3270   14.7160  -18.7860 C.ar  115  TRP115      0.0152
    108  NE1      -13.9130   15.5080  -20.1620 N.ar  115  TRP115     -0.2442
    109  CE2      -13.6700   15.1430  -18.8630 C.ar  115  TRP115      0.0810
    110  CE3      -11.8240   14.2940  -17.5540 C.ar  115  TRP115      0.0012
    111  CZ2      -14.5120   15.1570  -17.7550 C.ar  115  TRP115      0.0191
    112  CZ3      -12.6650   14.3100  -16.4540 C.ar  115  TRP115      0.0001
    113  CH2      -13.9930   14.7390  -16.5630 C.ar  115  TRP115      0.0015
    114  N         -6.6510   12.5310  -21.8350 N.3   117  ASP117     -0.1225
    115  CA        -6.6100   11.7340  -23.0650 C.3   117  ASP117      0.1805
    116  C         -6.7870   12.5840  -24.3210 C.2   117  ASP117      0.2597
    117  O         -6.2980   12.2000  -25.3910 O.2   117  ASP117     -0.2718
    118  CB        -7.6920   10.6420  -23.0430 C.3   117  ASP117      0.1424
    119  CG        -9.0810   11.1900  -22.6750 C.2   117  ASP117      0.3668
    120  OD1       -9.2520   11.6030  -21.5230 O.co2 117  ASP117     -0.2456
    121  OD2      -10.0000   11.1950  -23.5230 O.co2 117  ASP117     -0.2456
    122  N         -7.4980   13.7190  -24.2260 N.am  118  ASP118     -0.1974
    123  CA        -7.7860   14.5260  -25.4170 C.3   118  ASP118      0.1709
    124  C         -6.5000   14.9630  -26.1150 C.2   118  ASP118      0.2293
    125  O         -6.4570   15.0720  -27.3500 O.2   118  ASP118     -0.2864
    126  CB        -8.6060   15.7620  -25.0470 C.3   118  ASP118      0.1436
    127  CG       -10.0540   15.4410  -24.6830 C.2   118  ASP118      0.3671
    128  OD1      -10.6840   14.5860  -25.3280 O.co2 118  ASP118     -0.2456
    129  OD2      -10.5740   16.0880  -23.7600 O.co2 118  ASP118     -0.2456
    130  N         -5.5810   11.8950  -28.6840 N.3   121  TRP121     -0.1241
    131  CA        -6.3820   11.5240  -29.8380 C.3   121  TRP121      0.1605
    132  C         -7.0060   12.7100  -30.5620 C.2   121  TRP121      0.2264
    133  O         -7.2670   12.6180  -31.7690 O.2   121  TRP121     -0.2867
    134  CB        -7.4740   10.5270  -29.4210 C.3   121  TRP121      0.0550
    135  CG        -8.4800   10.9970  -28.3960 C.ar  121  TRP121      0.0003
    136  CD1       -8.4410   10.7810  -27.0370 C.ar  121  TRP121      0.0946
    137  CD2       -9.7040   11.7060  -28.6520 C.ar  121  TRP121      0.0152
    138  NE1       -9.5530   11.3320  -26.4390 N.ar  121  TRP121     -0.2442
    139  CE2      -10.3450   11.8990  -27.4040 C.ar  121  TRP121      0.0810
    140  CE3      -10.3130   12.2010  -29.8080 C.ar  121  TRP121      0.0012
    141  CZ2      -11.5660   12.5620  -27.2840 C.ar  121  TRP121      0.0191
    142  CZ3      -11.5260   12.8680  -29.6880 C.ar  121  TRP121      0.0001
    143  CH2      -12.1390   13.0430  -28.4290 C.ar  121  TRP121      0.0015
    144  N         -7.0890    4.8800  -16.4520 N.3   137  PHE137     -0.1241
    145  CA        -7.0400    6.0110  -15.5410 C.3   137  PHE137      0.1605
    146  C         -6.9920    5.5560  -14.0890 C.2   137  PHE137      0.2264
    147  O         -7.5920    4.5460  -13.7110 O.2   137  PHE137     -0.2867
    148  CB        -8.2590    6.9210  -15.7130 C.3   137  PHE137      0.0534
    149  CG        -8.1490    7.8590  -16.8680 C.ar  137  PHE137     -0.0203
    150  CD1       -8.4470    7.4380  -18.1470 C.ar  137  PHE137     -0.0042
    151  CD2       -7.7380    9.1610  -16.6780 C.ar  137  PHE137     -0.0042
    152  CE1       -8.3400    8.3020  -19.2250 C.ar  137  PHE137     -0.0003
    153  CE2       -7.6330   10.0250  -17.7550 C.ar  137  PHE137     -0.0003
    154  CZ        -7.9380    9.5810  -19.0330 C.ar  137  PHE137     -0.0000
    155  N         -9.4240   10.8240  -12.2160 N.3   140  GLN140     -0.1245
    156  CA        -9.7810   11.4590  -13.4750 C.3   140  GLN140      0.1566
    157  C         -8.6490   12.2500  -14.1170 C.2   140  GLN140      0.2260
    158  O         -8.8170   12.7300  -15.2440 O.2   140  GLN140     -0.2867
    159  CB       -10.9860   12.3870  -13.2800 C.3   140  GLN140      0.0367
    160  CG       -12.1560   11.8030  -12.4830 C.3   140  GLN140      0.0905
    161  CD       -12.9450   10.8140  -13.3490 C.2   140  GLN140      0.2608
    162  OE1      -12.7690   10.6450  -14.5370 O.2   140  GLN140     -0.2717
    163  NE2      -13.9000   10.1640  -12.6590 N.am  140  GLN140     -0.0878
@<TRIPOS>BOND
     1   133   132    2
     2   132   131    1
     3    23    22    2
     4   131   134    1
     5   131   130    1
     6   140   142   ar
     7   140   137   ar
     8   142   143   ar
     9    22    21    1
    10   134   135    1
    11    19    17    1
    12   137   135   ar
    13   137   139   ar
    14    17    18    1
    15    17    14    1
    16   143   141   ar
    17   135   136   ar
    18    20    21    1
    19    20    15   am
    20    96    95    2
    21    21    24    1
    22    95    94    1
    23    14    15    1
    24    14    13    1
    25    24    25    1
    26    25    27    1
    27    25    26    1
    28   139   141   ar
    29   139   138   ar
    30    15    16    2
    31   125   124    2
    32   136   138   ar
    33     4     3    2
    34    52    53    1
    35    52    51    1
    36    13     3   am
    37    98    97    1
    38    94    93    1
    39    94    97    1
    40    53    54    2
    41     3     2    1
    42   124   123    1
    43    56    55    1
    44    56    57    1
    45    51    45   am
    46    97    99    1
    47   123   126    1
    48   123   122    1
    49   117   116    2
    50    46    45    2
    51   128   127   ar
    52   126   127    1
    53    45    44    1
    54     1     2    1
    55     2     5    1
    56   127   129   ar
    57    62    61    2
    58    57    59   am
    59    57    58    2
    60    59    60    1
    61   116   122   am
    62   116   115    1
    63     5     6    1
    64    61    60    1
    65    44    43    1
    66    44    47    1
    67   121   119   ar
    68    72    73   ar
    69    72    70   ar
    70    73    71   ar
    71   115   118    1
    72   115   114    1
    73   118   119    1
    74   119   120   ar
    75    47    48    1
    76    88    87    2
    77    70    68   ar
    78     6     7   ar
    79     6     8   ar
    80    87    86    1
    81    71    69   ar
    82    63    64    1
    83   103   102    2
    84     7     9   ar
    85     8    10   ar
    86    68    69   ar
    87    68    67    1
    88    48    49    2
    89    48    50   am
    90   106   108   ar
    91   106   105   ar
    92    86    89    1
    93    86    85    1
    94   100   101    1
    95    64    67    1
    96    64    65    1
    97   102   101    1
    98   104   101    1
    99   104   105    1
   100    89    90    1
   101     9    11   ar
   102    10    11   ar
   103   108   109   ar
   104   105   107   ar
   105    92    91    1
   106    11    12    1
   107    65    66    2
   108   152   154   ar
   109   152   150   ar
   110   154   153   ar
   111    90    91    1
   112   109   107   ar
   113   109   111   ar
   114   107   110   ar
   115    37    38   ar
   116    37    35   ar
   117   150   149   ar
   118    38    36   ar
   119    35    33   ar
   120   111   113   ar
   121   153   151   ar
   122   110   112   ar
   123    42    41    2
   124    31    30    2
   125   149   151   ar
   126   149   148    1
   127    36    34   ar
   128    83    84   ar
   129    83    81   ar
   130    33    34   ar
   131    33    32    1
   132    84    82   ar
   133    40    41    1
   134    40    39    1
   135   113   112   ar
   136   144   145    1
   137    32    29    1
   138    30    39   am
   139    30    29    1
   140    81    79   ar
   141   148   145    1
   142    82    80   ar
   143   145   146    1
   144    74    75    1
   145   158   157    2
   146    29    28    1
   147    79    80   ar
   148    79    78    1
   149   162   161    2
   150    75    78    1
   151    75    76    1
   152   157   156    1
   153   146   147    2
   154   156   159    1
   155   156   155    1
   156   161   163   am
   157   161   160    1
   158   159   160    1
   159    76    77    2
