@<TRIPOS>MOLECULE
tmp/6eq7A00.pdb
 139 135 0 0 0
SMALL
GASTEIGER

@<TRIPOS>ATOM
      1  N        -11.1620   -9.1020    4.7140 N.3     5  TYR5       -0.1241
      2  CA       -11.1560   -8.9200    6.1560 C.3     5  TYR5        0.1605
      3  C         -9.7550   -9.1940    6.6720 C.2     5  TYR5        0.2264
      4  O         -8.9650   -9.8890    6.0350 O.2     5  TYR5       -0.2867
      5  CB       -12.0720   -9.9300    6.8600 C.3     5  TYR5        0.0534
      6  CG       -13.5400   -9.7880    6.5520 C.ar    5  TYR5       -0.0201
      7  CD1      -14.0670  -10.2650    5.3550 C.ar    5  TYR5       -0.0009
      8  CD2      -14.4070   -9.2100    7.4730 C.ar    5  TYR5       -0.0009
      9  CE1      -15.4180  -10.1460    5.0650 C.ar    5  TYR5        0.0417
     10  CE2      -15.7630   -9.0990    7.1970 C.ar    5  TYR5        0.0417
     11  CZ       -16.2550   -9.5670    5.9930 C.ar    5  TYR5        0.1957
     12  OH       -17.6080   -9.4540    5.7170 O.3     5  TYR5       -0.2866
     13  N         -7.5930  -10.3740   10.4220 N.3     7  LEU7       -0.1245
     14  CA        -7.7010  -10.9790   11.7420 C.3     7  LEU7        0.1561
     15  C         -6.3130  -10.9830   12.3550 C.2     7  LEU7        0.2260
     16  O         -5.3740  -11.4850   11.7320 O.2     7  LEU7       -0.2867
     17  CB        -8.2340  -12.4210   11.6280 C.3     7  LEU7        0.0270
     18  CG        -8.3920  -13.1840   12.9460 C.3     7  LEU7        0.0019
     19  CD1       -9.3730  -12.4970   13.8700 C.3     7  LEU7        0.0001
     20  CD2       -8.8090  -14.6100   12.7020 C.3     7  LEU7        0.0001
     21  N        -21.9510   -9.5530   14.0570 N.3    25  PHE25      -0.1227
     22  CA       -21.5490  -10.8140   13.4560 C.3    25  PHE25       0.1736
     23  C        -20.4360  -11.4580   14.2700 C.2    25  PHE25       0.2596
     24  O        -19.4110  -10.8290   14.5520 O.2    25  PHE25      -0.2718
     25  CB       -21.0760  -10.5800   12.0270 C.3    25  PHE25       0.0547
     26  CG       -20.7610  -11.8380   11.2850 C.ar   25  PHE25      -0.0202
     27  CD1      -21.7760  -12.6610   10.8220 C.ar   25  PHE25      -0.0042
     28  CD2      -19.4500  -12.2090   11.0580 C.ar   25  PHE25      -0.0042
     29  CE1      -21.4850  -13.8250   10.1390 C.ar   25  PHE25      -0.0003
     30  CE2      -19.1550  -13.3740   10.3760 C.ar   25  PHE25      -0.0003
     31  CZ       -20.1700  -14.1810    9.9130 C.ar   25  PHE25      -0.0000
     32  N        -20.6400  -12.7160   14.6450 N.am   26  GLY26      -0.1957
     33  CA       -19.6750  -13.4290   15.4570 C.3    26  GLY26       0.1869
     34  C        -19.8350  -13.2380   16.9480 C.2    26  GLY26       0.2309
     35  O        -19.0060  -13.7490   17.7090 O.2    26  GLY26      -0.2863
     36  N        -12.4110  -14.5710   19.7430 N.3    31  ASN31      -0.1240
     37  CA       -11.7750  -14.4010   18.4420 C.3    31  ASN31       0.1653
     38  C        -10.5850  -13.4630   18.5860 C.2    31  ASN31       0.2266
     39  O        -10.3970  -12.8070   19.6180 O.2    31  ASN31      -0.2867
     40  CB       -12.7870  -13.8390   17.4340 C.3    31  ASN31       0.1155
     41  CG       -12.4510  -14.1840   15.9960 C.2    31  ASN31       0.2627
     42  OD1      -11.3240  -14.5380   15.6660 O.2    31  ASN31      -0.2716
     43  ND2      -13.4570  -14.1030   15.1250 N.am   31  ASN31      -0.0877
     44  N        -11.5810   -7.1010   11.0520 N.3    35  GLY35      -0.1225
     45  CA       -12.7660   -6.5520   10.4220 C.3    35  GLY35       0.1811
     46  C        -12.4790   -6.2130    8.9710 C.2    35  GLY35       0.2280
     47  O        -11.4960   -6.6670    8.3970 O.2    35  GLY35      -0.2866
     48  N        -13.9660  -17.9530    3.5660 N.3    70  PHE70      -0.1241
     49  CA       -15.1910  -18.5280    4.1040 C.3    70  PHE70       0.1605
     50  C        -16.3250  -18.3560    3.1060 C.2    70  PHE70       0.2264
     51  O        -16.5680  -17.2540    2.6080 O.2    70  PHE70      -0.2867
     52  CB       -15.5770  -17.8540    5.4230 C.3    70  PHE70       0.0534
     53  CG       -14.5920  -18.1000    6.5330 C.ar   70  PHE70      -0.0203
     54  CD1      -14.5090  -19.3450    7.1330 C.ar   70  PHE70      -0.0042
     55  CD2      -13.7570  -17.0880    6.9700 C.ar   70  PHE70      -0.0042
     56  CE1      -13.5910  -19.5760    8.1390 C.ar   70  PHE70      -0.0003
     57  CE2      -12.8410  -17.3170    7.9760 C.ar   70  PHE70      -0.0003
     58  CZ       -12.7620  -18.5590    8.5690 C.ar   70  PHE70      -0.0000
     59  N        -20.4410  -18.9570    3.1200 N.3    72  PHE72      -0.1241
     60  CA       -21.6760  -19.3040    3.8130 C.3    72  PHE72       0.1605
     61  C        -22.7160  -19.6060    2.7450 C.2    72  PHE72       0.2264
     62  O        -23.0440  -18.7300    1.9360 O.2    72  PHE72      -0.2867
     63  CB       -22.1230  -18.1700    4.7410 C.3    72  PHE72       0.0534
     64  CG       -21.2210  -17.9850    5.9230 C.ar   72  PHE72      -0.0203
     65  CD1      -21.4300  -18.6990    7.0800 C.ar   72  PHE72      -0.0042
     66  CD2      -20.1200  -17.1520    5.8410 C.ar   72  PHE72      -0.0042
     67  CE1      -20.5740  -18.5580    8.1660 C.ar   72  PHE72      -0.0003
     68  CE2      -19.2600  -17.0080    6.9210 C.ar   72  PHE72      -0.0003
     69  CZ       -19.4880  -17.7160    8.0780 C.ar   72  PHE72      -0.0000
     70  N        -15.8570  -14.4610    2.1750 N.3    79  MET79      -0.1245
     71  CA       -15.0930  -13.6380    3.1100 C.3    79  MET79       0.1570
     72  C        -13.6400  -14.0750    3.0310 C.2    79  MET79       0.2261
     73  O        -13.3120  -15.2060    3.3920 O.2    79  MET79      -0.2867
     74  CB       -15.6220  -13.8030    4.5290 C.3    79  MET79       0.0387
     75  CG       -17.0600  -13.4190    4.6730 C.3    79  MET79       0.0595
     76  SD       -17.5850  -13.6150    6.3830 S.3    79  MET79      -0.1393
     77  CE       -19.3180  -13.1620    6.2890 C.3    79  MET79       0.0692
     78  N        -10.2630  -13.7200    4.5010 N.3    81  VAL81      -0.1245
     79  CA        -9.7060  -13.2670    5.7780 C.3    81  VAL81       0.1561
     80  C         -8.1970  -13.4290    5.7470 C.2    81  VAL81       0.2260
     81  O         -7.6840  -14.5450    5.5990 O.2    81  VAL81      -0.2867
     82  CB       -10.3030  -14.0450    6.9620 C.3    81  VAL81       0.0252
     83  CG1       -9.7360  -13.5240    8.2670 C.3    81  VAL81       0.0019
     84  CG2      -11.8230  -13.9470    6.9630 C.3    81  VAL81       0.0019
     85  N        -15.3970  -20.0420   16.7860 N.3   115  TRP115     -0.1241
     86  CA       -15.8680  -20.5700   15.5170 C.3   115  TRP115      0.1605
     87  C        -15.2710  -21.9580   15.3150 C.2   115  TRP115      0.2264
     88  O        -14.1100  -22.1940   15.6790 O.2   115  TRP115     -0.2867
     89  CB       -15.4200  -19.6700   14.3650 C.3   115  TRP115      0.0550
     90  CG       -16.1610  -18.3870   14.2320 C.ar  115  TRP115      0.0003
     91  CD1      -15.8610  -17.1870   14.8260 C.ar  115  TRP115      0.0946
     92  CD2      -17.3030  -18.1520   13.4040 C.ar  115  TRP115      0.0152
     93  NE1      -16.7680  -16.2250   14.4300 N.ar  115  TRP115     -0.2442
     94  CE2      -17.6580  -16.7950   13.5520 C.ar  115  TRP115      0.0810
     95  CE3      -18.0600  -18.9650   12.5490 C.ar  115  TRP115      0.0012
     96  CZ2      -18.7470  -16.2340   12.8840 C.ar  115  TRP115      0.0191
     97  CZ3      -19.1390  -18.4030   11.8800 C.ar  115  TRP115      0.0001
     98  CH2      -19.4750  -17.0580   12.0560 C.ar  115  TRP115      0.0015
     99  N        -14.1240  -23.6890   12.7740 N.3   117  ASP117     -0.1225
    100  CA       -12.9460  -23.8920   11.9420 C.3   117  ASP117      0.1805
    101  C        -11.6590  -23.5880   12.6930 C.2   117  ASP117      0.2597
    102  O        -10.5990  -24.0850   12.2960 O.2   117  ASP117     -0.2718
    103  CB       -13.0390  -23.0000   10.7060 C.3   117  ASP117      0.1424
    104  CG       -13.2700  -21.5500   11.0630 C.2   117  ASP117      0.3668
    105  OD1      -14.3980  -21.2300   11.5010 O.co2 117  ASP117     -0.2456
    106  OD2      -12.3280  -20.7410   10.9090 O.co2 117  ASP117     -0.2456
    107  N        -11.7290  -22.7920   13.7660 N.am  118  ASP118     -0.1974
    108  CA       -10.5120  -22.4100   14.4740 C.3   118  ASP118      0.1709
    109  C         -9.7880  -23.6190   15.0400 C.2   118  ASP118      0.2293
    110  O         -8.5610  -23.5990   15.1430 O.2   118  ASP118     -0.2864
    111  CB       -10.8000  -21.3890   15.5730 C.3   118  ASP118      0.1436
    112  CG       -11.3380  -20.0940   15.0240 C.2   118  ASP118      0.3671
    113  OD1      -11.9640  -20.1250   13.9400 O.co2 118  ASP118     -0.2456
    114  OD2      -11.1610  -19.0570   15.6820 O.co2 118  ASP118     -0.2456
    115  N         -7.1720  -24.6630   12.2820 N.3   121  TRP121     -0.1241
    116  CA        -6.0000  -23.8740   11.9110 C.3   121  TRP121      0.1605
    117  C         -5.2920  -23.1900   13.0700 C.2   121  TRP121      0.2264
    118  O         -4.1120  -22.8390   12.9320 O.2   121  TRP121     -0.2867
    119  CB        -6.3480  -22.8220   10.8480 C.3   121  TRP121      0.0550
    120  CG        -7.4830  -21.8800   11.2180 C.ar  121  TRP121      0.0003
    121  CD1       -8.8060  -22.0090   10.8740 C.ar  121  TRP121      0.0946
    122  CD2       -7.3800  -20.6590   11.9600 C.ar  121  TRP121      0.0152
    123  NE1       -9.5250  -20.9580   11.3720 N.ar  121  TRP121     -0.2442
    124  CE2       -8.6790  -20.1070   12.0370 C.ar  121  TRP121      0.0810
    125  CE3       -6.3160  -19.9770   12.5630 C.ar  121  TRP121      0.0012
    126  CZ2       -8.9430  -18.9030   12.7040 C.ar  121  TRP121      0.0191
    127  CZ3       -6.5730  -18.7790   13.2280 C.ar  121  TRP121      0.0001
    128  CH2       -7.8790  -18.2550   13.2920 C.ar  121  TRP121      0.0015
    129  N        -19.5160  -23.1830    5.1550 N.3   137  PHE137     -0.1241
    130  CA       -20.4130  -23.2690    6.2960 C.3   137  PHE137      0.1605
    131  C        -21.8650  -23.3060    5.8360 C.2   137  PHE137      0.2264
    132  O        -22.2370  -22.6940    4.8250 O.2   137  PHE137     -0.2867
    133  CB       -20.2920  -22.0020    7.1540 C.3   137  PHE137      0.0534
    134  CG       -19.2320  -22.0610    8.2190 C.ar  137  PHE137     -0.0203
    135  CD1      -17.9100  -21.8110    7.9060 C.ar  137  PHE137     -0.0042
    136  CD2      -19.5650  -22.3330    9.5420 C.ar  137  PHE137     -0.0042
    137  CE1      -16.9230  -21.8490    8.8830 C.ar  137  PHE137     -0.0003
    138  CE2      -18.5760  -22.3750   10.5380 C.ar  137  PHE137     -0.0003
    139  CZ       -17.2520  -22.1300   10.1960 C.ar  137  PHE137     -0.0000
@<TRIPOS>BOND
     1    62    61    2
     2    70    71    1
     3    51    50    2
     4    61    60    1
     5    72    71    1
     6    72    73    2
     7    50    49    1
     8    71    74    1
     9    59    60    1
    10    48    49    1
    11    60    63    1
    12    49    52    1
    13    78    79    1
    14    74    75    1
    15    75    76    1
    16     1     2    1
    17    63    64    1
    18   132   131    2
    19     9     7   ar
    20     9    11   ar
    21   129   130    1
    22     7     6   ar
    23    52    53    1
    24    81    80    2
    25    12    11    1
    26    80    79    1
    27    79    82    1
    28   131   130    1
    29    66    64   ar
    30    66    68   ar
    31    64    65   ar
    32    11    10   ar
    33     4     3    2
    34     2     3    1
    35     2     5    1
    36    77    76    1
    37   130   133    1
    38    53    55   ar
    39    53    54   ar
    40     6     5    1
    41     6     8   ar
    42    68    69   ar
    43    82    84    1
    44    82    83    1
    45    55    57   ar
    46    65    67   ar
    47    54    56   ar
    48   133   134    1
    49    10     8   ar
    50   135   134   ar
    51   135   137   ar
    52    57    58   ar
    53    69    67   ar
    54    56    58   ar
    55   134   136   ar
    56    47    46    2
    57   137   139   ar
    58    46    45    1
    59   136   138   ar
    60    31    29   ar
    61    31    30   ar
    62    29    27   ar
    63   139   138   ar
    64    30    28   ar
    65    45    44    1
    66    13    14    1
    67   103   104    1
    68   103   100    1
    69    27    26   ar
    70   119   120    1
    71   119   116    1
    72   121   120   ar
    73   121   123   ar
    74   106   104   ar
    75    28    26   ar
    76   104   105   ar
    77   120   122   ar
    78    26    25    1
    79   123   124   ar
    80    17    14    1
    81    17    18    1
    82    16    15    2
    83    14    15    1
    84    97    98   ar
    85    97    95   ar
    86   116   115    1
    87   116   117    1
    88   100   101    1
    89   100    99    1
    90   122   124   ar
    91   122   125   ar
    92    25    22    1
    93   124   126   ar
    94    98    96   ar
    95   102   101    2
    96    95    92   ar
    97   125   127   ar
    98   101   107   am
    99    20    18    1
   100   126   128   ar
   101    96    94   ar
   102   118   117    2
   103    18    19    1
   104   127   128   ar
   105    92    94   ar
   106    92    90   ar
   107    22    21    1
   108    22    23    1
   109    94    93   ar
   110   107   108    1
   111   113   112   ar
   112    90    89    1
   113    90    91   ar
   114    23    24    2
   115    23    32   am
   116    89    86    1
   117    93    91   ar
   118   108   109    1
   119   108   111    1
   120    32    33    1
   121   112   111    1
   122   112   114   ar
   123   109   110    2
   124    43    41   am
   125    87    86    1
   126    87    88    2
   127    33    34    1
   128    86    85    1
   129    42    41    2
   130    41    40    1
   131    34    35    2
   132    40    37    1
   133    37    38    1
   134    37    36    1
   135    38    39    2
