@<TRIPOS>MOLECULE
tmp/6eq8C05.pdb
 74 71 0 0 0
SMALL
GASTEIGER

@<TRIPOS>ATOM
      1  N         74.4840  -40.1250   65.0830 N.3    20  ASN20      -0.1240
      2  CA        74.0190  -41.3440   64.4310 C.3    20  ASN20       0.1653
      3  C         75.2910  -41.9420   63.8310 C.2    20  ASN20       0.2266
      4  O         75.8230  -41.3990   62.8590 O.2    20  ASN20      -0.2867
      5  CB        72.9870  -41.0210   63.3300 C.3    20  ASN20       0.1155
      6  CG        71.7130  -40.3780   63.8430 C.2    20  ASN20       0.2627
      7  OD1       71.3040  -39.2790   63.4260 O.2    20  ASN20      -0.2716
      8  ND2       71.0900  -41.0340   64.7950 N.am   20  ASN20      -0.0877
      9  N         77.7270  -44.3310   61.8650 N.3    22  VAL22      -0.1245
     10  CA        77.6420  -45.0200   60.5760 C.3    22  VAL22       0.1561
     11  C         78.9880  -45.6580   60.2220 C.2    22  VAL22       0.2260
     12  O         79.9930  -45.3570   60.8530 O.2    22  VAL22      -0.2867
     13  CB        77.1450  -44.0410   59.4430 C.3    22  VAL22       0.0252
     14  CG1       75.6920  -43.6250   59.6630 C.3    22  VAL22       0.0019
     15  CG2       78.0540  -42.8160   59.2870 C.3    22  VAL22       0.0019
     16  N         72.9760  -40.8870   49.4800 N.3    68  THR68      -0.1203
     17  CA        71.7760  -40.3300   50.1370 C.3    68  THR68       0.1994
     18  C         71.5120  -40.8920   51.5420 C.2    68  THR68       0.2618
     19  O         71.0020  -40.1550   52.3700 O.2    68  THR68      -0.2717
     20  CB        70.5200  -40.4440   49.2510 C.3    68  THR68       0.1784
     21  OG1       70.2440  -41.8220   49.0750 O.3    68  THR68      -0.2211
     22  CG2       70.6610  -39.7690   47.9360 C.3    68  THR68       0.0376
     23  N         71.8850  -42.1520   51.8000 N.am   69  GLY69      -0.1942
     24  CA        71.7170  -42.8150   53.0940 C.3    69  GLY69       0.2014
     25  C         72.3080  -42.0640   54.2760 C.2    69  GLY69       0.2639
     26  O         71.7230  -42.0560   55.3670 O.2    69  GLY69      -0.2714
     27  N         73.4630  -41.4140   54.0520 N.am   70  ASN70      -0.1958
     28  CA        74.1630  -40.6060   55.0400 C.3    70  ASN70       0.1819
     29  C         73.6420  -39.1630   55.1280 C.2    70  ASN70       0.2621
     30  O         73.9230  -38.4850   56.1160 O.2    70  ASN70      -0.2715
     31  CB        75.6780  -40.6240   54.7770 C.3    70  ASN70       0.1195
     32  CG        76.4810  -40.1100   55.9430 C.2    70  ASN70       0.2630
     33  OD1       76.5440  -40.7310   57.0190 O.2    70  ASN70      -0.2716
     34  ND2       77.0220  -38.9130   55.7790 N.am   70  ASN70      -0.0877
     35  N         72.9400  -38.6780   54.1020 N.am   71  MET71      -0.1964
     36  CA        72.3980  -37.3110   54.1280 C.3    71  MET71       0.1722
     37  C         71.3140  -37.1940   55.2120 C.2    71  MET71       0.2458
     38  O         70.3420  -37.9330   55.1560 O.2    71  MET71      -0.2730
     39  CB        71.8300  -36.8970   52.7580 C.3    71  MET71       0.0427
     40  CG        72.8930  -36.6550   51.7250 C.3    71  MET71       0.0599
     41  SD        72.1500  -36.2560   50.1390 S.3    71  MET71      -0.1393
     42  CE        73.6150  -35.8790   49.1990 C.3    71  MET71       0.0692
     43  N         71.4880  -36.3020   56.2280 N.am   72  PRO72      -0.2727
     44  CA        70.4700  -36.1950   57.2950 C.3    72  PRO72       0.1402
     45  C         69.0400  -35.9440   56.8120 C.2    72  PRO72       0.2269
     46  O         68.1110  -36.4860   57.3980 O.2    72  PRO72      -0.2865
     47  CB        70.9900  -35.0420   58.1590 C.3    72  PRO72       0.0296
     48  CG        72.4500  -35.0600   57.9310 C.3    72  PRO72       0.0237
     49  CD        72.6250  -35.3970   56.4910 C.3    72  PRO72       0.0939
     50  N         81.1550  -38.9910   62.9640 N.3   122  GLN122     -0.1245
     51  CA        79.9790  -39.8590   62.8580 C.3   122  GLN122      0.1566
     52  C         80.3060  -41.3360   62.5300 C.2   122  GLN122      0.2260
     53  O         79.3880  -42.1520   62.4320 O.2   122  GLN122     -0.2867
     54  CB        78.9500  -39.2680   61.8830 C.3   122  GLN122      0.0367
     55  CG        79.3430  -39.4050   60.4160 C.3   122  GLN122      0.0905
     56  CD        78.6070  -38.4420   59.5470 C.2   122  GLN122      0.2608
     57  OE1       77.4140  -38.5910   59.2890 O.2   122  GLN122     -0.2717
     58  NE2       79.3150  -37.4500   59.0440 N.am  122  GLN122     -0.0878
     59  N         74.2370  -32.5590   60.0460 N.3   622  PRO622     -0.2102
     60  CA        74.2090  -33.7720   60.8770 C.3   622  PRO622      0.1504
     61  C         74.0000  -33.4780   62.3480 C.2   622  PRO622      0.2575
     62  O         74.5090  -32.4930   62.8800 O.2   622  PRO622     -0.2718
     63  CB        75.5820  -34.4380   60.6210 C.3   622  PRO622      0.0282
     64  CG        76.1700  -33.7130   59.4660 C.3   622  PRO622      0.0208
     65  CD        75.5760  -32.3460   59.4550 C.3   622  PRO622      0.0893
     66  N         73.1940  -34.3220   62.9740 N.am  623  GLN623     -0.1980
     67  CA        72.8660  -34.3520   64.3920 C.3   623  GLN623      0.1601
     68  C         74.1450  -34.6750   65.1740 C.2   623  GLN623      0.2287
     69  O         74.9090  -35.5560   64.7760 O.2   623  GLN623     -0.2864
     70  CB        71.8530  -35.4880   64.6160 C.3   623  GLN623      0.0394
     71  CG        70.9740  -35.3750   65.8520 C.3   623  GLN623      0.0908
     72  CD        70.0320  -36.5590   65.9370 C.2   623  GLN623      0.2608
     73  OE1       70.2080  -37.4670   66.7600 O.2   623  GLN623     -0.2717
     74  NE2       69.0310  -36.6030   65.0560 N.am  623  GLN623     -0.0878
@<TRIPOS>BOND
     1    22    20    1
     2    21    20    1
     3    42    41    1
     4    20    17    1
     5    16    17    1
     6    17    18    1
     7    41    40    1
     8    18    23   am
     9    18    19    2
    10    40    39    1
    11    23    24    1
    12    39    36    1
    13    24    25    1
    14    27    25   am
    15    27    28    1
    16    35    36    1
    17    35    29   am
    18    36    37    1
    19    25    26    2
    20    31    28    1
    21    31    32    1
    22    28    29    1
    23    29    30    2
    24    38    37    2
    25    37    43   am
    26    34    32   am
    27    32    33    2
    28    43    49    1
    29    43    44    1
    30    49    48    1
    31    45    44    1
    32    45    46    2
    33    44    47    1
    34    48    47    1
    35    58    56   am
    36    15    13    1
    37    57    56    2
    38    13    14    1
    39    13    10    1
    40    65    64    1
    41    65    59    1
    42    64    63    1
    43    56    55    1
    44    59    60    1
    45    11    10    1
    46    11    12    2
    47    55    54    1
    48    10     9    1
    49    63    60    1
    50    60    61    1
    51    54    51    1
    52    61    62    2
    53    61    66   am
    54    53    52    2
    55    52    51    1
    56    51    50    1
    57     4     3    2
    58    66    67    1
    59     5     6    1
    60     5     2    1
    61     7     6    2
    62     3     2    1
    63     6     8   am
    64    67    70    1
    65    67    68    1
    66     2     1    1
    67    70    71    1
    68    69    68    2
    69    74    72   am
    70    71    72    1
    71    72    73    2
