@<TRIPOS>MOLECULE
tmp/6eq8C01.pdb
 183 177 0 0 0
SMALL
GASTEIGER

@<TRIPOS>ATOM
      1  N         90.2040  -17.1630   58.0730 N.3   103  TRP103     -0.1227
      2  CA        89.7110  -18.2550   58.9460 C.3   103  TRP103      0.1737
      3  C         88.1770  -18.3720   58.9560 C.2   103  TRP103      0.2596
      4  O         87.5330  -17.9470   57.9950 O.2   103  TRP103     -0.2718
      5  CB        90.2860  -18.1470   60.3870 C.3   103  TRP103      0.0564
      6  CG        91.7750  -18.0650   60.4280 C.ar  103  TRP103      0.0003
      7  CD1       92.5280  -16.9590   60.6720 C.ar  103  TRP103      0.0946
      8  CD2       92.6950  -19.1310   60.1770 C.ar  103  TRP103      0.0152
      9  NE1       93.8550  -17.2660   60.5960 N.ar  103  TRP103     -0.2442
     10  CE2       93.9930  -18.5950   60.3070 C.ar  103  TRP103      0.0810
     11  CE3       92.5490  -20.5030   59.8720 C.ar  103  TRP103      0.0012
     12  CZ2       95.1430  -19.3820   60.1680 C.ar  103  TRP103      0.0191
     13  CZ3       93.6840  -21.2800   59.7530 C.ar  103  TRP103      0.0001
     14  CH2       94.9630  -20.7230   59.8960 C.ar  103  TRP103      0.0015
     15  N         87.6160  -18.9810   60.0020 N.am  104  GLY104     -0.1942
     16  CA        86.1840  -19.1840   60.1520 C.3   104  GLY104      0.2014
     17  C         85.5050  -19.9360   59.0170 C.2   104  GLY104      0.2639
     18  O         84.3320  -19.6840   58.7250 O.2   104  GLY104     -0.2714
     19  N         86.2590  -20.8380   58.3740 N.am  105  GLY105     -0.1954
     20  CA        85.8070  -21.6880   57.2810 C.3   105  GLY105      0.1869
     21  C         86.2190  -21.3200   55.8630 C.2   105  GLY105      0.2309
     22  O         86.0630  -22.1570   54.9770 O.2   105  GLY105     -0.2863
     23  N         89.3550  -20.7590   54.2920 N.3   107  ASP107     -0.1225
     24  CA        90.3990  -21.6420   53.7520 C.3   107  ASP107      0.1805
     25  C         90.0070  -23.1130   53.7760 C.2   107  ASP107      0.2597
     26  O         90.4660  -23.8760   52.9160 O.2   107  ASP107     -0.2718
     27  CB        91.7610  -21.4220   54.4170 C.3   107  ASP107      0.1424
     28  CG        91.7630  -21.6980   55.8830 C.2   107  ASP107      0.3668
     29  OD1       91.1260  -20.9290   56.6220 O.co2 107  ASP107     -0.2456
     30  OD2       92.4160  -22.6710   56.2950 O.co2 107  ASP107     -0.2456
     31  N         89.1470  -23.5090   54.7370 N.am  108  ILE108     -0.1980
     32  CA        88.5890  -24.8670   54.7950 C.3   108  ILE108      0.1595
     33  C         87.7890  -25.1280   53.4650 C.2   108  ILE108      0.2287
     34  O         87.9970  -26.1450   52.8060 O.2   108  ILE108     -0.2864
     35  CB        87.7380  -25.0650   56.0820 C.3   108  ILE108      0.0276
     36  CG1       88.6630  -25.2350   57.3230 C.3   108  ILE108      0.0022
     37  CG2       86.7280  -26.2230   55.9330 C.3   108  ILE108      0.0022
     38  CD1       87.9620  -25.2910   58.7710 C.3   108  ILE108      0.0001
     39  N         93.3060  -31.8040   55.9970 N.3   225  TYR225     -0.1241
     40  CA        93.4750  -30.4130   56.3660 C.3   225  TYR225      0.1605
     41  C         94.1810  -30.2820   57.7450 C.2   225  TYR225      0.2264
     42  O         93.8700  -31.0350   58.6730 O.2   225  TYR225     -0.2867
     43  CB        92.0910  -29.7250   56.3600 C.3   225  TYR225      0.0534
     44  CG        92.0980  -28.2900   56.8380 C.ar  225  TYR225     -0.0201
     45  CD1       92.0480  -27.9870   58.2030 C.ar  225  TYR225     -0.0009
     46  CD2       92.1790  -27.2320   55.9340 C.ar  225  TYR225     -0.0009
     47  CE1       92.0830  -26.6730   58.6520 C.ar  225  TYR225      0.0417
     48  CE2       92.1990  -25.9090   56.3740 C.ar  225  TYR225      0.0417
     49  CZ        92.1340  -25.6370   57.7350 C.ar  225  TYR225      0.1957
     50  OH        92.1280  -24.3540   58.2060 O.3   225  TYR225     -0.2866
     51  N         85.2740  -12.2490   66.3090 N.3   310  TRP310     -0.1241
     52  CA        84.8300  -13.5990   66.6800 C.3   310  TRP310      0.1605
     53  C         83.5840  -13.5490   67.5710 C.2   310  TRP310      0.2264
     54  O         82.7040  -14.3910   67.4060 O.2   310  TRP310     -0.2867
     55  CB        85.9700  -14.4470   67.2740 C.3   310  TRP310      0.0550
     56  CG        87.0920  -14.6840   66.3040 C.ar  310  TRP310      0.0003
     57  CD1       88.3530  -14.1520   66.3560 C.ar  310  TRP310      0.0946
     58  CD2       87.0210  -15.4190   65.0720 C.ar  310  TRP310      0.0152
     59  NE1       89.0890  -14.5620   65.2660 N.ar  310  TRP310     -0.2442
     60  CE2       88.2960  -15.3360   64.4590 C.ar  310  TRP310      0.0810
     61  CE3       86.0040  -16.1520   64.4290 C.ar  310  TRP310      0.0012
     62  CZ2       88.5760  -15.9440   63.2220 C.ar  310  TRP310      0.0191
     63  CZ3       86.2780  -16.7370   63.2010 C.ar  310  TRP310      0.0001
     64  CH2       87.5490  -16.6370   62.6140 C.ar  310  TRP310      0.0015
     65  N         80.4430  -12.9990   65.4670 N.3   313  ARG313     -0.1245
     66  CA        79.9610  -14.2250   64.8260 C.3   313  ARG313      0.1563
     67  C         78.8460  -14.8860   65.6920 C.2   313  ARG313      0.2260
     68  O         77.8470  -15.3330   65.1430 O.2   313  ARG313     -0.2867
     69  CB        81.0960  -15.2060   64.5300 C.3   313  ARG313      0.0307
     70  CG        80.5980  -16.4790   63.8160 C.3   313  ARG313      0.0489
     71  CD        81.6400  -17.5250   63.5520 C.3   313  ARG313      0.2205
     72  NE        82.3020  -17.9910   64.7640 N.pl3 313  ARG313     -0.0865
     73  CZ        83.3120  -18.8550   64.7810 C.cat 313  ARG313      0.5346
     74  NH1       83.7640  -19.3800   63.6470 N.pl3 313  ARG313      0.1354
     75  NH2       83.8760  -19.2030   65.9320 N.pl3 313  ARG313      0.1354
     76  N         80.6730  -21.1710   65.8470 N.3   326  ASN326     -0.1240
     77  CA        81.2870  -22.0930   66.7990 C.3   326  ASN326      0.1653
     78  C         81.3500  -21.2690   68.0860 C.2   326  ASN326      0.2266
     79  O         82.1380  -20.3310   68.1650 O.2   326  ASN326     -0.2867
     80  CB        82.6950  -22.5460   66.3670 C.3   326  ASN326      0.1155
     81  CG        82.7220  -23.4850   65.1820 C.2   326  ASN326      0.2627
     82  OD1       81.8730  -24.3720   65.0200 O.2   326  ASN326     -0.2716
     83  ND2       83.7340  -23.3420   64.3500 N.am  326  ASN326     -0.0877
     84  N         82.5320  -20.8410   71.2670 N.3   328  GLU328     -0.1245
     85  CA        83.7520  -21.3580   71.8730 C.3   328  GLU328      0.1567
     86  C         84.3900  -20.4540   72.9260 C.2   328  GLU328      0.2260
     87  O         85.4600  -20.7670   73.4320 O.2   328  GLU328     -0.2867
     88  CB        84.7390  -21.6010   70.7360 C.3   328  GLU328      0.0388
     89  CG        84.8990  -20.3410   69.9240 C.3   328  GLU328      0.1160
     90  CD        85.6860  -20.4460   68.6510 C.2   328  GLU328      0.3649
     91  OE1       86.1320  -19.3780   68.1770 O.co2 328  GLU328     -0.2457
     92  OE2       85.8120  -21.5640   68.1020 O.co2 328  GLU328     -0.2457
     93  N         96.7860  -14.2000   71.2710 N.3   477  ASN477     -0.1240
     94  CA        95.9480  -13.8760   70.1060 C.3   477  ASN477      0.1653
     95  C         94.9740  -12.7900   70.6180 C.2   477  ASN477      0.2266
     96  O         94.1400  -13.0730   71.4850 O.2   477  ASN477     -0.2867
     97  CB        95.1590  -15.1320   69.6330 C.3   477  ASN477      0.1155
     98  CG        94.5540  -15.0420   68.2410 C.2   477  ASN477      0.2627
     99  OD1       93.9380  -14.0360   67.8430 O.2   477  ASN477     -0.2716
    100  ND2       94.6580  -16.1330   67.4930 N.am  477  ASN477     -0.0877
    101  N         90.4130  -12.7370   70.7350 N.3   480  TYR480     -0.1241
    102  CA        89.4650  -13.4290   71.6200 C.3   480  TYR480      0.1605
    103  C         89.4360  -12.8940   73.0200 C.2   480  TYR480      0.2264
    104  O         90.4950  -12.6520   73.5900 O.2   480  TYR480     -0.2867
    105  CB        89.8010  -14.9250   71.6710 C.3   480  TYR480      0.0534
    106  CG        89.7640  -15.6020   70.3190 C.ar  480  TYR480     -0.0201
    107  CD1       90.8600  -15.5510   69.4610 C.ar  480  TYR480     -0.0009
    108  CD2       88.6420  -16.3180   69.9050 C.ar  480  TYR480     -0.0009
    109  CE1       90.8110  -16.1280   68.1950 C.ar  480  TYR480      0.0417
    110  CE2       88.6070  -16.9430   68.6650 C.ar  480  TYR480      0.0417
    111  CZ        89.6970  -16.8530   67.8170 C.ar  480  TYR480      0.1957
    112  OH        89.6460  -17.4590   66.5930 O.3   480  TYR480     -0.2866
    113  N         96.2620  -12.3610   64.8290 N.3   508  SER508     -0.1217
    114  CA        96.4750  -13.7380   64.3810 C.3   508  SER508      0.1889
    115  C         97.7290  -13.9750   63.5100 C.2   508  SER508      0.2288
    116  O         98.5140  -14.8700   63.8290 O.2   508  SER508     -0.2866
    117  CB        95.2280  -14.2500   63.6670 C.3   508  SER508      0.2089
    118  OG        95.3960  -15.6020   63.2800 O.3   508  SER508     -0.2183
    119  N        100.8720  -13.0860   65.4800 N.3   511  ARG511     -0.1231
    120  CA       100.9970  -14.0960   66.5370 C.3   511  ARG511      0.1694
    121  C        101.6360  -15.3940   65.9950 C.2   511  ARG511      0.2592
    122  O        102.5620  -15.9290   66.6110 O.2   511  ARG511     -0.2718
    123  CB        99.6280  -14.3550   67.1990 C.3   511  ARG511      0.0321
    124  CG        99.7160  -15.1400   68.5060 C.3   511  ARG511      0.0489
    125  CD        98.7890  -16.3410   68.4950 C.3   511  ARG511      0.2205
    126  NE        99.1790  -17.3460   67.5020 N.pl3 511  ARG511     -0.0865
    127  CZ        99.9360  -18.4110   67.7480 C.cat 511  ARG511      0.5346
    128  NH1      100.4430  -18.6100   68.9620 N.pl3 511  ARG511      0.1354
    129  NH2      100.2110  -19.2730   66.7810 N.pl3 511  ARG511      0.1354
    130  N        101.1750  -15.8560   64.8190 N.am  512  ASP512     -0.1974
    131  CA       101.6900  -17.0400   64.1320 C.3   512  ASP512      0.1709
    132  C        103.1590  -16.9000   63.7690 C.2   512  ASP512      0.2293
    133  O        103.9160  -17.8390   63.9920 O.2   512  ASP512     -0.2864
    134  CB       100.8660  -17.3490   62.8590 C.3   512  ASP512      0.1436
    135  CG        99.5380  -18.0460   63.0850 C.2   512  ASP512      0.3671
    136  OD1       99.3060  -18.5530   64.2130 O.co2 512  ASP512     -0.2456
    137  OD2       98.7420  -18.1020   62.1430 O.co2 512  ASP512     -0.2456
    138  N        105.7690  -19.5110   65.4140 N.3   516  TYR516     -0.1241
    139  CA       106.5000  -20.4050   64.5060 C.3   516  TYR516      0.1605
    140  C        107.9550  -19.9760   64.3150 C.2   516  TYR516      0.2264
    141  O        108.8200  -20.8340   64.1120 O.2   516  TYR516     -0.2867
    142  CB       105.7650  -20.5960   63.1580 C.3   516  TYR516      0.0534
    143  CG       104.2870  -20.9480   63.2600 C.ar  516  TYR516     -0.0201
    144  CD1      103.7810  -21.6250   64.3700 C.ar  516  TYR516     -0.0009
    145  CD2      103.3970  -20.6070   62.2420 C.ar  516  TYR516     -0.0009
    146  CE1      102.4210  -21.9190   64.4810 C.ar  516  TYR516      0.0417
    147  CE2      102.0400  -20.9150   62.3320 C.ar  516  TYR516      0.0417
    148  CZ       101.5580  -21.5760   63.4510 C.ar  516  TYR516      0.1957
    149  OH       100.2260  -21.8950   63.5280 O.3   516  TYR516     -0.2866
    150  N         94.9370  -21.9580   72.3510 N.3   526  ARG526     -0.1245
    151  CA        93.8280  -22.8910   72.2590 C.3   526  ARG526      0.1563
    152  C         94.3840  -24.1290   71.5480 C.2   526  ARG526      0.2260
    153  O         95.1050  -23.9870   70.5650 O.2   526  ARG526     -0.2867
    154  CB        92.6760  -22.2960   71.4470 C.3   526  ARG526      0.0307
    155  CG        91.3660  -23.0640   71.6070 C.3   526  ARG526      0.0489
    156  CD        90.2350  -22.3080   71.0030 C.3   526  ARG526      0.2205
    157  NE        90.4010  -22.1040   69.5690 N.pl3 526  ARG526     -0.0865
    158  CZ        89.7070  -21.2240   68.8570 C.cat 526  ARG526      0.5346
    159  NH1       88.8070  -20.4490   69.4430 N.pl3 526  ARG526      0.1354
    160  NH2       89.9050  -21.1170   67.5560 N.pl3 526  ARG526      0.1354
    161  N         87.3460  -28.3030   62.6180 N.3   632  TRP632     -0.1241
    162  CA        86.2570  -27.3930   62.9340 C.3   632  TRP632      0.1605
    163  C         84.9780  -27.8500   62.2160 C.2   632  TRP632      0.2264
    164  O         85.0640  -28.4860   61.1500 O.2   632  TRP632     -0.2867
    165  CB        86.6360  -25.9600   62.5250 C.3   632  TRP632      0.0550
    166  CG        87.7400  -25.4200   63.3800 C.ar  632  TRP632      0.0003
    167  CD1       89.0680  -25.3350   63.0530 C.ar  632  TRP632      0.0946
    168  CD2       87.6420  -25.0460   64.7660 C.ar  632  TRP632      0.0152
    169  NE1       89.7910  -24.8730   64.1290 N.ar  632  TRP632     -0.2442
    170  CE2       88.9400  -24.6690   65.1890 C.ar  632  TRP632      0.0810
    171  CE3       86.5750  -24.9610   65.6810 C.ar  632  TRP632      0.0012
    172  CZ2       89.2010  -24.2140   66.4900 C.ar  632  TRP632      0.0191
    173  CZ3       86.8370  -24.5100   66.9740 C.ar  632  TRP632      0.0001
    174  CH2       88.1370  -24.1480   67.3670 C.ar  632  TRP632      0.0015
    175  N         82.8600  -26.3450   60.3950 N.3   634  GLU634     -0.1245
    176  CA        82.6920  -25.8270   59.0120 C.3   634  GLU634      0.1567
    177  C         83.0090  -26.9020   57.9770 C.2   634  GLU634      0.2260
    178  O         82.3750  -26.9600   56.9190 O.2   634  GLU634     -0.2867
    179  CB        83.5680  -24.5880   58.7320 C.3   634  GLU634      0.0388
    180  CG        83.1400  -23.3390   59.4770 C.3   634  GLU634      0.1160
    181  CD        83.8400  -23.1130   60.8050 C.2   634  GLU634      0.3649
    182  OE1       84.0950  -24.0950   61.5380 O.co2 634  GLU634     -0.2457
    183  OE2       84.0210  -21.9310   61.1670 O.co2 634  GLU634     -0.2457
@<TRIPOS>BOND
     1    34    33    2
     2    26    25    2
     3    33    32    1
     4    24    25    1
     5    24    23    1
     6    24    27    1
     7    25    31   am
     8    27    28    1
     9    31    32    1
    10    32    35    1
    11    22    21    2
    12    21    20    1
    13    28    30   ar
    14    28    29   ar
    15    37    35    1
    16    46    48   ar
    17    46    44   ar
    18    39    40    1
    19    35    36    1
    20    43    40    1
    21    43    44    1
    22    40    41    1
    23    48    49   ar
    24    44    45   ar
    25   178   177    2
    26    20    19    1
    27    36    38    1
    28    49    50    1
    29    49    47   ar
    30    41    42    2
    31   177   176    1
    32     4     3    2
    33     1     2    1
    34    45    47   ar
    35    19    17   am
    36    18    17    2
    37   179   176    1
    38   179   180    1
    39     2     3    1
    40     2     5    1
    41     3    15   am
    42   176   175    1
    43    17    16    1
    44   180   181    1
    45    13    11   ar
    46    13    14   ar
    47    11     8   ar
    48    14    12   ar
    49    15    16    1
    50    12    10   ar
    51     8    10   ar
    52     8     6   ar
    53    10     9   ar
    54     5     6    1
    55     6     7   ar
    56     9     7   ar
    57   181   183   ar
    58   181   182   ar
    59   164   163    2
    60   137   135   ar
    61   163   162    1
    62   145   147   ar
    63   145   143   ar
    64   147   148   ar
    65   165   162    1
    66   165   166    1
    67    64    63   ar
    68    64    62   ar
    69   161   162    1
    70   134   135    1
    71   134   131    1
    72   167   166   ar
    73   167   169   ar
    74   135   136   ar
    75   142   143    1
    76   142   139    1
    77    63    61   ar
    78    62    60   ar
    79   143   144   ar
    80   118   117    1
    81   166   168   ar
    82   148   149    1
    83   148   146   ar
    84   115   116    2
    85   115   114    1
    86    71    70    1
    87    71    72    1
    88    74    73    1
    89   117   114    1
    90   132   133    2
    91   132   131    1
    92    70    69    1
    93   141   140    2
    94   169   170   ar
    95   131   130    1
    96   140   139    1
    97    83    81   am
    98   144   146   ar
    99   114   113    1
   100    61    58   ar
   101    60    58   ar
   102    60    59   ar
   103   139   138    1
   104    69    66    1
   105    72    73    2
   106   168   170   ar
   107   168   171   ar
   108    73    75    1
   109   130   121   am
   110    66    65    1
   111    66    67    1
   112    82    81    2
   113    58    56   ar
   114    68    67    2
   115    81    80    1
   116   170   172   ar
   117    59    57   ar
   118   119   120    1
   119   171   173   ar
   120    76    77    1
   121   121   120    1
   122   121   122    2
   123    56    57   ar
   124    56    55    1
   125    51    52    1
   126    80    77    1
   127   172   174   ar
   128   120   123    1
   129   112   111    1
   130    52    55    1
   131    52    53    1
   132   129   127    1
   133    77    78    1
   134   173   174   ar
   135   123   124    1
   136    54    53    2
   137   100    98   am
   138   126   127    2
   139   126   125    1
   140   160   158    1
   141   127   128    1
   142   111   109   ar
   143   111   110   ar
   144    99    98    2
   145    78    79    2
   146    92    90   ar
   147    91    90   ar
   148   109   107   ar
   149    98    97    1
   150   125   124    1
   151    90    89    1
   152   110   108   ar
   153   158   159    1
   154   158   157    2
   155   107   106   ar
   156   157   156    1
   157    97    94    1
   158   108   106   ar
   159    89    88    1
   160    94    95    1
   161    94    93    1
   162   106   105    1
   163   153   152    2
   164    95    96    2
   165   101   102    1
   166    88    85    1
   167   156   155    1
   168    84    85    1
   169   154   155    1
   170   154   151    1
   171   152   151    1
   172   102   105    1
   173   102   103    1
   174    85    86    1
   175   151   150    1
   176    86    87    2
   177   103   104    2
