@<TRIPOS>MOLECULE
tmp/6eq9B02.pdb
 186 174 0 0 0
SMALL
GASTEIGER

@<TRIPOS>ATOM
      1  N        -59.3650   24.6360  -16.8580 N.3    24  ILE24      -0.1231
      2  CA       -58.4480   25.6010  -16.2380 C.3    24  ILE24       0.1692
      3  C        -59.1350   26.9300  -15.8990 C.2    24  ILE24       0.2593
      4  O        -58.4710   27.8910  -15.4950 O.2    24  ILE24      -0.2718
      5  CB       -57.2400   25.8970  -17.1560 C.3    24  ILE24       0.0266
      6  CG1      -57.7020   26.3490  -18.5590 C.3    24  ILE24       0.0019
      7  CG2      -56.3370   24.6780  -17.2440 C.3    24  ILE24       0.0020
      8  CD1      -56.6120   26.9570  -19.3970 C.3    24  ILE24       0.0001
      9  N        -60.4540   26.9770  -16.0450 N.am   25  GLY25      -0.1942
     10  CA       -61.2050   28.2160  -15.9030 C.3    25  GLY25       0.2014
     11  C        -62.4370   28.1930  -16.7770 C.2    25  GLY25       0.2640
     12  O        -62.6330   27.2770  -17.6000 O.2    25  GLY25      -0.2714
     13  N        -63.2710   29.2050  -16.5980 N.am   26  SER26      -0.1935
     14  CA       -64.4680   29.3540  -17.4000 C.3    26  SER26       0.2055
     15  C        -64.9940   30.7710  -17.2950 C.2    26  SER26       0.2644
     16  O        -64.6100   31.5310  -16.4030 O.2    26  SER26      -0.2714
     17  CB       -65.5510   28.3720  -16.9340 C.3    26  SER26       0.2130
     18  OG       -65.8310   28.5650  -15.5630 O.3    26  SER26      -0.2179
     19  N        -65.8760   31.1030  -18.2260 N.am   27  GLY27      -0.1939
     20  CA       -66.5880   32.3670  -18.2180 C.3    27  GLY27       0.2014
     21  C        -67.7250   32.3330  -19.2260 C.2    27  GLY27       0.2639
     22  O        -68.3320   31.2820  -19.4380 O.2    27  GLY27      -0.2714
     23  N        -67.9710   33.4770  -19.8710 N.am   28  ALA28      -0.1963
     24  CA       -69.0940   33.6610  -20.8000 C.3    28  ALA28       0.1728
     25  C        -69.0800   32.6600  -21.9520 C.2    28  ALA28       0.2616
     26  O        -70.1250   32.1120  -22.3070 O.2    28  ALA28      -0.2715
     27  CB       -69.0950   35.0820  -21.3450 C.3    28  ALA28       0.0334
     28  N        -67.8960   32.3990  -22.5090 N.am   29  GLN29      -0.1963
     29  CA       -67.7530   31.4870  -23.6520 C.3    29  GLN29       0.1733
     30  C        -67.4920   30.0080  -23.2330 C.2    29  GLN29       0.2616
     31  O        -66.6820   29.3050  -23.8550 O.2    29  GLN29      -0.2715
     32  CB       -66.6390   32.0000  -24.5760 C.3    29  GLN29       0.0408
     33  CG       -66.7900   33.4360  -25.0970 C.3    29  GLN29       0.0908
     34  CD       -68.1050   33.6930  -25.8530 C.2    29  GLN29       0.2608
     35  OE1      -68.6060   32.7610  -26.4980 O.2    29  GLN29      -0.2717
     36  NE2      -68.6860   34.8640  -25.6420 N.am   29  GLN29      -0.0878
     37  N        -68.1900   29.5440  -22.1950 N.am   30  GLY30      -0.1955
     38  CA       -68.0370   28.1780  -21.6960 C.3    30  GLY30       0.1869
     39  C        -66.7490   27.9250  -20.9230 C.2    30  GLY30       0.2309
     40  O        -65.9650   28.8550  -20.6230 O.2    30  GLY30      -0.2863
     41  N        -62.9700   26.4960  -20.5470 N.3    32  VAL32      -0.1245
     42  CA       -61.7720   26.4050  -21.3540 C.3    32  VAL32       0.1561
     43  C        -60.9480   25.2670  -20.7550 C.2    32  VAL32       0.2260
     44  O        -60.8210   25.1600  -19.5240 O.2    32  VAL32      -0.2867
     45  CB       -60.9690   27.7050  -21.3040 C.3    32  VAL32       0.0252
     46  CG1      -59.7860   27.6320  -22.2370 C.3    32  VAL32       0.0019
     47  CG2      -61.8680   28.9030  -21.6340 C.3    32  VAL32       0.0019
     48  N        -54.5740   25.8480  -24.6900 N.3    45  ALA45      -0.1245
     49  CA       -55.8820   26.1180  -24.1070 C.3    45  ALA45       0.1562
     50  C        -56.9140   25.9290  -25.2100 C.2    45  ALA45       0.2260
     51  O        -56.6930   26.3490  -26.3250 O.2    45  ALA45      -0.2867
     52  CB       -55.9360   27.5410  -23.5510 C.3    45  ALA45       0.0290
     53  N        -61.0630   26.3800  -26.1360 N.3    47  LYS47      -0.1245
     54  CA       -62.3400   26.9750  -25.7460 C.3    47  LYS47       0.1561
     55  C        -63.3520   26.5160  -26.7350 C.2    47  LYS47       0.2260
     56  O        -63.0880   26.5300  -27.9290 O.2    47  LYS47      -0.2867
     57  CB       -62.2600   28.5110  -25.7640 C.3    47  LYS47       0.0271
     58  CG       -63.4870   29.1550  -25.1370 C.3    47  LYS47       0.0035
     59  CD       -63.2630   30.6100  -24.7400 C.3    47  LYS47       0.0206
     60  CE       -63.1650   31.5240  -25.9500 C.3    47  LYS47       0.1093
     61  NZ       -63.1770   32.9700  -25.5620 N.3    47  LYS47      -0.1314
     62  N        -53.3430   37.4010  -26.9610 N.3    78  ILE78      -0.1245
     63  CA       -53.3880   35.9400  -27.1180 C.3    78  ILE78       0.1561
     64  C        -53.5750   35.5900  -28.6150 C.2    78  ILE78       0.2260
     65  O        -54.3240   36.2580  -29.3250 O.2    78  ILE78      -0.2867
     66  CB       -54.4890   35.2870  -26.2560 C.3    78  ILE78       0.0252
     67  CG1      -54.2370   33.7660  -26.0800 C.3    78  ILE78       0.0019
     68  CG2      -55.8700   35.5340  -26.8350 C.3    78  ILE78       0.0019
     69  CD1      -53.1830   33.4550  -25.0200 C.3    78  ILE78       0.0001
     70  N        -55.5610   27.9970  -28.2550 N.3   100  MET100     -0.1230
     71  CA       -54.6610   29.0890  -27.8620 C.3   100  MET100      0.1702
     72  C        -53.4570   28.5140  -27.1780 C.2   100  MET100      0.2592
     73  O        -53.4960   27.3760  -26.6910 O.2   100  MET100     -0.2718
     74  CB       -55.3560   29.9930  -26.8500 C.3   100  MET100      0.0401
     75  CG       -56.4690   30.8560  -27.4040 C.3   100  MET100      0.0596
     76  SD       -57.4830   31.4190  -26.0260 S.3   100  MET100     -0.1393
     77  CE       -58.4640   29.9260  -25.7640 C.3   100  MET100      0.0692
     78  N        -52.4040   29.3280  -27.0850 N.am  101  GLU101     -0.1966
     79  CA       -51.3020   29.0460  -26.1850 C.3   101  GLU101      0.1733
     80  C        -51.8390   28.9350  -24.7640 C.2   101  GLU101      0.2616
     81  O        -52.7140   29.7140  -24.3610 O.2   101  GLU101     -0.2715
     82  CB       -50.2490   30.1620  -26.2520 C.3   101  GLU101      0.0429
     83  CG       -49.8670   30.5880  -27.6680 C.3   101  GLU101      0.1163
     84  CD       -48.9420   31.7960  -27.7020 C.2   101  GLU101      0.3649
     85  OE1      -48.6330   32.3490  -26.6250 O.co2 101  GLU101     -0.2457
     86  OE2      -48.5230   32.1910  -28.8110 O.co2 101  GLU101     -0.2457
     87  N        -51.3710   27.9290  -24.0250 N.am  102  LEU102     -0.1963
     88  CA       -51.6800   27.8290  -22.6140 C.3   102  LEU102      0.1728
     89  C        -50.7340   28.7400  -21.8320 C.2   102  LEU102      0.2616
     90  O        -49.5180   28.5660  -21.8740 O.2   102  LEU102     -0.2715
     91  CB       -51.5500   26.3980  -22.1210 C.3   102  LEU102      0.0311
     92  CG       -52.0460   26.0850  -20.6980 C.3   102  LEU102      0.0022
     93  CD1      -53.5290   26.3330  -20.5570 C.3   102  LEU102      0.0001
     94  CD2      -51.7290   24.6300  -20.3430 C.3   102  LEU102      0.0001
     95  N        -51.2990   29.7350  -21.1600 N.am  103  MET103     -0.1963
     96  CA       -50.5930   30.4960  -20.1850 C.3   103  MET103      0.1736
     97  C        -50.8010   29.8950  -18.8000 C.2   103  MET103      0.2616
     98  O        -51.6150   28.9680  -18.6200 O.2   103  MET103     -0.2715
     99  CB       -51.0290   31.9680  -20.2960 C.3   103  MET103      0.0427
    100  CG       -50.9110   32.4970  -21.7170 C.3   103  MET103      0.0599
    101  SD       -49.2400   32.8640  -22.2180 S.3   103  MET103     -0.1393
    102  CE       -49.1120   34.5330  -21.5830 C.3   103  MET103      0.0692
    103  N        -50.0380   30.3780  -17.8210 N.am  104  ASP104     -0.1957
    104  CA       -49.9440   29.7300  -16.5090 C.3   104  ASP104      0.1840
    105  C        -50.8380   30.2580  -15.4010 C.2   104  ASP104      0.2622
    106  O        -51.0880   29.5600  -14.4300 O.2   104  ASP104     -0.2715
    107  CB       -48.4660   29.7300  -16.0290 C.3   104  ASP104      0.1450
    108  CG       -47.5300   29.0180  -17.0240 C.2   104  ASP104      0.3671
    109  OD1      -47.9600   28.0010  -17.6090 O.co2 104  ASP104     -0.2456
    110  OD2      -46.3850   29.5150  -17.2520 O.co2 104  ASP104     -0.2456
    111  N        -51.3290   31.4880  -15.5330 N.am  105  ALA105     -0.1963
    112  CA       -52.1510   32.0600  -14.5100 C.3   105  ALA105      0.1728
    113  C        -52.8350   33.3250  -15.0670 C.2   105  ALA105      0.2616
    114  O        -52.3540   33.9100  -16.0380 O.2   105  ALA105     -0.2715
    115  CB       -51.3040   32.4230  -13.3040 C.3   105  ALA105      0.0334
    116  N        -53.9590   33.7150  -14.4690 N.am  106  ASN106     -0.1972
    117  CA       -54.5480   35.0200  -14.8170 C.3   106  ASN106      0.1688
    118  C        -54.0820   36.0330  -13.8440 C.2   106  ASN106      0.2292
    119  O        -53.4520   35.6840  -12.8240 O.2   106  ASN106     -0.2864
    120  CB       -56.0580   34.9480  -14.9710 C.3   106  ASN106      0.1181
    121  CG       -56.7920   34.5860  -13.7090 C.2   106  ASN106      0.2629
    122  OD1      -56.4010   34.9320  -12.5920 O.2   106  ASN106     -0.2716
    123  ND2      -57.9260   33.9670  -13.8960 N.am  106  ASN106     -0.0877
    124  N        -54.7020   35.7570   -9.9940 N.3   109  GLN109     -0.1245
    125  CA       -53.6700   35.0600   -9.1990 C.3   109  GLN109      0.1566
    126  C        -52.4690   35.9310   -8.9080 C.2   109  GLN109      0.2260
    127  O        -52.0280   36.0300   -7.7700 O.2   109  GLN109     -0.2867
    128  CB       -53.2100   33.7850   -9.8840 C.3   109  GLN109      0.0367
    129  CG       -54.2000   32.6370   -9.7230 C.3   109  GLN109      0.0905
    130  CD       -55.0580   32.4360  -10.9200 C.2   109  GLN109      0.2608
    131  OE1      -54.6100   31.8980  -11.9370 O.2   109  GLN109     -0.2717
    132  NE2      -56.3250   32.8550  -10.8160 N.am  109  GLN109     -0.0878
    133  N        -63.1950   46.7760  -21.4350 N.3   143  ASP143     -0.1239
    134  CA       -63.5050   45.7330  -20.4990 C.3   143  ASP143      0.1674
    135  C        -62.2530   45.0110  -20.0210 C.2   143  ASP143      0.2266
    136  O        -62.2760   43.7880  -19.8100 O.2   143  ASP143     -0.2867
    137  CB       -64.4700   44.7520  -21.1820 C.3   143  ASP143      0.1410
    138  CG       -65.2220   43.8470  -20.1790 C.2   143  ASP143      0.3668
    139  OD1      -65.5080   44.2890  -19.0520 O.co2 143  ASP143     -0.2456
    140  OD2      -65.5100   42.7020  -20.5700 O.co2 143  ASP143     -0.2456
    141  N        -59.8090   43.5280  -17.4800 N.3   145  LYS145     -0.1245
    142  CA       -59.9650   43.0970  -16.1310 C.3   145  LYS145      0.1561
    143  C        -58.9710   41.9540  -15.8520 C.2   145  LYS145      0.2260
    144  O        -58.5120   41.2910  -16.7950 O.2   145  LYS145     -0.2867
    145  CB       -61.4200   42.6480  -15.8450 C.3   145  LYS145      0.0271
    146  CG       -61.8560   41.4120  -16.5770 C.3   145  LYS145      0.0035
    147  CD       -63.3770   41.3380  -16.7460 C.3   145  LYS145      0.0206
    148  CE       -63.7640   40.2350  -17.7180 C.3   145  LYS145      0.1093
    149  NZ       -65.0020   40.5940  -18.4640 N.3   145  LYS145     -0.1314
    150  N        -59.1530   38.9810  -14.8490 N.3   147  SER147     -0.1202
    151  CA       -59.5260   37.6320  -15.3040 C.3   147  SER147      0.2020
    152  C        -59.3120   37.4370  -16.8270 C.2   147  SER147      0.2618
    153  O        -59.2560   36.2810  -17.3080 O.2   147  SER147     -0.2717
    154  CB       -60.9740   37.3390  -14.9240 C.3   147  SER147      0.2103
    155  OG       -61.8610   38.0280  -15.7970 O.3   147  SER147     -0.2182
    156  N        -59.2160   38.5430  -17.5880 N.am  148  ASN148     -0.1974
    157  CA       -58.9720   38.4510  -19.0780 C.3   148  ASN148      0.1688
    158  C        -57.5580   38.8690  -19.4890 C.2   148  ASN148      0.2292
    159  O        -57.2960   39.1970  -20.6460 O.2   148  ASN148     -0.2864
    160  CB       -60.1160   39.0960  -19.9450 C.3   148  ASN148      0.1181
    161  CG       -60.2140   40.6520  -19.8860 C.2   148  ASN148      0.2629
    162  OD1      -59.2550   41.3830  -19.5830 O.2   148  ASN148     -0.2716
    163  ND2      -61.4320   41.1670  -20.2450 N.am  148  ASN148     -0.0877
    164  N        -53.5790   37.2900  -18.8900 N.3   150  VAL150     -0.1245
    165  CA       -52.9400   36.0440  -18.4720 C.3   150  VAL150      0.1561
    166  C        -51.4470   36.1730  -18.5640 C.2   150  VAL150      0.2260
    167  O        -50.9290   36.9920  -19.3210 O.2   150  VAL150     -0.2867
    168  CB       -53.4560   34.8130  -19.2560 C.3   150  VAL150      0.0252
    169  CG1      -54.8660   34.5070  -18.8460 C.3   150  VAL150      0.0019
    170  CG2      -53.3850   35.0160  -20.7660 C.3   150  VAL150      0.0019
    171  N        -56.5160   38.5190  -23.2650 N.3   160  LEU160     -0.1231
    172  CA       -57.2820   37.3530  -23.8000 C.3   160  LEU160      0.1693
    173  C        -58.3650   37.6610  -24.8610 C.2   160  LEU160      0.2592
    174  O        -58.7850   36.7590  -25.5880 O.2   160  LEU160     -0.2718
    175  CB       -57.9330   36.5490  -22.6820 C.3   160  LEU160      0.0284
    176  CG       -57.0870   35.5900  -21.8750 C.3   160  LEU160      0.0019
    177  CD1      -57.9920   34.8510  -20.9130 C.3   160  LEU160      0.0001
    178  CD2      -56.3280   34.5870  -22.7630 C.3   160  LEU160      0.0001
    179  N        -58.8180   38.9070  -24.9540 N.am  161  ASP161     -0.1974
    180  CA       -59.9080   39.2300  -25.8650 C.3   161  ASP161      0.1709
    181  C        -59.9160   40.6990  -26.2360 C.2   161  ASP161      0.2293
    182  O        -59.1210   41.4490  -25.7290 O.2   161  ASP161     -0.2864
    183  CB       -61.2480   38.8520  -25.2410 C.3   161  ASP161      0.1436
    184  CG       -61.4860   39.5020  -23.8990 C.2   161  ASP161      0.3671
    185  OD1      -61.3150   40.7640  -23.7140 O.co2 161  ASP161     -0.2456
    186  OD2      -61.8270   38.7350  -23.0010 O.co2 161  ASP161     -0.2456
@<TRIPOS>BOND
     1    65    64    2
     2    86    84   ar
     3    64    63    1
     4    70    71    1
     5    56    55    2
     6    71    72    1
     7    71    74    1
     8    84    83    1
     9    84    85   ar
    10    83    82    1
    11    75    74    1
    12    75    76    1
    13    72    78   am
    14    72    73    2
    15    63    62    1
    16    63    66    1
    17    78    79    1
    18    68    66    1
    19    55    54    1
    20    35    34    2
    21    51    50    2
    22    66    67    1
    23    82    79    1
    24   181   180    1
    25   181   182    2
    26    79    80    1
    27    53    54    1
    28    67    69    1
    29    76    77    1
    30    60    61    1
    31    60    59    1
    32   180   183    1
    33   180   179    1
    34    34    36   am
    35    34    33    1
    36    57    54    1
    37    57    58    1
    38   174   173    2
    39   183   184    1
    40    50    49    1
    41    58    59    1
    42    33    32    1
    43   179   173   am
    44   173   172    1
    45    80    81    2
    46    80    87   am
    47    48    49    1
    48    32    29    1
    49    49    52    1
    50    87    88    1
    51   184   185   ar
    52   184   186   ar
    53    31    30    2
    54   172   171    1
    55   172   175    1
    56    29    30    1
    57    29    28    1
    58    30    37   am
    59   178   176    1
    60   175   176    1
    61    88    91    1
    62    88    89    1
    63    28    25   am
    64    26    25    2
    65    46    45    1
    66   101   100    1
    67   101   102    1
    68    37    38    1
    69    91    92    1
    70    25    24    1
    71   176   177    1
    72    90    89    2
    73    89    95   am
    74   100    99    1
    75    38    39    1
    76    47    45    1
    77   133   134    1
    78    42    45    1
    79    42    43    1
    80    42    41    1
    81    27    24    1
    82   137   134    1
    83   137   138    1
    84    95    96    1
    85    39    40    2
    86    24    23    1
    87   170   168    1
    88    43    44    2
    89    92    93    1
    90    92    94    1
    91   159   158    2
    92   140   138   ar
    93   134   135    1
    94    99    96    1
    95   163   161   am
    96    96    97    1
    97   138   139   ar
    98   135   136    2
    99   160   161    1
   100   160   157    1
   101   161   162    2
   102    23    21   am
   103   158   157    1
   104    22    21    2
   105     8     6    1
   106   167   166    2
   107   168   169    1
   108   168   165    1
   109    21    20    1
   110   157   156    1
   111   164   165    1
   112    97    98    2
   113    97   103   am
   114   166   165    1
   115     6     5    1
   116   149   148    1
   117    19    20    1
   118    19    15   am
   119   103   104    1
   120   148   147    1
   121   109   108   ar
   122    12    11    2
   123   156   152   am
   124   141   142    1
   125    14    15    1
   126    14    17    1
   127    14    13    1
   128   153   152    2
   129    15    16    2
   130   110   108   ar
   131     7     5    1
   132     5     2    1
   133   108   107    1
   134    17    18    1
   135     1     2    1
   136   152   151    1
   137   144   143    2
   138    11    13   am
   139    11    10    1
   140   147   146    1
   141   146   145    1
   142   104   107    1
   143   104   105    1
   144     2     3    1
   145   142   143    1
   146   142   145    1
   147     9    10    1
   148     9     3   am
   149   114   113    2
   150     3     4    2
   151   155   154    1
   152   111   105   am
   153   111   112    1
   154   105   106    2
   155   151   154    1
   156   151   150    1
   157   113   112    1
   158   113   116   am
   159   120   117    1
   160   120   121    1
   161   117   116    1
   162   117   118    1
   163   112   115    1
   164   123   121   am
   165   118   119    2
   166   121   122    2
   167   131   130    2
   168   130   132   am
   169   130   129    1
   170   124   125    1
   171   128   129    1
   172   128   125    1
   173   125   126    1
   174   126   127    2
