@<TRIPOS>MOLECULE
tmp/6eq9B03.pdb
 83 75 0 0 0
SMALL
GASTEIGER

@<TRIPOS>ATOM
      1  N        -50.0380   30.3780  -17.8210 N.3   104  ASP104     -0.1225
      2  CA       -49.9440   29.7300  -16.5090 C.3   104  ASP104      0.1805
      3  C        -50.8380   30.2580  -15.4010 C.2   104  ASP104      0.2597
      4  O        -51.0880   29.5600  -14.4300 O.2   104  ASP104     -0.2718
      5  CB       -48.4660   29.7300  -16.0290 C.3   104  ASP104      0.1424
      6  CG       -47.5300   29.0180  -17.0240 C.2   104  ASP104      0.3668
      7  OD1      -47.9600   28.0010  -17.6090 O.co2 104  ASP104     -0.2456
      8  OD2      -46.3850   29.5150  -17.2520 O.co2 104  ASP104     -0.2456
      9  N        -51.3290   31.4880  -15.5330 N.am  105  ALA105     -0.1979
     10  CA       -52.1510   32.0600  -14.5100 C.3   105  ALA105      0.1597
     11  C        -52.8350   33.3250  -15.0670 C.2   105  ALA105      0.2287
     12  O        -52.3540   33.9100  -16.0380 O.2   105  ALA105     -0.2864
     13  CB       -51.3040   32.4230  -13.3040 C.3   105  ALA105      0.0319
     14  N        -51.9550   36.5800   -9.9260 N.3   110  VAL110     -0.1245
     15  CA       -50.7750   37.4660   -9.7600 C.3   110  VAL110      0.1561
     16  C        -51.0070   38.5570   -8.7300 C.2   110  VAL110      0.2260
     17  O        -50.1100   38.9240   -7.9780 O.2   110  VAL110     -0.2867
     18  CB       -50.3860   38.1520  -11.0940 C.3   110  VAL110      0.0252
     19  CG1      -49.1350   39.0050  -10.9320 C.3   110  VAL110      0.0019
     20  CG2      -50.2100   37.1240  -12.1820 C.3   110  VAL110      0.0019
     21  N        -49.9180   38.0610   -5.2510 N.3   113  MET113     -0.1245
     22  CA       -48.4540   37.9750   -4.9970 C.3   113  MET113      0.1570
     23  C        -47.8480   39.3290   -4.6820 C.2   113  MET113      0.2261
     24  O        -48.2930   40.3560   -5.2220 O.2   113  MET113     -0.2867
     25  CB       -47.7340   37.4110   -6.2140 C.3   113  MET113      0.0387
     26  CG       -48.2910   36.1100   -6.7710 C.3   113  MET113      0.0595
     27  SD       -47.2950   35.6760   -8.2260 S.3   113  MET113     -0.1393
     28  CE       -48.2090   34.3430   -8.9860 C.3   113  MET113      0.0692
     29  N        -44.9760   41.6640   -5.4750 N.3   115  LEU115     -0.1245
     30  CA       -44.1020   41.6860   -6.6390 C.3   115  LEU115      0.1561
     31  C        -43.0570   42.7220   -6.4440 C.2   115  LEU115      0.2260
     32  O        -43.3050   43.7560   -5.8100 O.2   115  LEU115     -0.2867
     33  CB       -44.8760   42.0290   -7.9300 C.3   115  LEU115      0.0270
     34  CG       -45.9570   41.0900   -8.3810 C.3   115  LEU115      0.0019
     35  CD1      -46.5510   41.5830   -9.7040 C.3   115  LEU115      0.0001
     36  CD2      -45.4620   39.6490   -8.4940 C.3   115  LEU115      0.0001
     37  N        -40.7190   43.1570  -12.0510 N.3   119  ARG119     -0.1245
     38  CA       -41.8060   42.3940  -12.6160 C.3   119  ARG119      0.1563
     39  C        -43.0970   43.2470  -12.7510 C.2   119  ARG119      0.2260
     40  O        -43.8120   43.1200  -13.7170 O.2   119  ARG119     -0.2867
     41  CB       -42.1160   41.1480  -11.7760 C.3   119  ARG119      0.0307
     42  CG       -41.1110   40.0120  -11.9200 C.3   119  ARG119      0.0489
     43  CD       -41.5870   38.7730  -11.1600 C.3   119  ARG119      0.2205
     44  NE       -40.5920   37.6940  -11.1640 N.pl3 119  ARG119     -0.0865
     45  CZ       -39.5040   37.6310  -10.3790 C.cat 119  ARG119      0.5346
     46  NH1      -38.6830   36.5820  -10.4940 N.pl3 119  ARG119      0.1354
     47  NH2      -39.2180   38.5840   -9.4860 N.pl3 119  ARG119      0.1354
     48  N        -44.9120   43.8860  -16.2390 N.3   123  LEU123     -0.1245
     49  CA       -46.2890   43.4680  -16.5180 C.3   123  LEU123      0.1561
     50  C        -47.1200   44.6670  -16.9750 C.2   123  LEU123      0.2260
     51  O        -47.8590   44.5790  -17.9240 O.2   123  LEU123     -0.2867
     52  CB       -46.9300   42.8250  -15.3320 C.3   123  LEU123      0.0270
     53  CG       -46.3970   41.4280  -14.9280 C.3   123  LEU123      0.0019
     54  CD1      -47.0580   41.0320  -13.6140 C.3   123  LEU123      0.0001
     55  CD2      -46.6710   40.4140  -16.0210 C.3   123  LEU123      0.0001
     56  N        -50.7450   35.3540  -17.7810 N.3   151  VAL151     -0.1231
     57  CA       -49.3140   35.4460  -17.7030 C.3   151  VAL151      0.1692
     58  C        -48.6700   34.0470  -17.7470 C.2   151  VAL151      0.2592
     59  O        -49.2890   33.0440  -17.3550 O.2   151  VAL151     -0.2718
     60  CB       -48.8480   36.2090  -16.4450 C.3   151  VAL151      0.0266
     61  CG1      -49.2750   37.6700  -16.5010 C.3   151  VAL151      0.0020
     62  CG2      -49.3840   35.5630  -15.1830 C.3   151  VAL151      0.0020
     63  N        -47.4610   34.0240  -18.2870 N.am  152  LYS152     -0.1966
     64  CA       -46.6430   32.8210  -18.4170 C.3   152  LYS152      0.1728
     65  C        -45.5170   32.9350  -17.4100 C.2   152  LYS152      0.2616
     66  O        -45.1300   34.0630  -16.9740 O.2   152  LYS152     -0.2715
     67  CB       -46.0840   32.7460  -19.8500 C.3   152  LYS152      0.0311
     68  CG       -45.5380   31.4020  -20.3070 C.3   152  LYS152      0.0038
     69  CD       -45.1990   31.4870  -21.7890 C.3   152  LYS152      0.0206
     70  CE       -44.3920   30.3270  -22.3540 C.3   152  LYS152      0.1093
     71  NZ       -43.9740   30.5630  -23.7540 N.3   152  LYS152     -0.1314
     72  N        -44.9600   31.7750  -17.0540 N.am  153  SER153     -0.1950
     73  CA       -43.8680   31.6570  -16.1030 C.3   153  SER153      0.1924
     74  C        -42.6960   32.6000  -16.3670 C.2   153  SER153      0.2314
     75  O        -42.0140   32.9970  -15.4320 O.2   153  SER153     -0.2863
     76  CB       -43.2860   30.2060  -16.1430 C.3   153  SER153      0.2116
     77  OG       -42.4490   30.0540  -17.3170 O.3   153  SER153     -0.2180
     78  N        -42.9040   35.6120  -17.3440 N.3   155  CYS155     -0.1235
     79  CA       -43.4330   36.9940  -17.1450 C.3   155  CYS155      0.1677
     80  C        -44.0360   37.6410  -18.3930 C.2   155  CYS155      0.2270
     81  O        -44.4470   38.8300  -18.3470 O.2   155  CYS155     -0.2867
     82  CB       -42.4150   37.9320  -16.4470 C.3   155  CYS155      0.0956
     83  SG       -42.1630   37.5150  -14.6970 S.3   155  CYS155     -0.0801
@<TRIPOS>BOND
     1    71    70    1
     2    70    69    1
     3    69    68    1
     4    68    67    1
     5    67    64    1
     6    64    63    1
     7    64    65    1
     8    80    81    2
     9    80    79    1
    10    63    58   am
    11    51    50    2
    12     1     2    1
    13    56    57    1
    14    58    57    1
    15    58    59    2
    16    57    60    1
    17     7     6   ar
    18    65    72   am
    19    65    66    2
    20    78    79    1
    21    77    76    1
    22     8     6   ar
    23    79    82    1
    24    72    73    1
    25     6     5    1
    26    50    49    1
    27    49    48    1
    28    49    52    1
    29     2     5    1
    30     2     3    1
    31    61    60    1
    32    82    83    1
    33    60    62    1
    34    74    73    1
    35    74    75    2
    36    76    73    1
    37    12    11    2
    38    55    53    1
    39     9     3   am
    40     9    10    1
    41     3     4    2
    42    52    53    1
    43    11    10    1
    44    53    54    1
    45    10    13    1
    46    40    39    2
    47    39    38    1
    48    38    37    1
    49    38    41    1
    50    20    18    1
    51    42    41    1
    52    42    43    1
    53    44    43    1
    54    44    45    2
    55    18    19    1
    56    18    15    1
    57    46    45    1
    58    45    47    1
    59    14    15    1
    60    15    16    1
    61    35    34    1
    62    28    27    1
    63    16    17    2
    64    36    34    1
    65    34    33    1
    66    27    26    1
    67    33    30    1
    68    26    25    1
    69    30    31    1
    70    30    29    1
    71    31    32    2
    72    25    22    1
    73    21    22    1
    74    24    23    2
    75    22    23    1
