@<TRIPOS>MOLECULE
tmp/6eqlB01.pdb
 156 153 0 0 0
SMALL
GASTEIGER

@<TRIPOS>ATOM
      1  N        -25.1750  -17.3850   21.0290 N.3    13  TYR13      -0.1241
      2  CA       -24.7310  -17.3480   19.6420 C.3    13  TYR13       0.1605
      3  C        -24.9910  -18.6600   18.9170 C.2    13  TYR13       0.2264
      4  O        -25.0280  -18.6730   17.6820 O.2    13  TYR13      -0.2867
      5  CB       -23.2450  -16.9950   19.5750 C.3    13  TYR13       0.0534
      6  CG       -22.9750  -15.5080   19.6240 C.ar   13  TYR13      -0.0201
      7  CD1      -22.9400  -14.8260   20.8360 C.ar   13  TYR13      -0.0009
      8  CD2      -22.7620  -14.7840   18.4580 C.ar   13  TYR13      -0.0009
      9  CE1      -22.6970  -13.4640   20.8820 C.ar   13  TYR13       0.0417
     10  CE2      -22.5180  -13.4240   18.4940 C.ar   13  TYR13       0.0417
     11  CZ       -22.4860  -12.7700   19.7080 C.ar   13  TYR13       0.1957
     12  OH       -22.2420  -11.4180   19.7440 O.3    13  TYR13      -0.2866
     13  N        -11.8000  -18.0070   17.2260 N.3    84  LYS84      -0.1245
     14  CA       -12.2270  -17.8890   15.8350 C.3    84  LYS84       0.1561
     15  C        -11.1040  -18.2740   14.8790 C.2    84  LYS84       0.2260
     16  O        -11.3460  -18.9360   13.8610 O.2    84  LYS84      -0.2867
     17  CB       -12.7160  -16.4660   15.5580 C.3    84  LYS84       0.0271
     18  CG       -13.0850  -16.1960   14.1090 C.3    84  LYS84       0.0035
     19  CD       -13.9530  -14.9510   14.0060 C.3    84  LYS84       0.0206
     20  CE       -13.9310  -14.3670   12.6030 C.3    84  LYS84       0.1093
     21  NZ       -14.9380  -13.2770   12.4480 N.3    84  LYS84      -0.1314
     22  N        -20.0130  -15.5340   10.2530 N.3   100  ASP100     -0.1239
     23  CA       -20.3750  -15.1740   11.6150 C.3   100  ASP100      0.1674
     24  C        -21.6710  -15.8690   12.0170 C.2   100  ASP100      0.2266
     25  O        -22.5170  -16.1900   11.1780 O.2   100  ASP100     -0.2867
     26  CB       -20.5360  -13.6580   11.7330 C.3   100  ASP100      0.1410
     27  CG       -19.3280  -12.9850   12.3560 C.2   100  ASP100      0.3668
     28  OD1      -18.2630  -13.6320   12.4500 O.co2 100  ASP100     -0.2456
     29  OD2      -19.4510  -11.8050   12.7520 O.co2 100  ASP100     -0.2456
     30  N        -15.9550   -3.4240    4.5020 N.3   123  ASP123     -0.1225
     31  CA       -16.5930   -3.1250    5.7830 C.3   123  ASP123      0.1790
     32  C        -17.2080   -1.7310    5.7530 C.2   123  ASP123      0.2440
     33  O        -16.5090   -0.7620    5.4340 O.2   123  ASP123     -0.2733
     34  CB       -15.5780   -3.2120    6.9160 C.3   123  ASP123      0.1423
     35  CG       -16.2110   -3.0620    8.2860 C.2   123  ASP123      0.3668
     36  OD1      -17.3560   -3.5230    8.4680 O.co2 123  ASP123     -0.2456
     37  OD2      -15.5570   -2.4810    9.1810 O.co2 123  ASP123     -0.2456
     38  N        -18.4970   -1.5880    6.0650 N.am  124  PRO124     -0.2718
     39  CA       -19.0820   -0.2460    6.1630 C.3   124  PRO124      0.1535
     40  C        -18.3610    0.5930    7.2070 C.2   124  PRO124      0.2599
     41  O        -17.8700    0.0850    8.2180 O.2   124  PRO124     -0.2715
     42  CB       -20.5350   -0.5180    6.5680 C.3   124  PRO124      0.0310
     43  CG       -20.8030   -1.9080    6.0900 C.3   124  PRO124      0.0237
     44  CD       -19.5040   -2.6470    6.2410 C.3   124  PRO124      0.0939
     45  N        -18.2910    1.8950    6.9460 N.am  125  GLY125     -0.1941
     46  CA       -17.5440    2.7910    7.8030 C.3   125  GLY125      0.2014
     47  C        -16.1330    3.0240    7.3040 C.2   125  GLY125      0.2638
     48  O        -15.7370    4.1650    7.0490 O.2   125  GLY125     -0.2714
     49  N        -15.3630    1.9470    7.1650 N.am  126  TRP126     -0.1973
     50  CA       -14.0110    2.0000    6.6100 C.3   126  TRP126      0.1640
     51  C        -13.9160    0.9420    5.5200 C.2   126  TRP126      0.2290
     52  O        -13.4660   -0.1850    5.7690 O.2   126  TRP126     -0.2864
     53  CB       -12.9530    1.7860    7.6880 C.3   126  TRP126      0.0576
     54  CG       -11.5990    2.2700    7.2760 C.ar  126  TRP126      0.0006
     55  CD1      -10.6040    1.5310    6.7090 C.ar  126  TRP126      0.0946
     56  CD2      -11.0950    3.6050    7.3870 C.ar  126  TRP126      0.0152
     57  NE1       -9.5080    2.3220    6.4630 N.ar  126  TRP126     -0.2442
     58  CE2       -9.7840    3.6010    6.8700 C.ar  126  TRP126      0.0810
     59  CE3      -11.6230    4.8050    7.8750 C.ar  126  TRP126      0.0012
     60  CZ2       -8.9940    4.7480    6.8280 C.ar  126  TRP126      0.0191
     61  CZ3      -10.8370    5.9430    7.8310 C.ar  126  TRP126      0.0001
     62  CH2       -9.5370    5.9060    7.3120 C.ar  126  TRP126      0.0015
     63  N        -14.8200   -6.6130    6.0700 N.3   131  ASN131     -0.1225
     64  CA       -15.5450   -7.1450    7.2120 C.3   131  ASN131      0.1785
     65  C        -15.1730   -8.6090    7.4170 C.2   131  ASN131      0.2598
     66  O        -15.2140   -9.4080    6.4760 O.2   131  ASN131     -0.2718
     67  CB       -17.0500   -7.0000    6.9930 C.3   131  ASN131      0.1169
     68  CG       -17.8590   -7.3550    8.2240 C.2   131  ASN131      0.2627
     69  OD1      -18.1160   -8.5280    8.4970 O.2   131  ASN131     -0.2716
     70  ND2      -18.2700   -6.3400    8.9710 N.am  131  ASN131     -0.0877
     71  N        -14.8010   -8.9610    8.6480 N.am  132  SER132     -0.1938
     72  CA       -14.3490  -10.3080    8.9660 C.3   132  SER132      0.2055
     73  C        -15.4970  -11.2530    9.3040 C.2   132  SER132      0.2643
     74  O        -15.2550  -12.3350    9.8520 O.2   132  SER132     -0.2714
     75  CB       -13.3390  -10.2660   10.1160 C.3   132  SER132      0.2130
     76  OG       -13.9210   -9.7460   11.3010 O.3   132  SER132     -0.2179
     77  N        -16.7370  -10.8760    8.9800 N.am  133  GLY133     -0.1954
     78  CA       -17.8650  -11.7490    9.2540 C.3   133  GLY133      0.1869
     79  C        -18.0640  -12.8420    8.2260 C.2   133  GLY133      0.2309
     80  O        -18.5670  -13.9190    8.5580 O.2   133  GLY133     -0.2863
     81  N         -7.8360   -4.0860   17.7400 N.3   157  PHE157     -0.1227
     82  CA        -8.6500   -2.9460   18.1430 C.3   157  PHE157      0.1736
     83  C         -9.8810   -3.4290   18.9010 C.2   157  PHE157      0.2595
     84  O        -10.7080   -4.1650   18.3510 O.2   157  PHE157     -0.2718
     85  CB        -9.0580   -2.1310   16.9180 C.3   157  PHE157      0.0547
     86  CG        -7.9800   -1.3040   16.2890 C.ar  157  PHE157     -0.0202
     87  CD1       -6.9700   -0.6950   17.0420 C.ar  157  PHE157     -0.0042
     88  CD2       -8.0010   -1.1130   14.8950 C.ar  157  PHE157     -0.0042
     89  CE1       -6.0270    0.1100   16.4320 C.ar  157  PHE157     -0.0003
     90  CE2       -7.0420   -0.3200   14.2780 C.ar  157  PHE157     -0.0003
     91  CZ        -6.0560    0.3010   15.0610 C.ar  157  PHE157     -0.0000
     92  N         -9.9950   -3.0150   20.1650 N.am  158  ASP158     -0.1960
     93  CA       -11.1380   -3.3450   21.0190 C.3   158  ASP158      0.1840
     94  C        -11.3330   -4.8530   21.1640 C.2   158  ASP158      0.2623
     95  O        -12.4490   -5.3260   21.3910 O.2   158  ASP158     -0.2715
     96  CB       -12.4240   -2.6910   20.5050 C.3   158  ASP158      0.1450
     97  CG       -12.6440   -1.2850   20.9410 C.2   158  ASP158      0.3671
     98  OD1      -11.8930   -0.7530   21.7320 O.co2 158  ASP158     -0.2456
     99  OD2      -13.7090   -0.7210   20.4600 O.co2 158  ASP158     -0.2456
    100  N        -10.2510   -5.6200   21.0330 N.am  159  GLY159     -0.1940
    101  CA       -10.3210   -7.0570   21.2050 C.3   159  GLY159      0.2014
    102  C        -10.9970   -7.8200   20.0900 C.2   159  GLY159      0.2639
    103  O        -11.2480   -9.0190   20.2470 O.2   159  GLY159     -0.2714
    104  N        -11.3000   -7.1720   18.9660 N.am  160  GLY160     -0.1939
    105  CA       -11.9280   -7.8440   17.8500 C.3   160  GLY160      0.2014
    106  C        -10.9490   -8.6900   17.0570 C.2   160  GLY160      0.2639
    107  O         -9.7740   -8.8290   17.3920 O.2   160  GLY160     -0.2714
    108  N        -11.4590   -9.2730   15.9730 N.am  161  ASP161     -0.1957
    109  CA       -10.6440  -10.0870   15.0840 C.3   161  ASP161      0.1840
    110  C        -10.4400   -9.4620   13.7110 C.2   161  ASP161      0.2621
    111  O         -9.6490   -9.9910   12.9220 O.2   161  ASP161     -0.2715
    112  CB       -11.2630  -11.4840   14.9220 C.3   161  ASP161      0.1450
    113  CG       -12.5670  -11.4600   14.1480 C.2   161  ASP161      0.3671
    114  OD1      -12.5200  -11.5230   12.9030 O.co2 161  ASP161     -0.2456
    115  OD2      -13.6390  -11.3770   14.7860 O.co2 161  ASP161     -0.2456
    116  N        -11.1210   -8.3550   13.4080 N.am  162  GLN162     -0.1977
    117  CA       -10.9760   -7.7270   12.0990 C.3   162  GLN162      0.1601
    118  C         -9.6270   -7.0310   11.9600 C.2   162  GLN162      0.2287
    119  O         -9.0230   -7.0460   10.8800 O.2   162  GLN162     -0.2864
    120  CB       -12.1190   -6.7380   11.8650 C.3   162  GLN162      0.0394
    121  CG       -11.7610   -5.5730   10.9610 C.3   162  GLN162      0.0908
    122  CD       -12.9790   -4.8840   10.3880 C.2   162  GLN162      0.2608
    123  OE1      -13.8770   -5.5320    9.8520 O.2   162  GLN162     -0.2717
    124  NE2      -13.0150   -3.5620   10.4950 N.am  162  GLN162     -0.0878
    125  N        -24.7020   -6.8740   12.3550 N.3   197  LEU197     -0.1231
    126  CA       -23.6750   -6.2250   13.1550 C.3   197  LEU197      0.1693
    127  C        -24.3050   -5.3130   14.1970 C.2   197  LEU197      0.2593
    128  O        -25.4000   -4.7750   14.0080 O.2   197  LEU197     -0.2718
    129  CB       -22.7200   -5.4030   12.2860 C.3   197  LEU197      0.0284
    130  CG       -21.6640   -6.0950   11.4310 C.3   197  LEU197      0.0019
    131  CD1      -20.8120   -5.0530   10.7110 C.3   197  LEU197      0.0001
    132  CD2      -20.8130   -6.9960   12.2860 C.3   197  LEU197      0.0001
    133  N        -23.5840   -5.1190   15.2910 N.am  198  GLY198     -0.1942
    134  CA       -24.0100   -4.2570   16.3710 C.3   198  GLY198      0.2014
    135  C        -24.0910   -5.0050   17.6860 C.2   198  GLY198      0.2638
    136  O        -23.8680   -6.2120   17.7660 O.2   198  GLY198     -0.2714
    137  N        -24.4230   -4.2490   18.7350 N.am  199  ARG199     -0.1977
    138  CA       -24.5240   -4.8390   20.0650 C.3   199  ARG199      0.1597
    139  C        -25.7610   -5.7190   20.1900 C.2   199  ARG199      0.2287
    140  O        -25.7160   -6.7760   20.8300 O.2   199  ARG199     -0.2864
    141  CB       -24.5380   -3.7370   21.1240 C.3   199  ARG199      0.0334
    142  CG       -23.1490   -3.1850   21.3050 C.3   199  ARG199      0.0492
    143  CD       -22.2890   -4.0820   22.1660 C.3   199  ARG199      0.2205
    144  NE       -22.8860   -4.4170   23.4500 N.pl3 199  ARG199     -0.0865
    145  CZ       -23.1660   -5.6600   23.8450 C.cat 199  ARG199      0.5346
    146  NH1      -22.9320   -6.7120   23.0510 N.pl3 199  ARG199      0.1354
    147  NH2      -23.7290   -5.8260   25.0550 N.pl3 199  ARG199      0.1354
    148  N        -28.3270   -8.3210   18.8710 N.3   201  LYS201     -0.1245
    149  CA       -28.4210   -9.4380   17.9470 C.3   201  LYS201      0.1561
    150  C        -29.8720   -9.8710   17.7820 C.2   201  LYS201      0.2260
    151  O        -30.7350   -9.5000   18.5840 O.2   201  LYS201     -0.2867
    152  CB       -27.5740  -10.6080   18.4580 C.3   201  LYS201      0.0271
    153  CG       -26.0910  -10.2930   18.5500 C.3   201  LYS201      0.0035
    154  CD       -25.5720   -9.6960   17.2500 C.3   201  LYS201      0.0206
    155  CE       -24.0770   -9.4290   17.3310 C.3   201  LYS201      0.1093
    156  NZ       -23.5680   -8.6880   16.1440 N.3   201  LYS201     -0.1314
@<TRIPOS>BOND
     1    30    31    1
     2    33    32    2
     3    51    52    2
     4    51    50    1
     5    32    31    1
     6    32    38   am
     7    31    34    1
     8    38    39    1
     9    38    44    1
    10    63    64    1
    11    43    44    1
    12    43    42    1
    13    39    42    1
    14    39    40    1
    15    57    55   ar
    16    57    58   ar
    17    66    65    2
    18    50    49    1
    19    50    53    1
    20    55    54   ar
    21    60    58   ar
    22    60    62   ar
    23    58    56   ar
    24    34    35    1
    25    45    40   am
    26    45    46    1
    27    67    64    1
    28    67    68    1
    29    48    47    2
    30    49    47   am
    31    40    41    2
    32    64    65    1
    33    54    56   ar
    34    54    53    1
    35    47    46    1
    36    62    61   ar
    37    56    59   ar
    38    65    71   am
    39    61    59   ar
    40    68    69    2
    41    68    70   am
    42    79    80    2
    43    79    78    1
    44    35    36   ar
    45    35    37   ar
    46    71    72    1
    47    72    73    1
    48    72    75    1
    49    77    78    1
    50    77    73   am
    51    73    74    2
    52   123   122    2
    53    75    76    1
    54    22    23    1
    55   122   124   am
    56   122   121    1
    57   131   130    1
    58   119   118    2
    59   121   120    1
    60    25    24    2
    61   130   132    1
    62   130   129    1
    63    23    26    1
    64    23    24    1
    65    26    27    1
    66   120   117    1
    67   118   117    1
    68   117   116    1
    69   129   126    1
    70   125   126    1
    71    27    28   ar
    72    27    29   ar
    73    21    20    1
    74    20    19    1
    75   114   113   ar
    76   111   110    2
    77   126   127    1
    78   116   110   am
    79   110   109    1
    80    16    15    2
    81    19    18    1
    82   128   127    2
    83    18    17    1
    84   113   115   ar
    85   113   112    1
    86   127   133   am
    87    90    88   ar
    88    90    91   ar
    89    15    14    1
    90    88    86   ar
    91   112   109    1
    92    91    89   ar
    93   109   108    1
    94   133   134    1
    95    17    14    1
    96    14    13    1
    97   108   106   am
    98   156   155    1
    99    86    85    1
   100    86    87   ar
   101   134   135    1
   102    89    87   ar
   103    85    82    1
   104   106   107    2
   105   106   105    1
   106   154   155    1
   107   154   153    1
   108     4     3    2
   109   135   136    2
   110   135   137   am
   111    81    82    1
   112   150   149    1
   113   150   151    2
   114   105   104    1
   115   149   152    1
   116   149   148    1
   117    82    83    1
   118    84    83    2
   119     8    10   ar
   120     8     6   ar
   121   152   153    1
   122    10    11   ar
   123   137   138    1
   124    83    92   am
   125     3     2    1
   126   104   102   am
   127     5     6    1
   128     5     2    1
   129     6     7   ar
   130     2     1    1
   131    11    12    1
   132    11     9   ar
   133   138   139    1
   134   138   141    1
   135   102   103    2
   136   102   101    1
   137    92    93    1
   138   139   140    2
   139    99    97   ar
   140    96    97    1
   141    96    93    1
   142     7     9   ar
   143    97    98   ar
   144    93    94    1
   145   100    94   am
   146   100   101    1
   147   141   142    1
   148    94    95    2
   149   142   143    1
   150   143   144    1
   151   146   145    1
   152   144   145    2
   153   145   147    1
