@<TRIPOS>MOLECULE
tmp/6eqmA00.pdb
 224 215 0 0 0
SMALL
GASTEIGER

@<TRIPOS>ATOM
      1  N         24.8610   85.7330   15.0240 N.3    14  GLY14      -0.1210
      2  CA        26.0550   84.9020   14.9720 C.3    14  GLY14       0.1956
      3  C         26.7320   84.6190   16.3010 C.2    14  GLY14       0.2612
      4  O         27.8360   84.0650   16.3070 O.2    14  GLY14      -0.2717
      5  N         26.0970   84.9910   17.4500 N.am   15  GLN15      -0.1965
      6  CA        26.6700   84.7570   18.7920 C.3    15  GLN15       0.1733
      7  C         25.9130   83.6840   19.5930 C.2    15  GLN15       0.2617
      8  O         26.4040   83.2030   20.6150 O.2    15  GLN15      -0.2715
      9  CB        26.7910   86.0380   19.6190 C.3    15  GLN15       0.0408
     10  CG        27.6380   87.1080   18.9140 C.3    15  GLN15       0.0908
     11  CD        28.5960   87.8260   19.8260 C.2    15  GLN15       0.2608
     12  OE1       29.8190   87.7150   19.6870 O.2    15  GLN15      -0.2717
     13  NE2       28.0710   88.6350   20.7290 N.am   15  GLN15      -0.0878
     14  N         24.7300   83.3590   19.1390 N.am   16  GLY16      -0.1940
     15  CA        23.9120   82.3330   19.7470 C.3    16  GLY16       0.2014
     16  C         22.6080   82.8270   20.3100 C.2    16  GLY16       0.2638
     17  O         22.5420   83.9110   20.9140 O.2    16  GLY16      -0.2714
     18  N         21.5750   82.0230   20.1510 N.am   17  TYR17      -0.1973
     19  CA        20.2620   82.3160   20.6960 C.3    17  TYR17       0.1639
     20  C         20.1640   81.7290   22.0870 C.2    17  TYR17       0.2290
     21  O         20.5220   80.5680   22.2950 O.2    17  TYR17      -0.2864
     22  CB        19.1880   81.6570   19.8170 C.3    17  TYR17       0.0560
     23  CG        19.0630   82.3210   18.4670 C.ar   17  TYR17      -0.0198
     24  CD1       19.9060   81.9650   17.4060 C.ar   17  TYR17      -0.0009
     25  CD2       18.0850   83.2840   18.2340 C.ar   17  TYR17      -0.0009
     26  CE1       19.7980   82.5860   16.1540 C.ar   17  TYR17       0.0417
     27  CE2       17.9300   83.8670   16.9740 C.ar   17  TYR17       0.0417
     28  CZ        18.7790   83.5070   15.9380 C.ar   17  TYR17       0.1957
     29  OH        18.6270   84.1070   14.7030 O.3    17  TYR17      -0.2866
     30  N         22.4080   79.3580   26.2260 N.3    33  LEU33      -0.1245
     31  CA        22.4390   79.1050   24.7760 C.3    33  LEU33       0.1561
     32  C         21.6210   77.8440   24.4300 C.2    33  LEU33       0.2260
     33  O         21.8150   76.8030   25.0530 O.2    33  LEU33      -0.2867
     34  CB        23.9170   78.8730   24.3860 C.3    33  LEU33       0.0270
     35  CG        24.1260   78.5540   22.8940 C.3    33  LEU33       0.0019
     36  CD1       23.9440   79.7810   22.0560 C.3    33  LEU33       0.0001
     37  CD2       25.4730   77.9100   22.6530 C.3    33  LEU33       0.0001
     38  N         21.2100   74.8700   22.2480 N.3    35  ASP35      -0.1239
     39  CA        22.1280   74.1330   21.4000 C.3    35  ASP35       0.1674
     40  C         21.6700   72.7130   21.0670 C.2    35  ASP35       0.2266
     41  O         21.8270   71.8050   21.8940 O.2    35  ASP35      -0.2867
     42  CB        23.4790   74.1110   22.1200 C.3    35  ASP35       0.1410
     43  CG        24.5940   73.4630   21.3660 C.2    35  ASP35       0.3668
     44  OD1       24.4490   73.2620   20.1420 O.co2  35  ASP35      -0.2456
     45  OD2       25.6590   73.2230   21.9830 O.co2  35  ASP35      -0.2456
     46  N         23.1870   70.8310   19.0720 N.3    37  GLY37      -0.1210
     47  CA        24.3950   70.1000   18.6960 C.3    37  GLY37       0.1956
     48  C         25.1800   69.5270   19.8550 C.2    37  GLY37       0.2612
     49  O         26.3110   69.0960   19.6360 O.2    37  GLY37      -0.2717
     50  N         24.6520   69.5380   21.0770 N.am   38  SER38      -0.1952
     51  CA        25.3290   68.9830   22.2450 C.3    38  SER38       0.1924
     52  C         24.2760   68.5280   23.2410 C.2    38  SER38       0.2314
     53  O         23.0860   68.7900   23.0240 O.2    38  SER38      -0.2863
     54  CB        26.2780   69.9940   22.8690 C.3    38  SER38       0.2116
     55  OG        25.5790   71.0510   23.5120 O.3    38  SER38      -0.2180
     56  N         36.7400   71.1070   22.9780 N.3    74  TYR74      -0.1227
     57  CA        36.1800   71.2590   21.6350 C.3    74  TYR74       0.1736
     58  C         37.2860   71.7800   20.7090 C.2    74  TYR74       0.2596
     59  O         38.4100   71.9760   21.1750 O.2    74  TYR74      -0.2718
     60  CB        34.9300   72.1570   21.6330 C.3    74  TYR74       0.0548
     61  CG        33.7140   71.4840   22.2300 C.ar   74  TYR74      -0.0200
     62  CD1       33.1200   70.3910   21.6060 C.ar   74  TYR74      -0.0009
     63  CD2       33.1430   71.9510   23.4090 C.ar   74  TYR74      -0.0009
     64  CE1       32.0050   69.7610   22.1540 C.ar   74  TYR74       0.0417
     65  CE2       32.0180   71.3370   23.9610 C.ar   74  TYR74       0.0417
     66  CZ        31.4520   70.2440   23.3270 C.ar   74  TYR74       0.1957
     67  OH        30.3550   69.6200   23.8630 O.3    74  TYR74      -0.2866
     68  N         36.9910   71.9570   19.4050 N.am   75  THR75      -0.1939
     69  CA        37.9540   72.4160   18.3860 C.3    75  THR75       0.2028
     70  C         38.4910   73.7840   18.8050 C.2    75  THR75       0.2642
     71  O         39.7110   73.9580   18.9290 O.2    75  THR75      -0.2714
     72  CB        37.3060   72.3650   16.9910 C.3    75  THR75       0.1808
     73  OG1       37.1780   70.9910   16.6180 O.3    75  THR75      -0.2208
     74  CG2       38.1150   73.1130   15.9270 C.3    75  THR75       0.0379
     75  N         37.5710   74.7100   19.1130 N.am   76  GLN76      -0.1976
     76  CA        37.9150   76.0200   19.6320 C.3    76  GLN76       0.1601
     77  C         37.4960   76.0520   21.1020 C.2    76  GLN76       0.2287
     78  O         36.3030   75.9690   21.4220 O.2    76  GLN76      -0.2864
     79  CB        37.2720   77.1550   18.8120 C.3    76  GLN76       0.0394
     80  CG        37.9510   77.3840   17.4630 C.3    76  GLN76       0.0908
     81  CD        38.0150   78.8460   17.0870 C.2    76  GLN76       0.2608
     82  OE1       37.0080   79.4720   16.7330 O.2    76  GLN76      -0.2717
     83  NE2       39.2110   79.4140   17.1270 N.am   76  GLN76      -0.0878
     84  N         36.0580   73.4250   28.3250 N.3    79  TRP79      -0.1241
     85  CA        35.4540   73.6840   29.6440 C.3    79  TRP79       0.1605
     86  C         35.6970   72.4960   30.6290 C.2    79  TRP79       0.2264
     87  O         35.6520   71.3430   30.1810 O.2    79  TRP79      -0.2867
     88  CB        33.9510   74.1050   29.5270 C.3    79  TRP79       0.0550
     89  CG        32.9370   73.0960   29.0340 C.ar   79  TRP79       0.0003
     90  CD1       32.3520   73.0620   27.8030 C.ar   79  TRP79       0.0946
     91  CD2       32.2200   72.1520   29.8410 C.ar   79  TRP79       0.0152
     92  NE1       31.3780   72.0850   27.7650 N.ar   79  TRP79      -0.2442
     93  CE2       31.2810   71.5070   29.0030 C.ar   79  TRP79       0.0810
     94  CE3       32.3180   71.7490   31.1810 C.ar   79  TRP79       0.0012
     95  CZ2       30.4410   70.4900   29.4620 C.ar   79  TRP79       0.0191
     96  CZ3       31.4750   70.7540   31.6360 C.ar   79  TRP79       0.0001
     97  CH2       30.5690   70.1160   30.7750 C.ar   79  TRP79       0.0015
     98  N         35.7020   79.5490   25.5350 N.3   111  PHE111     -0.1241
     99  CA        34.3730   78.9520   25.4780 C.3   111  PHE111      0.1605
    100  C         33.3210   80.0790   25.5540 C.2   111  PHE111      0.2264
    101  O         32.4370   80.1660   24.7020 O.2   111  PHE111     -0.2867
    102  CB        34.2260   77.9670   26.6470 C.3   111  PHE111      0.0534
    103  CG        32.8390   77.4200   26.8480 C.ar  111  PHE111     -0.0203
    104  CD1       32.3490   76.4140   26.0330 C.ar  111  PHE111     -0.0042
    105  CD2       32.0590   77.8430   27.9150 C.ar  111  PHE111     -0.0042
    106  CE1       31.0860   75.8830   26.2440 C.ar  111  PHE111     -0.0003
    107  CE2       30.7880   77.3220   28.1160 C.ar  111  PHE111     -0.0003
    108  CZ        30.3090   76.3460   27.2840 C.ar  111  PHE111     -0.0000
    109  N         31.9230   83.7520   25.1070 N.3   113  ILE113     -0.1245
    110  CA        32.1220   84.8070   24.1080 C.3   113  ILE113      0.1561
    111  C         31.7800   86.1780   24.6960 C.2   113  ILE113      0.2260
    112  O         30.6770   86.3670   25.2170 O.2   113  ILE113     -0.2867
    113  CB        31.2880   84.4960   22.8290 C.3   113  ILE113      0.0252
    114  CG1       31.5880   83.0740   22.2940 C.3   113  ILE113      0.0019
    115  CG2       31.5060   85.5780   21.7450 C.3   113  ILE113      0.0019
    116  CD1       30.5860   82.5270   21.3020 C.3   113  ILE113      0.0001
    117  N         25.1970   85.1370   27.0780 N.3   118  TRP118     -0.1241
    118  CA        24.8170   83.8370   27.6380 C.3   118  TRP118      0.1605
    119  C         25.8950   83.3570   28.6160 C.2   118  TRP118      0.2264
    120  O         27.0950   83.6590   28.4560 O.2   118  TRP118     -0.2867
    121  CB        24.4140   82.7800   26.6060 C.3   118  TRP118      0.0550
    122  CG        25.3830   82.5150   25.4920 C.ar  118  TRP118      0.0003
    123  CD1       25.3260   83.0260   24.2230 C.ar  118  TRP118      0.0946
    124  CD2       26.5240   81.6340   25.5220 C.ar  118  TRP118      0.0152
    125  NE1       26.3380   82.4940   23.4550 N.ar  118  TRP118     -0.2442
    126  CE2       27.0940   81.6470   24.2270 C.ar  118  TRP118      0.0810
    127  CE3       27.0990   80.8030   26.5020 C.ar  118  TRP118      0.0012
    128  CZ2       28.2300   80.8890   23.9000 C.ar  118  TRP118      0.0191
    129  CZ3       28.2320   80.0640   26.1810 C.ar  118  TRP118      0.0001
    130  CH2       28.7800   80.1010   24.8880 C.ar  118  TRP118      0.0015
    131  N         25.1030   76.6780   28.5150 N.3   121  ILE121     -0.1245
    132  CA        24.5890   76.0150   27.3070 C.3   121  ILE121      0.1561
    133  C         23.6120   74.9310   27.6910 C.2   121  ILE121      0.2260
    134  O         23.8570   74.1460   28.6060 O.2   121  ILE121     -0.2867
    135  CB        25.7560   75.4020   26.4730 C.3   121  ILE121      0.0252
    136  CG1       26.7180   76.4930   26.0000 C.3   121  ILE121      0.0019
    137  CG2       25.1970   74.6570   25.2440 C.3   121  ILE121      0.0019
    138  CD1       27.8140   76.0310   24.9710 C.3   121  ILE121      0.0001
    139  N         23.4910   63.0430   17.8430 N.3   191  TYR191     -0.1241
    140  CA        23.1830   64.3660   17.3450 C.3   191  TYR191      0.1605
    141  C         21.7600   64.2110   16.7360 C.2   191  TYR191      0.2264
    142  O         21.2370   63.0830   16.6110 O.2   191  TYR191     -0.2867
    143  CB        24.1260   64.7170   16.1930 C.3   191  TYR191      0.0534
    144  CG        25.5710   64.8300   16.6080 C.ar  191  TYR191     -0.0201
    145  CD1       26.0640   66.0020   17.1740 C.ar  191  TYR191     -0.0009
    146  CD2       26.4290   63.7340   16.5210 C.ar  191  TYR191     -0.0009
    147  CE1       27.3940   66.0980   17.5980 C.ar  191  TYR191      0.0417
    148  CE2       27.7450   63.8150   16.9700 C.ar  191  TYR191      0.0417
    149  CZ        28.2190   64.9940   17.5040 C.ar  191  TYR191      0.1957
    150  OH        29.5320   65.0650   17.9100 O.3   191  TYR191     -0.2866
    151  N         23.9550   66.8230   10.4060 N.3   219  ILE219     -0.1245
    152  CA        23.2240   67.1340   11.6400 C.3   219  ILE219      0.1561
    153  C         22.5650   68.4890   11.5550 C.2   219  ILE219      0.2260
    154  O         22.9620   69.3520   10.7650 O.2   219  ILE219     -0.2867
    155  CB        24.1510   67.0720   12.8820 C.3   219  ILE219      0.0252
    156  CG1       25.1400   68.2540   12.8640 C.3   219  ILE219      0.0019
    157  CG2       24.8830   65.6910   12.9340 C.3   219  ILE219      0.0019
    158  CD1       25.9900   68.3250   14.1510 C.3   219  ILE219      0.0001
    159  N         22.0250   71.7400   13.8240 N.3   221  ASP221     -0.1225
    160  CA        22.7200   72.2860   14.9820 C.3   221  ASP221      0.1805
    161  C         22.4960   73.7800   15.1740 C.2   221  ASP221      0.2598
    162  O         23.1350   74.6130   14.5210 O.2   221  ASP221     -0.2718
    163  CB        24.2300   72.0000   14.8570 C.3   221  ASP221      0.1424
    164  CG        25.0360   72.3980   16.0660 C.2   221  ASP221      0.3668
    165  OD1       24.4260   72.7730   17.0920 O.co2 221  ASP221     -0.2456
    166  OD2       26.2870   72.3540   15.9890 O.co2 221  ASP221     -0.2456
    167  N         21.6770   74.1200   16.1730 N.am  222  SER222     -0.1938
    168  CA        21.4390   75.5350   16.4960 C.3   222  SER222      0.2055
    169  C         22.6320   76.1950   17.1730 C.2   222  SER222      0.2644
    170  O         22.6240   77.4090   17.3290 O.2   222  SER222     -0.2714
    171  CB        20.1960   75.6770   17.3610 C.3   222  SER222      0.2130
    172  OG        20.4060   75.0870   18.6390 O.3   222  SER222     -0.2179
    173  N         23.6380   75.4260   17.5540 N.am  223  GLY223     -0.1939
    174  CA        24.8610   75.9500   18.1550 C.3   223  GLY223      0.2014
    175  C         25.9580   76.2490   17.1530 C.2   223  GLY223      0.2640
    176  O         27.0750   76.5860   17.5600 O.2   223  GLY223     -0.2714
    177  N         25.6710   76.1300   15.8340 N.am  224  THR224     -0.1936
    178  CA        26.6530   76.4250   14.7530 C.3   224  THR224      0.2028
    179  C         26.0570   77.5010   13.8670 C.2   224  THR224      0.2642
    180  O         24.8750   77.4030   13.5160 O.2   224  THR224     -0.2714
    181  CB        26.9360   75.1780   13.8870 C.3   224  THR224      0.1808
    182  OG1       27.6530   74.2330   14.6980 O.3   224  THR224     -0.2208
    183  CG2       27.8000   75.4850   12.6440 C.3   224  THR224      0.0379
    184  N         26.8220   78.5500   13.5320 N.am  225  THR225     -0.1950
    185  CA        26.3100   79.5670   12.6450 C.3   225  THR225      0.1897
    186  C         26.1530   79.0870   11.2050 C.2   225  THR225      0.2313
    187  O         25.0890   79.2410   10.5960 O.2   225  THR225     -0.2863
    188  CB        27.2390   80.7930   12.6130 C.3   225  THR225      0.1794
    189  OG1       27.3420   81.3180   13.9560 O.3   225  THR225     -0.2208
    190  CG2       26.7320   81.8700   11.6670 C.3   225  THR225      0.0378
    191  N         27.8390   74.0570    7.1560 N.3   228  ARG228     -0.1245
    192  CA        29.1800   73.4600    7.0110 C.3   228  ARG228      0.1563
    193  C         29.0450   72.1980    6.1610 C.2   228  ARG228      0.2260
    194  O         28.0860   71.4360    6.3430 O.2   228  ARG228     -0.2867
    195  CB        29.7830   73.1140    8.3840 C.3   228  ARG228      0.0307
    196  CG        29.8250   74.3020    9.3290 C.3   228  ARG228      0.0489
    197  CD        30.5640   74.0070   10.6300 C.3   228  ARG228      0.2205
    198  NE        31.9930   73.7730   10.3780 N.pl3 228  ARG228     -0.0865
    199  CZ        32.6810   72.7650   10.8990 C.cat 228  ARG228      0.5346
    200  NH1       33.9570   72.5880   10.5730 N.pl3 228  ARG228      0.1354
    201  NH2       32.1000   71.9190   11.7540 N.pl3 228  ARG228      0.1354
    202  N         26.2080   86.5780    5.6740 N.3   300  ARG300     -0.1245
    203  CA        25.7760   87.1000    6.9600 C.3   300  ARG300      0.1563
    204  C         26.3830   88.4480    7.2780 C.2   300  ARG300      0.2260
    205  O         27.6060   88.6020    7.2520 O.2   300  ARG300     -0.2867
    206  CB        26.0230   86.0880    8.0370 C.3   300  ARG300      0.0307
    207  CG        25.1130   84.8970    7.8330 C.3   300  ARG300      0.0489
    208  CD        25.3640   83.8780    8.8990 C.3   300  ARG300      0.2205
    209  NE        24.7240   84.2400   10.1580 N.pl3 300  ARG300     -0.0865
    210  CZ        23.4470   83.9950   10.4330 C.cat 300  ARG300      0.5346
    211  NH1       22.6560   83.4480    9.5160 N.pl3 300  ARG300      0.1354
    212  NH2       22.9450   84.3220   11.6130 N.pl3 300  ARG300      0.1354
    213  N         26.8510   70.2560    8.6500 N.3   325  VAL325     -0.1245
    214  CA        26.2160   70.8880    9.7830 C.3   325  VAL325      0.1561
    215  C         25.2370   71.9040    9.2460 C.2   325  VAL325      0.2260
    216  O         25.6320   72.8970    8.6270 O.2   325  VAL325     -0.2867
    217  CB        27.1650   71.5490   10.8040 C.3   325  VAL325      0.0252
    218  CG1       26.3450   72.0550   11.9980 C.3   325  VAL325      0.0019
    219  CG2       28.2370   70.5570   11.2730 C.3   325  VAL325      0.0019
    220  N         22.6300   77.8000   11.8700 N.3   328  ALA328     -0.1245
    221  CA        21.6630   78.9240   11.7780 C.3   328  ALA328      0.1562
    222  C         21.3970   79.3980   10.3370 C.2   328  ALA328      0.2260
    223  O         20.2640   79.8320   10.0310 O.2   328  ALA328     -0.2867
    224  CB        22.1620   80.0970   12.6090 C.3   328  ALA328      0.0290
@<TRIPOS>BOND
     1   202   203    1
     2   193   194    2
     3   193   192    1
     4   203   204    1
     5   203   206    1
     6   192   191    1
     7   192   195    1
     8   205   204    2
     9   207   206    1
    10   207   208    1
    11   195   196    1
    12   216   215    2
    13   213   214    1
    14   208   209    1
    15   215   214    1
    16   196   197    1
    17   211   210    1
    18   214   217    1
    19   223   222    2
    20   209   210    2
    21   222   221    1
    22   198   197    1
    23   198   199    2
    24   151   152    1
    25   210   212    1
    26   200   199    1
    27   187   186    2
    28   154   153    2
    29   217   219    1
    30   217   218    1
    31   199   201    1
    32   186   185    1
    33   153   152    1
    34   152   155    1
    35   190   188    1
    36   221   220    1
    37   221   224    1
    38   188   185    1
    39   188   189    1
    40   183   181    1
    41   185   184    1
    42   156   155    1
    43   156   158    1
    44   155   157    1
    45   180   179    2
    46   184   179   am
    47   159   160    1
    48   179   178    1
    49   181   182    1
    50   181   178    1
    51   162   161    2
    52    29    28    1
    53   178   177    1
    54   163   160    1
    55   163   164    1
    56     2     1    1
    57     2     3    1
    58   160   161    1
    59   161   167   am
    60   177   175   am
    61    74    72    1
    62    28    26   ar
    63    28    27   ar
    64   166   164   ar
    65   164   165   ar
    66    26    24   ar
    67   167   168    1
    68   143   144    1
    69   143   140    1
    70     3     4    2
    71     3     5   am
    72   168   169    1
    73   168   171    1
    74   146   144   ar
    75   146   148   ar
    76   144   145   ar
    77   142   141    2
    78    73    72    1
    79    82    81    2
    80   141   140    1
    81   148   149   ar
    82    27    25   ar
    83    72    69    1
    84    81    83   am
    85    81    80    1
    86   175   176    2
    87   175   174    1
    88   169   170    2
    89   169   173   am
    90   145   147   ar
    91   140   139    1
    92   171   172    1
    93    24    23   ar
    94     5     6    1
    95    80    79    1
    96   149   147   ar
    97   149   150    1
    98   173   174    1
    99    25    23   ar
   100    69    70    1
   101    69    68    1
   102    23    22    1
   103    47    46    1
   104    47    48    1
   105     6     7    1
   106     6     9    1
   107    70    71    2
   108    70    75   am
   109    79    76    1
   110    10     9    1
   111    10    11    1
   112    75    76    1
   113    14     7   am
   114    14    15    1
   115    68    58   am
   116     7     8    2
   117    76    77    1
   118    49    48    2
   119    12    11    2
   120    15    16    1
   121    22    19    1
   122    11    13   am
   123    48    50   am
   124    44    43   ar
   125    18    16   am
   126    18    19    1
   127    16    17    2
   128    19    20    1
   129    58    59    2
   130    58    57    1
   131    40    39    1
   132    40    41    2
   133    50    51    1
   134    77    78    2
   135   116   114    1
   136    43    45   ar
   137    43    42    1
   138    39    42    1
   139    39    38    1
   140    62    64   ar
   141    62    61   ar
   142    60    57    1
   143    60    61    1
   144    57    56    1
   145   115   113    1
   146    36    35    1
   147    20    21    2
   148    64    66   ar
   149    61    63   ar
   150    51    54    1
   151    51    52    1
   152   114   113    1
   153    37    35    1
   154   113   110    1
   155    54    55    1
   156    35    34    1
   157    53    52    2
   158    66    67    1
   159    66    65   ar
   160    63    65   ar
   161   125   123   ar
   162   125   126   ar
   163   128   126   ar
   164   128   130   ar
   165   110   111    1
   166   110   109    1
   167   123   122   ar
   168   126   124   ar
   169    34    31    1
   170    32    31    1
   171    32    33    2
   172   111   112    2
   173   101   100    2
   174    31    30    1
   175   130   129   ar
   176   138   136    1
   177   137   135    1
   178    99    98    1
   179    99   100    1
   180    99   102    1
   181   122   124   ar
   182   122   121    1
   183   124   127   ar
   184   136   135    1
   185   104   106   ar
   186   104   103   ar
   187   129   127   ar
   188   106   108   ar
   189   135   132    1
   190   121   118    1
   191   102   103    1
   192   103   105   ar
   193   117   118    1
   194   108   107   ar
   195   132   133    1
   196   132   131    1
   197   118   119    1
   198   133   134    2
   199    92    90   ar
   200    92    93   ar
   201    90    89   ar
   202   105   107   ar
   203    84    85    1
   204   120   119    2
   205    93    95   ar
   206    93    91   ar
   207    89    88    1
   208    89    91   ar
   209    95    97   ar
   210    88    85    1
   211    85    86    1
   212    91    94   ar
   213    87    86    2
   214    97    96   ar
   215    94    96   ar
