@<TRIPOS>MOLECULE
tmp/6eqpA00.pdb
 104 102 0 0 0
SMALL
GASTEIGER

@<TRIPOS>ATOM
      1  N         37.3340  -16.9710   38.9610 N.3   113  GLY113     -0.1210
      2  CA        38.7470  -17.1450   38.6890 C.3   113  GLY113      0.1956
      3  C         39.5290  -15.8520   38.8050 C.2   113  GLY113      0.2612
      4  O         40.4980  -15.6340   38.0700 O.2   113  GLY113     -0.2717
      5  N         39.1060  -14.9820   39.7210 N.am  114  GLY114     -0.1956
      6  CA        39.7970  -13.7290   39.9660 C.3   114  GLY114      0.1869
      7  C         39.8310  -12.7750   38.7950 C.2   114  GLY114      0.2309
      8  O         40.6690  -11.8700   38.7730 O.2   114  GLY114     -0.2863
      9  N         41.0670  -13.3550   36.1650 N.3   116  GLN116     -0.1231
     10  CA        42.3040  -13.6760   35.4640 C.3   116  GLN116      0.1698
     11  C         42.2550  -15.0110   34.7450 C.2   116  GLN116      0.2592
     12  O         42.9560  -15.1880   33.7460 O.2   116  GLN116     -0.2718
     13  CB        43.4840  -13.7090   36.4450 C.3   116  GLN116      0.0381
     14  CG        43.6780  -12.4560   37.2830 C.3   116  GLN116      0.0905
     15  CD        43.2360  -11.1940   36.5720 C.2   116  GLN116      0.2608
     16  OE1       43.7840  -10.8290   35.5310 O.2   116  GLN116     -0.2717
     17  NE2       42.2370  -10.5210   37.1290 N.am  116  GLN116     -0.0878
     18  N         41.4610  -15.9560   35.2470 N.am  117  THR117     -0.1953
     19  CA        41.4250  -17.3230   34.7530 C.3   117  THR117      0.1897
     20  C         39.9780  -17.7940   34.7170 C.2   117  THR117      0.2313
     21  O         39.0550  -17.0750   35.1130 O.2   117  THR117     -0.2863
     22  CB        42.2580  -18.2620   35.6360 C.3   117  THR117      0.1794
     23  OG1       41.6860  -18.3070   36.9500 O.3   117  THR117     -0.2208
     24  CG2       43.7060  -17.7940   35.7310 C.3   117  THR117      0.0378
     25  N         32.4690  -16.6260   43.1770 N.3   195  SER195     -0.1217
     26  CA        33.6930  -15.8310   43.3310 C.3   195  SER195      0.1889
     27  C         33.6330  -14.6630   42.3540 C.2   195  SER195      0.2288
     28  O         32.6660  -13.8830   42.4170 O.2   195  SER195     -0.2866
     29  CB        34.9040  -16.7550   43.1920 C.3   195  SER195      0.2089
     30  OG        36.0980  -16.0990   43.5850 O.3   195  SER195     -0.2183
     31  N         38.6250   -6.9670   46.4140 N.3   228  TRP228     -0.1241
     32  CA        39.3730   -7.4230   45.2490 C.3   228  TRP228      0.1605
     33  C         38.6190   -7.2390   43.9370 C.2   228  TRP228      0.2264
     34  O         39.1850   -7.5150   42.8750 O.2   228  TRP228     -0.2867
     35  CB        39.7440   -8.9050   45.4090 C.3   228  TRP228      0.0550
     36  CG        38.5740   -9.7840   45.7830 C.ar  228  TRP228      0.0003
     37  CD1       38.2490  -10.2260   47.0330 C.ar  228  TRP228      0.0946
     38  CD2       37.5780  -10.3210   44.8980 C.ar  228  TRP228      0.0152
     39  NE1       37.1170  -11.0030   46.9820 N.ar  228  TRP228     -0.2442
     40  CE2       36.6850  -11.0760   45.6830 C.ar  228  TRP228      0.0810
     41  CE3       37.3590  -10.2390   43.5190 C.ar  228  TRP228      0.0012
     42  CZ2       35.5880  -11.7430   45.1370 C.ar  228  TRP228      0.0191
     43  CZ3       36.2640  -10.9000   42.9790 C.ar  228  TRP228      0.0001
     44  CH2       35.3960  -11.6420   43.7860 C.ar  228  TRP228      0.0015
     45  N         48.1940  -12.4690   47.3910 N.3   282  PRO282     -0.2102
     46  CA        47.5190  -13.6550   46.8350 C.3   282  PRO282      0.1504
     47  C         46.1380  -13.3750   46.2650 C.2   282  PRO282      0.2576
     48  O         45.6420  -14.1790   45.4660 O.2   282  PRO282     -0.2718
     49  CB        47.4440  -14.6030   48.0380 C.3   282  PRO282      0.0282
     50  CG        48.6520  -14.2570   48.8360 C.3   282  PRO282      0.0208
     51  CD        48.8460  -12.7680   48.6800 C.3   282  PRO282      0.0893
     52  N         45.4970  -12.2690   46.6460 N.am  283  LEU283     -0.1966
     53  CA        44.1850  -11.9050   46.1300 C.3   283  LEU283      0.1728
     54  C         44.2550  -10.7980   45.0850 C.2   283  LEU283      0.2617
     55  O         43.2270  -10.1870   44.7700 O.2   283  LEU283     -0.2715
     56  CB        43.2640  -11.4880   47.2770 C.3   283  LEU283      0.0311
     57  CG        42.7610  -12.6340   48.1550 C.3   283  LEU283      0.0022
     58  CD1       43.4530  -12.6210   49.5110 C.3   283  LEU283      0.0001
     59  CD2       41.2530  -12.5680   48.3120 C.3   283  LEU283      0.0001
     60  N         45.4400  -10.5320   44.5390 N.am  284  SER284     -0.1936
     61  CA        45.5890   -9.4690   43.5550 C.3   284  SER284      0.2055
     62  C         44.8020   -9.7840   42.2890 C.2   284  SER284      0.2642
     63  O         44.8090  -10.9140   41.7940 O.2   284  SER284     -0.2714
     64  CB        47.0660   -9.2640   43.2140 C.3   284  SER284      0.2130
     65  OG        47.6660   -8.3270   44.0900 O.3   284  SER284     -0.2179
     66  N         44.1150   -8.7700   41.7720 N.am  285  VAL285     -0.1977
     67  CA        43.3820   -8.8530   40.5140 C.3   285  VAL285      0.1596
     68  C         44.0240   -7.8260   39.5900 C.2   285  VAL285      0.2287
     69  O         43.7650   -6.6220   39.7100 O.2   285  VAL285     -0.2864
     70  CB        41.8820   -8.5990   40.6980 C.3   285  VAL285      0.0276
     71  CG1       41.1940   -8.3870   39.3550 C.3   285  VAL285      0.0022
     72  CG2       41.2430   -9.7580   41.4510 C.3   285  VAL285      0.0022
     73  N         43.8720  -19.2960   50.1630 N.3   326  PHE326     -0.1241
     74  CA        44.8680  -18.3070   49.7760 C.3   326  PHE326      0.1605
     75  C         46.1200  -18.3450   50.6420 C.2   326  PHE326      0.2264
     76  O         47.1410  -17.7700   50.2480 O.2   326  PHE326     -0.2867
     77  CB        44.2420  -16.9100   49.8170 C.3   326  PHE326      0.0534
     78  CG        43.0230  -16.7740   48.9480 C.ar  326  PHE326     -0.0203
     79  CD1       41.7690  -17.1230   49.4260 C.ar  326  PHE326     -0.0042
     80  CD2       43.1320  -16.3110   47.6490 C.ar  326  PHE326     -0.0042
     81  CE1       40.6480  -17.0110   48.6260 C.ar  326  PHE326     -0.0003
     82  CE2       42.0150  -16.1900   46.8490 C.ar  326  PHE326     -0.0003
     83  CZ        40.7720  -16.5430   47.3360 C.ar  326  PHE326     -0.0000
     84  N         35.5100  -11.8600   51.6880 N.3   395  PHE395     -0.1241
     85  CA        34.3530  -12.5500   51.1280 C.3   395  PHE395      0.1605
     86  C         33.1020  -12.4440   51.9930 C.2   395  PHE395      0.2264
     87  O         32.0420  -12.0420   51.5020 O.2   395  PHE395     -0.2867
     88  CB        34.6870  -14.0250   50.8850 C.3   395  PHE395      0.0534
     89  CG        35.7650  -14.2430   49.8600 C.ar  395  PHE395     -0.0203
     90  CD1       37.0660  -14.5180   50.2510 C.ar  395  PHE395     -0.0042
     91  CD2       35.4780  -14.1710   48.5060 C.ar  395  PHE395     -0.0042
     92  CE1       38.0640  -14.7180   49.3090 C.ar  395  PHE395     -0.0003
     93  CE2       36.4680  -14.3690   47.5590 C.ar  395  PHE395     -0.0003
     94  CZ        37.7640  -14.6440   47.9610 C.ar  395  PHE395     -0.0000
     95  N         36.9080  -22.1570   49.7580 N.3   435  HIS435     -0.1241
     96  CA        36.4260  -21.3780   48.6260 C.3   435  HIS435      0.1621
     97  C         36.3040  -22.2470   47.3810 C.2   435  HIS435      0.2264
     98  O         37.2710  -22.8920   46.9640 O.2   435  HIS435     -0.2867
     99  CB        37.4020  -20.2230   48.3830 C.3   435  HIS435      0.0745
    100  CG        36.9150  -19.1940   47.4110 C.ar  435  HIS435      0.0817
    101  ND1       35.8060  -18.4090   47.6460 N.ar  435  HIS435     -0.2268
    102  CD2       37.4060  -18.8020   46.2120 C.ar  435  HIS435      0.1154
    103  CE1       35.6270  -17.5870   46.6280 C.ar  435  HIS435      0.1986
    104  NE2       36.5860  -17.8040   45.7450 N.ar  435  HIS435     -0.2212
@<TRIPOS>BOND
     1    12    11    2
     2    20    19    1
     3    20    21    2
     4    11    18   am
     5    11    10    1
     6    19    18    1
     7    19    22    1
     8    10     9    1
     9    10    13    1
    10    16    15    2
    11    22    24    1
    12    22    23    1
    13    13    14    1
    14    15    17   am
    15    15    14    1
    16     4     3    2
    17     2     3    1
    18     2     1    1
    19     8     7    2
    20     7     6    1
    21     3     5   am
    22    71    70    1
    23    68    69    2
    24    68    67    1
    25     5     6    1
    26    67    70    1
    27    67    66    1
    28    70    72    1
    29    66    62   am
    30    63    62    2
    31    62    61    1
    32    27    28    2
    33    27    26    1
    34    34    33    2
    35    43    41   ar
    36    43    44   ar
    37    25    26    1
    38    29    26    1
    39    29    30    1
    40    64    61    1
    41    64    65    1
    42    41    38   ar
    43    61    60    1
    44    44    42   ar
    45    33    32    1
    46    60    54   am
    47    55    54    2
    48    38    40   ar
    49    38    36   ar
    50    54    53    1
    51    42    40   ar
    52    32    35    1
    53    32    31    1
    54    35    36    1
    55    48    47    2
    56    40    39   ar
    57   104   102   ar
    58   104   103   ar
    59    36    37   ar
    60    53    52    1
    61    53    56    1
    62   102   100   ar
    63    47    52   am
    64    47    46    1
    65   103   101   ar
    66    46    45    1
    67    46    49    1
    68    82    83   ar
    69    82    80   ar
    70    98    97    2
    71    39    37   ar
    72    56    57    1
    73    83    81   ar
    74    97    96    1
    75    45    51    1
    76   100   101   ar
    77   100    99    1
    78    93    94   ar
    79    93    91   ar
    80    80    78   ar
    81    94    92   ar
    82    49    50    1
    83    57    59    1
    84    57    58    1
    85    99    96    1
    86    91    89   ar
    87    96    95    1
    88    81    79   ar
    89    51    50    1
    90    78    79   ar
    91    78    77    1
    92    92    90   ar
    93    74    77    1
    94    74    73    1
    95    74    75    1
    96    89    90   ar
    97    89    88    1
    98    76    75    2
    99    88    85    1
   100    85    84    1
   101    85    86    1
   102    87    86    2
