@<TRIPOS>MOLECULE
tmp/6eqqA00.pdb
 163 160 0 0 0
SMALL
GASTEIGER

@<TRIPOS>ATOM
      1  N        -46.5550   17.2610  -35.2690 N.3    65  ASN65      -0.1225
      2  CA       -47.6530   17.9230  -34.5810 C.3    65  ASN65       0.1785
      3  C        -47.0940   19.0350  -33.7050 C.2    65  ASN65       0.2597
      4  O        -46.1080   18.8360  -32.9900 O.2    65  ASN65      -0.2718
      5  CB       -48.4400   16.9220  -33.7380 C.3    65  ASN65       0.1169
      6  CG       -49.1630   15.8910  -34.5820 C.2    65  ASN65       0.2627
      7  OD1      -49.9380   16.2360  -35.4750 O.2    65  ASN65      -0.2716
      8  ND2      -48.9100   14.6170  -34.3060 N.am   65  ASN65      -0.0877
      9  N        -47.7150   20.1920  -33.7610 N.am   66  ILE66      -0.1966
     10  CA       -47.2210   21.3750  -33.0680 C.3    66  ILE66       0.1727
     11  C        -47.8720   21.4540  -31.6950 C.2    66  ILE66       0.2616
     12  O        -49.0450   21.1090  -31.5290 O.2    66  ILE66      -0.2715
     13  CB       -47.5020   22.6390  -33.9020 C.3    66  ILE66       0.0290
     14  CG1      -47.2430   22.3500  -35.3810 C.3    66  ILE66       0.0022
     15  CG2      -46.6490   23.7920  -33.4380 C.3    66  ILE66       0.0023
     16  CD1      -45.7780   22.2470  -35.7410 C.3    66  ILE66       0.0001
     17  N        -47.1060   21.9060  -30.7040 N.am   67  ASP67      -0.1957
     18  CA       -47.6300   22.0820  -29.3510 C.3    67  ASP67       0.1840
     19  C        -48.5980   23.2620  -29.3380 C.2    67  ASP67       0.2622
     20  O        -48.1910   24.4130  -29.5300 O.2    67  ASP67      -0.2715
     21  CB       -46.4830   22.2950  -28.3640 C.3    67  ASP67       0.1450
     22  CG       -46.9650   22.6430  -26.9630 C.2    67  ASP67       0.3671
     23  OD1      -48.0930   22.2450  -26.5920 O.co2  67  ASP67      -0.2456
     24  OD2      -46.2080   23.3050  -26.2240 O.co2  67  ASP67      -0.2456
     25  N        -49.8840   22.9830  -29.1130 N.am   68  GLN68      -0.1963
     26  CA       -50.9220   24.0080  -29.1050 C.3    68  GLN68       0.1733
     27  C        -51.5250   24.2130  -27.7180 C.2    68  GLN68       0.2617
     28  O        -52.6040   24.8030  -27.5960 O.2    68  GLN68      -0.2715
     29  CB       -52.0290   23.6580  -30.1020 C.3    68  GLN68       0.0408
     30  CG       -51.5390   23.1040  -31.4290 C.3    68  GLN68       0.0908
     31  CD       -51.0290   24.1740  -32.3780 C.2    68  GLN68       0.2608
     32  OE1      -50.6240   25.2600  -31.9600 O.2    68  GLN68      -0.2717
     33  NE2      -51.0480   23.8680  -33.6700 N.am   68  GLN68      -0.0878
     34  N        -50.8480   23.7400  -26.6690 N.am   69  SER69      -0.1950
     35  CA       -51.4320   23.7740  -25.3320 C.3    69  SER69       0.1924
     36  C        -51.5710   25.1960  -24.7990 C.2    69  SER69       0.2314
     37  O        -52.4780   25.4670  -24.0040 O.2    69  SER69      -0.2863
     38  CB       -50.5930   22.9280  -24.3750 C.3    69  SER69       0.2116
     39  OG       -50.6150   21.5620  -24.7500 O.3    69  SER69      -0.2180
     40  N        -37.0410   17.1060  -28.5010 N.3   113  GLY113     -0.1210
     41  CA       -38.4490   17.2250  -28.8270 C.3   113  GLY113      0.1956
     42  C        -39.2010   15.9190  -28.6720 C.2   113  GLY113      0.2612
     43  O        -40.2300   15.7050  -29.3180 O.2   113  GLY113     -0.2717
     44  N        -38.6870   15.0350  -27.8180 N.am  114  GLY114     -0.1956
     45  CA       -39.3410   13.7650  -27.5620 C.3   114  GLY114      0.1869
     46  C        -39.4500   12.8530  -28.7610 C.2   114  GLY114      0.2309
     47  O        -40.3210   11.9800  -28.7820 O.2   114  GLY114     -0.2863
     48  N        -40.7450   13.3970  -31.3580 N.3   116  GLN116     -0.1231
     49  CA       -41.9690   13.7320  -32.0750 C.3   116  GLN116      0.1698
     50  C        -41.9200   15.0940  -32.7410 C.2   116  GLN116      0.2592
     51  O        -42.5920   15.2950  -33.7540 O.2   116  GLN116     -0.2718
     52  CB       -43.1800   13.6970  -31.1300 C.3   116  GLN116      0.0381
     53  CG       -43.1950   12.5290  -30.1590 C.3   116  GLN116      0.0905
     54  CD       -42.9690   11.1970  -30.8430 C.2   116  GLN116      0.2608
     55  OE1      -43.6600   10.8520  -31.8040 O.2   116  GLN116     -0.2717
     56  NE2      -41.9920   10.4430  -30.3570 N.am  116  GLN116     -0.0878
     57  N        -41.1510   16.0350  -32.1940 N.am  117  THR117     -0.1953
     58  CA       -41.0880   17.3930  -32.7100 C.3   117  THR117      0.1897
     59  C        -39.6390   17.8550  -32.7300 C.2   117  THR117      0.2313
     60  O        -38.7240   17.1340  -32.3180 O.2   117  THR117     -0.2863
     61  CB       -41.9370   18.3560  -31.8710 C.3   117  THR117      0.1794
     62  OG1      -41.4540   18.3710  -30.5220 O.3   117  THR117     -0.2208
     63  CG2      -43.3910   17.9310  -31.8810 C.3   117  THR117      0.0378
     64  N        -32.1320   16.5900  -24.2060 N.3   195  SER195     -0.1217
     65  CA       -33.3080   15.7360  -24.0050 C.3   195  SER195      0.1889
     66  C        -33.2870   14.6190  -25.0410 C.2   195  SER195      0.2288
     67  O        -32.3520   13.8000  -25.0130 O.2   195  SER195     -0.2866
     68  CB       -34.5620   16.6080  -24.0020 C.3   195  SER195      0.2089
     69  OG       -35.6620   15.8760  -23.4870 O.3   195  SER195     -0.2183
     70  N        -38.2340    6.9520  -21.1400 N.3   228  TRP228     -0.1241
     71  CA       -38.9580    7.3510  -22.3410 C.3   228  TRP228      0.1605
     72  C        -38.1480    7.1720  -23.6210 C.2   228  TRP228      0.2264
     73  O        -38.6790    7.4130  -24.7090 O.2   228  TRP228     -0.2867
     74  CB       -39.3910    8.8180  -22.2210 C.3   228  TRP228      0.0550
     75  CG       -38.2900    9.7060  -21.7190 C.ar  228  TRP228      0.0003
     76  CD1      -38.0920   10.1200  -20.4330 C.ar  228  TRP228      0.0946
     77  CD2      -37.2230   10.2730  -22.4920 C.ar  228  TRP228      0.0152
     78  NE1      -36.9730   10.9170  -20.3590 N.ar  228  TRP228     -0.2442
     79  CE2      -36.4210   11.0260  -21.6090 C.ar  228  TRP228      0.0810
     80  CE3      -36.8720   10.2240  -23.8450 C.ar  228  TRP228      0.0012
     81  CZ2      -35.2900   11.7210  -22.0350 C.ar  228  TRP228      0.0191
     82  CZ3      -35.7470   10.9150  -24.2660 C.ar  228  TRP228      0.0001
     83  CH2      -34.9700   11.6520  -23.3630 C.ar  228  TRP228      0.0015
     84  N        -47.7110   12.5370  -20.0390 N.3   282  PRO282     -0.2102
     85  CA       -46.9860   13.6730  -20.6340 C.3   282  PRO282      0.1504
     86  C        -45.6050   13.3250  -21.1720 C.2   282  PRO282      0.2576
     87  O        -45.0620   14.0920  -21.9770 O.2   282  PRO282     -0.2718
     88  CB       -46.8970   14.6730  -19.4750 C.3   282  PRO282      0.0282
     89  CG       -48.1060   14.3850  -18.6580 C.3   282  PRO282      0.0208
     90  CD       -48.3180   12.8950  -18.7430 C.3   282  PRO282      0.0893
     91  N        -45.0110   12.2060  -20.7590 N.am  283  LEU283     -0.1966
     92  CA       -43.7130   11.7930  -21.2720 C.3   283  LEU283      0.1728
     93  C        -43.8210   10.6520  -22.2740 C.2   283  LEU283      0.2617
     94  O        -42.8220    9.9780  -22.5490 O.2   283  LEU283     -0.2715
     95  CB       -42.7850   11.4070  -20.1200 C.3   283  LEU283      0.0311
     96  CG       -42.2540   12.6260  -19.3640 C.3   283  LEU283      0.0022
     97  CD1      -42.9380   12.7690  -18.0120 C.3   283  LEU283      0.0001
     98  CD2      -40.7440   12.5680  -19.2140 C.3   283  LEU283      0.0001
     99  N        -45.0090   10.4320  -22.8330 N.am  284  SER284     -0.1936
    100  CA       -45.1930    9.3730  -23.8140 C.3   284  SER284      0.2055
    101  C        -44.4250    9.6920  -25.0890 C.2   284  SER284      0.2643
    102  O        -44.5160   10.8010  -25.6240 O.2   284  SER284     -0.2714
    103  CB       -46.6780    9.1890  -24.1250 C.3   284  SER284      0.2130
    104  OG       -47.3570    8.5720  -23.0450 O.3   284  SER284     -0.2179
    105  N        -43.6650    8.7170  -25.5700 N.am  285  VAL285     -0.1963
    106  CA       -42.9570    8.8060  -26.8410 C.3   285  VAL285      0.1727
    107  C        -43.6490    7.8260  -27.7800 C.2   285  VAL285      0.2616
    108  O        -43.3750    6.6200  -27.7510 O.2   285  VAL285     -0.2715
    109  CB       -41.4630    8.5000  -26.6870 C.3   285  VAL285      0.0290
    110  CG1      -40.7820    8.4270  -28.0470 C.3   285  VAL285      0.0023
    111  CG2      -40.8020    9.5550  -25.8140 C.3   285  VAL285      0.0023
    112  N        -44.5650    8.3430  -28.6030 N.am  286  ASN286     -0.1972
    113  CA       -45.3810    7.4880  -29.4610 C.3   286  ASN286      0.1688
    114  C        -44.5130    6.6530  -30.3930 C.2   286  ASN286      0.2292
    115  O        -44.6220    5.4220  -30.4320 O.2   286  ASN286     -0.2864
    116  CB       -46.3660    8.3420  -30.2630 C.3   286  ASN286      0.1181
    117  CG       -47.3460    9.0880  -29.3800 C.2   286  ASN286      0.2629
    118  OD1      -47.8990    8.5260  -28.4330 O.2   286  ASN286     -0.2716
    119  ND2      -47.5700   10.3620  -29.6870 N.am  286  ASN286     -0.0877
    120  N        -43.3270   19.3380  -17.3750 N.3   326  PHE326     -0.1241
    121  CA       -44.3220   18.3460  -17.7500 C.3   326  PHE326      0.1605
    122  C        -45.5490   18.3550  -16.8480 C.2   326  PHE326      0.2264
    123  O        -46.5760   17.7810  -17.2240 O.2   326  PHE326     -0.2867
    124  CB       -43.6820   16.9510  -17.7520 C.3   326  PHE326      0.0534
    125  CG       -42.4760   16.8460  -18.6470 C.ar  326  PHE326     -0.0203
    126  CD1      -41.2150   17.1810  -18.1770 C.ar  326  PHE326     -0.0042
    127  CD2      -42.6070   16.4310  -19.9620 C.ar  326  PHE326     -0.0042
    128  CE1      -40.1060   17.0950  -19.0000 C.ar  326  PHE326     -0.0003
    129  CE2      -41.5020   16.3410  -20.7890 C.ar  326  PHE326     -0.0003
    130  CZ       -40.2500   16.6740  -20.3070 C.ar  326  PHE326     -0.0000
    131  N        -48.8320   19.8170  -18.2150 N.3   329  TYR329     -0.1241
    132  CA       -49.3840   19.1200  -19.3700 C.3   329  TYR329      0.1605
    133  C        -50.2160   17.9040  -18.9660 C.2   329  TYR329      0.2264
    134  O        -50.3700   16.9650  -19.7510 O.2   329  TYR329     -0.2867
    135  CB       -48.2680   18.6990  -20.3270 C.3   329  TYR329      0.0534
    136  CG       -47.6890   19.8270  -21.1520 C.ar  329  TYR329     -0.0201
    137  CD1      -46.5410   20.4970  -20.7430 C.ar  329  TYR329     -0.0009
    138  CD2      -48.2870   20.2200  -22.3440 C.ar  329  TYR329     -0.0009
    139  CE1      -46.0050   21.5260  -21.4970 C.ar  329  TYR329      0.0417
    140  CE2      -47.7590   21.2490  -23.1040 C.ar  329  TYR329      0.0417
    141  CZ       -46.6190   21.8990  -22.6760 C.ar  329  TYR329      0.1957
    142  OH       -46.0920   22.9230  -23.4300 O.3   329  TYR329     -0.2866
    143  N        -35.0650   11.9160  -15.8460 N.3   395  PHE395     -0.1241
    144  CA       -33.9130   12.6220  -16.3950 C.3   395  PHE395      0.1605
    145  C        -32.6670   12.5090  -15.5240 C.2   395  PHE395      0.2264
    146  O        -31.6260   12.0380  -15.9910 O.2   395  PHE395     -0.2867
    147  CB       -34.2560   14.0980  -16.6150 C.3   395  PHE395      0.0534
    148  CG       -35.3380   14.3220  -17.6320 C.ar  395  PHE395     -0.0203
    149  CD1      -36.6440   14.5610  -17.2330 C.ar  395  PHE395     -0.0042
    150  CD2      -35.0520   14.2860  -18.9880 C.ar  395  PHE395     -0.0042
    151  CE1      -37.6460   14.7630  -18.1670 C.ar  395  PHE395     -0.0003
    152  CE2      -36.0490   14.4880  -19.9280 C.ar  395  PHE395     -0.0003
    153  CZ       -37.3490   14.7280  -19.5160 C.ar  395  PHE395     -0.0000
    154  N        -36.4370   22.3610  -17.4860 N.3   435  HIS435     -0.1241
    155  CA       -35.9710   21.5460  -18.5970 C.3   435  HIS435      0.1621
    156  C        -35.8820   22.3710  -19.8760 C.2   435  HIS435      0.2264
    157  O        -36.8470   23.0270  -20.2770 O.2   435  HIS435     -0.2867
    158  CB       -36.9430   20.3750  -18.7740 C.3   435  HIS435      0.0745
    159  CG       -36.6370   19.4790  -19.9330 C.ar  435  HIS435      0.0817
    160  ND1      -35.6820   18.4860  -19.8750 N.ar  435  HIS435     -0.2268
    161  CD2      -37.1870   19.4000  -21.1670 C.ar  435  HIS435      0.1154
    162  CE1      -35.6460   17.8460  -21.0300 C.ar  435  HIS435      0.1986
    163  NE2      -36.5500   18.3800  -21.8310 N.ar  435  HIS435     -0.2212
@<TRIPOS>BOND
     1    16    14    1
     2     7     6    2
     3    14    13    1
     4     1     2    1
     5     6     8   am
     6     6     5    1
     7     2     5    1
     8     2     3    1
     9    13    15    1
    10    13    10    1
    11     9     3   am
    12     9    10    1
    13    51    50    2
    14     3     4    2
    15    33    31   am
    16    10    11    1
    17    50    57   am
    18    50    49    1
    19    59    58    1
    20    59    60    2
    21    58    57    1
    22    58    61    1
    23    31    32    2
    24    31    30    1
    25    49    48    1
    26    49    52    1
    27    63    61    1
    28    61    62    1
    29    55    54    2
    30    11    12    2
    31    11    17   am
    32    30    29    1
    33    52    53    1
    34    54    56   am
    35    54    53    1
    36    17    18    1
    37   115   114    2
    38   114   113    1
    39   116   113    1
    40   116   117    1
    41    29    26    1
    42   119   117   am
    43    20    19    2
    44   113   112    1
    45   117   118    2
    46    18    19    1
    47    18    21    1
    48    19    25   am
    49    43    42    2
    50    25    26    1
    51    26    27    1
    52    41    42    1
    53    41    40    1
    54    47    46    2
    55    46    45    1
    56    42    44   am
    57   112   107   am
    58    21    22    1
    59   110   109    1
    60    44    45    1
    61   107   108    2
    62   107   106    1
    63    27    28    2
    64    27    34   am
    65    22    23   ar
    66    22    24   ar
    67   106   109    1
    68   106   105    1
    69   109   111    1
    70    34    35    1
    71   102   101    2
    72   105   101   am
    73    35    36    1
    74    35    38    1
    75   101   100    1
    76    66    67    2
    77    66    65    1
    78    36    37    2
    79    39    38    1
    80    73    72    2
    81    82    80   ar
    82    82    83   ar
    83    64    65    1
    84   103   100    1
    85   103   104    1
    86    65    68    1
    87    68    69    1
    88    80    77   ar
    89   100    99    1
    90    72    71    1
    91   142   141    1
    92    83    81   ar
    93   140   141   ar
    94   140   138   ar
    95    99    93   am
    96   141   139   ar
    97    94    93    2
    98    77    75   ar
    99    77    79   ar
   100   138   136   ar
   101    71    74    1
   102    71    70    1
   103    93    92    1
   104    74    75    1
   105    81    79   ar
   106    87    86    2
   107   163   161   ar
   108   163   162   ar
   109    75    76   ar
   110    79    78   ar
   111   139   137   ar
   112    92    91    1
   113    92    95    1
   114    86    91   am
   115    86    85    1
   116   161   159   ar
   117   136   137   ar
   118   136   135    1
   119   162   160   ar
   120   129   130   ar
   121   129   127   ar
   122    85    84    1
   123    85    88    1
   124    76    78   ar
   125   135   132    1
   126   130   128   ar
   127   157   156    2
   128    95    96    1
   129    84    90    1
   130   127   125   ar
   131   159   160   ar
   132   159   158    1
   133   152   153   ar
   134   152   150   ar
   135   156   155    1
   136   134   133    2
   137   153   151   ar
   138    88    89    1
   139   132   133    1
   140   132   131    1
   141    96    98    1
   142    96    97    1
   143   128   126   ar
   144   150   148   ar
   145   158   155    1
   146    90    89    1
   147   125   126   ar
   148   125   124    1
   149   155   154    1
   150   151   149   ar
   151   124   121    1
   152   121   120    1
   153   121   122    1
   154   148   149   ar
   155   148   147    1
   156   123   122    2
   157   147   144    1
   158   144   143    1
   159   144   145    1
   160   146   145    2
