@<TRIPOS>MOLECULE
tmp/6eqsA01.pdb
 103 99 0 0 0
SMALL
GASTEIGER

@<TRIPOS>ATOM
      1  N          8.7640    4.3970    1.9190 N.3   192  GLU192     -0.1231
      2  CA         9.9910    3.6290    1.7110 C.3   192  GLU192      0.1699
      3  C         11.1850    4.5360    1.8020 C.2   192  GLU192      0.2592
      4  O         11.1580    5.7220    1.4000 O.2   192  GLU192     -0.2718
      5  CB        10.0010    3.0160    0.3290 C.3   192  GLU192      0.0402
      6  CG         8.9910    1.9490    0.1760 C.3   192  GLU192      0.1161
      7  CD         9.0650    1.2740   -1.1670 C.2   192  GLU192      0.3649
      8  OE1        8.6750    0.0420   -1.2130 O.co2 192  GLU192     -0.2457
      9  OE2        9.5400    1.8140   -2.1640 O.co2 192  GLU192     -0.2457
     10  N         12.2630    4.0990    2.4850 N.am  193  ASN193     -0.1960
     11  CA        13.4780    4.9750    2.5130 C.3   193  ASN193      0.1819
     12  C         14.1650    5.0540    1.1490 C.2   193  ASN193      0.2621
     13  O         13.9910    4.1210    0.3040 O.2   193  ASN193     -0.2715
     14  CB        14.4190    4.5390    3.6440 C.3   193  ASN193      0.1195
     15  CG        15.2900    5.6100    4.1650 C.2   193  ASN193      0.2630
     16  OD1       15.1580    6.7790    3.7230 O.2   193  ASN193     -0.2716
     17  ND2       16.0470    5.3050    5.2470 N.am  193  ASN193     -0.0877
     18  N         14.9060    6.1290    1.0080 N.am  194  LEU194     -0.1977
     19  CA        15.8390    6.1920   -0.0780 C.3   194  LEU194      0.1596
     20  C         16.9560    5.1130    0.0690 C.2   194  LEU194      0.2287
     21  O         17.2370    4.7420    1.2530 O.2   194  LEU194     -0.2864
     22  CB        16.3800    7.5930   -0.2880 C.3   194  LEU194      0.0297
     23  CG        15.4780    8.5780   -0.9450 C.3   194  LEU194      0.0022
     24  CD1       14.1270    8.8320   -0.2290 C.3   194  LEU194      0.0001
     25  CD2       16.1640    9.9430   -1.1170 C.3   194  LEU194      0.0001
     26  N         21.6420    8.3940   -0.3690 N.3   199  LEU199     -0.1245
     27  CA        21.7080    9.4330    0.7070 C.3   199  LEU199      0.1561
     28  C         23.1710    9.8710    0.8560 C.2   199  LEU199      0.2260
     29  O         23.4260   11.0590    1.0790 O.2   199  LEU199     -0.2867
     30  CB        21.1170    8.8930    2.0330 C.3   199  LEU199      0.0270
     31  CG        19.6760    8.5580    1.9860 C.3   199  LEU199      0.0019
     32  CD1       19.3720    7.7130    3.2850 C.3   199  LEU199      0.0001
     33  CD2       18.8540    9.8090    1.8610 C.3   199  LEU199      0.0001
     34  N         24.1610   12.2230   -1.9990 N.3   202  VAL202     -0.1231
     35  CA        23.6180   13.5380   -1.8330 C.3   202  VAL202      0.1692
     36  C         24.4040   14.3050   -0.7740 C.2   202  VAL202      0.2592
     37  O         24.6850   15.5120   -0.9000 O.2   202  VAL202     -0.2718
     38  CB        22.0730   13.4350   -1.4370 C.3   202  VAL202      0.0266
     39  CG1       21.5810   14.8070   -1.0210 C.3   202  VAL202      0.0020
     40  CG2       21.2820   12.9440   -2.6160 C.3   202  VAL202      0.0020
     41  N         24.5910   13.6600    0.3860 N.am  203  ASP203     -0.1974
     42  CA        25.2340   14.3020    1.5490 C.3   203  ASP203      0.1709
     43  C         26.6110   14.8680    1.0250 C.2   203  ASP203      0.2293
     44  O         26.9500   16.0250    1.3960 O.2   203  ASP203     -0.2864
     45  CB        25.4320   13.2140    2.6240 C.3   203  ASP203      0.1436
     46  CG        25.7380   13.6590    3.9900 C.2   203  ASP203      0.3671
     47  OD1       25.8550   14.8740    4.1840 O.co2 203  ASP203     -0.2456
     48  OD2       25.8670   12.7530    4.8730 O.co2 203  ASP203     -0.2456
     49  N         26.0100   18.0400   -1.1540 N.3   206  LEU206     -0.1245
     50  CA        25.5380   19.2510   -0.4970 C.3   206  LEU206      0.1561
     51  C         26.6320   19.8300    0.3870 C.2   206  LEU206      0.2260
     52  O         26.6420   21.0710    0.5770 O.2   206  LEU206     -0.2867
     53  CB        24.3480   18.8880    0.3480 C.3   206  LEU206      0.0270
     54  CG        23.0930   18.3270   -0.3480 C.3   206  LEU206      0.0019
     55  CD1       21.9820   18.0680    0.7170 C.3   206  LEU206      0.0001
     56  CD2       22.5640   19.1880   -1.3860 C.3   206  LEU206      0.0001
     57  N          9.8270   14.8590    1.8710 N.3   222  TYR222     -0.1228
     58  CA        11.0390   14.6160    2.4930 C.3   222  TYR222      0.1721
     59  C         11.6120   13.2500    2.2020 C.2   222  TYR222      0.2437
     60  O         10.8470   12.3830    1.8960 O.2   222  TYR222     -0.2733
     61  CB        10.7350   14.6920    4.0660 C.3   222  TYR222      0.0547
     62  CG        10.4790   16.1210    4.4770 C.ar  222  TYR222     -0.0200
     63  CD1        9.2710   16.7160    4.3470 C.ar  222  TYR222     -0.0009
     64  CD2       11.4510   16.7670    5.1220 C.ar  222  TYR222     -0.0009
     65  CE1        9.0800   18.0420    4.7010 C.ar  222  TYR222      0.0417
     66  CE2       11.2690   18.1090    5.5410 C.ar  222  TYR222      0.0417
     67  CZ        10.1030   18.7460    5.3230 C.ar  222  TYR222      0.1957
     68  OH         9.9500   20.0220    5.7450 O.3   222  TYR222     -0.2866
     69  N         12.9410   13.1120    2.2950 N.am  223  PRO223     -0.2729
     70  CA        13.9420   14.0890    2.7580 C.3   223  PRO223      0.1401
     71  C         14.3000   15.1580    1.7500 C.2   223  PRO223      0.2269
     72  O         15.0300   16.0160    2.1370 O.2   223  PRO223     -0.2865
     73  CB        15.1610   13.1900    3.1270 C.3   223  PRO223      0.0296
     74  CG        15.0030   12.0110    2.2000 C.3   223  PRO223      0.0237
     75  CD        13.5240   11.7550    2.1130 C.3   223  PRO223      0.0939
     76  N         14.6000   18.8100    2.5750 N.3   226  MET226     -0.1230
     77  CA        15.6280   19.3120    3.5130 C.3   226  MET226      0.1702
     78  C         16.9300   19.6950    2.8530 C.2   226  MET226      0.2592
     79  O         17.7210   20.3370    3.5030 O.2   226  MET226     -0.2718
     80  CB        16.0030   18.3310    4.6280 C.3   226  MET226      0.0401
     81  CG        14.8680   17.6400    5.3220 C.3   226  MET226      0.0596
     82  SD        15.5800   15.9810    5.7350 S.3   226  MET226     -0.1393
     83  CE        17.2740   16.0200    5.6470 C.3   226  MET226      0.0692
     84  N         17.1320   19.2900    1.5850 N.am  227  PHE227     -0.1976
     85  CA        18.4590   19.3810    0.9810 C.3   227  PHE227      0.1639
     86  C         18.8830   20.8740    0.8410 C.2   227  PHE227      0.2290
     87  O         19.9480   21.2580    1.3370 O.2   227  PHE227     -0.2864
     88  CB        18.5120   18.6810   -0.3450 C.3   227  PHE227      0.0560
     89  CG        18.2870   17.2110   -0.3060 C.ar  227  PHE227     -0.0200
     90  CD1       18.3150   16.4210    0.8280 C.ar  227  PHE227     -0.0042
     91  CD2       18.0880   16.5630   -1.5120 C.ar  227  PHE227     -0.0042
     92  CE1       18.0820   15.0420    0.7070 C.ar  227  PHE227     -0.0003
     93  CE2       17.9230   15.2170   -1.6530 C.ar  227  PHE227     -0.0003
     94  CZ        17.8940   14.4590   -0.5590 C.ar  227  PHE227     -0.0000
     95  N         19.4660   22.8070    3.9800 N.3   230  GLN230     -0.1245
     96  CA        20.7320   22.5370    4.6430 C.3   230  GLN230      0.1566
     97  C         21.9250   23.3180    4.0610 C.2   230  GLN230      0.2260
     98  O         22.8220   23.7510    4.8400 O.2   230  GLN230     -0.2867
     99  CB        21.0140   21.0160    4.5830 C.3   230  GLN230      0.0367
    100  CG        20.4750   20.1530    5.4630 C.3   230  GLN230      0.0905
    101  CD        21.1530   18.8180    5.5370 C.2   230  GLN230      0.2608
    102  OE1       20.6090   18.0730    6.2880 O.2   230  GLN230     -0.2717
    103  NE2       22.3310   18.5450    4.9010 N.am  230  GLN230     -0.0878
@<TRIPOS>BOND
     1    40    38    1
     2     9     7   ar
     3    34    35    1
     4    35    38    1
     5    35    36    1
     6    93    91   ar
     7    93    94   ar
     8    91    89   ar
     9    38    39    1
    10    56    54    1
    11     8     7   ar
    12     7     6    1
    13    49    50    1
    14    25    23    1
    15    23    22    1
    16    23    24    1
    17    37    36    2
    18    36    41   am
    19    94    92   ar
    20    50    53    1
    21    50    51    1
    22    26    27    1
    23    54    53    1
    24    54    55    1
    25    88    89    1
    26    88    85    1
    27    89    90   ar
    28    22    19    1
    29    19    20    1
    30    19    18    1
    31    20    21    2
    32     6     5    1
    33    13    12    2
    34     5     2    1
    35    41    42    1
    36    51    52    2
    37    27    28    1
    38    27    30    1
    39    92    90   ar
    40    86    85    1
    41    86    87    2
    42    28    29    2
    43    85    84    1
    44    18    12   am
    45    43    44    2
    46    43    42    1
    47    12    11    1
    48     4     3    2
    49    42    45    1
    50    84    78   am
    51     2     3    1
    52     2     1    1
    53    71    72    2
    54    71    70    1
    55     3    10   am
    56    33    31    1
    57    57    58    1
    58    60    59    2
    59    31    30    1
    60    31    32    1
    61    75    74    1
    62    75    69    1
    63    74    73    1
    64    59    69   am
    65    59    58    1
    66    69    70    1
    67    10    11    1
    68    58    61    1
    69    11    14    1
    70    76    77    1
    71    45    46    1
    72    70    73    1
    73    78    79    2
    74    78    77    1
    75    77    80    1
    76    14    15    1
    77    16    15    2
    78    95    96    1
    79    46    47   ar
    80    46    48   ar
    81    97    96    1
    82    97    98    2
    83    61    62    1
    84    15    17   am
    85    63    62   ar
    86    63    65   ar
    87    62    64   ar
    88    99    96    1
    89    99   100    1
    90    80    81    1
    91    65    67   ar
    92   103   101   am
    93    64    66   ar
    94    81    82    1
    95    67    66   ar
    96    67    68    1
    97   100   101    1
    98   101   102    2
    99    83    82    1
