@<TRIPOS>MOLECULE
tmp/6equA00.pdb
 217 209 0 0 0
SMALL
GASTEIGER

@<TRIPOS>ATOM
      1  N          5.6670    9.9420    8.7430 N.3     1  GLY1       -0.1225
      2  CA         6.0750    8.5170    8.8980 C.3     1  GLY1        0.1811
      3  C          6.6450    7.9340    7.6170 C.2     1  GLY1        0.2280
      4  O          6.5340    6.7300    7.3790 O.2     1  GLY1       -0.2866
      5  N          9.1990    5.2100    8.5800 N.3     4  HIS4       -0.1241
      6  CA         8.8130    4.0800    9.4320 C.3     4  HIS4        0.1621
      7  C          9.1080    2.7980    8.6470 C.2     4  HIS4        0.2264
      8  O          8.9710    2.7790    7.4170 O.2     4  HIS4       -0.2867
      9  CB         7.3080    4.1170    9.7320 C.3     4  HIS4        0.0745
     10  CG         6.9040    5.1340   10.7540 C.ar    4  HIS4        0.0817
     11  ND1        5.6120    5.2280   11.2330 N.ar    4  HIS4       -0.2268
     12  CD2        7.6140    6.0960   11.3940 C.ar    4  HIS4        0.1154
     13  CE1        5.5460    6.2030   12.1240 C.ar    4  HIS4        0.1986
     14  NE2        6.7450    6.7450   12.2390 N.ar    4  HIS4       -0.2212
     15  N          8.4040   -0.3700   10.4820 N.3     6  TRP6       -0.1241
     16  CA         7.8350   -1.4080   11.3210 C.3     6  TRP6        0.1605
     17  C          6.8090   -2.2010   10.5330 C.2     6  TRP6        0.2264
     18  O          6.2510   -1.7250    9.5250 O.2     6  TRP6       -0.2867
     19  CB         7.1750   -0.7940   12.5760 C.3     6  TRP6        0.0550
     20  CG         6.0090    0.1000   12.2520 C.ar    6  TRP6        0.0003
     21  CD1        6.0360    1.4370   11.9510 C.ar    6  TRP6        0.0946
     22  CD2        4.6430   -0.3100   12.1450 C.ar    6  TRP6        0.0152
     23  NE1        4.7580    1.8780   11.6550 N.ar    6  TRP6       -0.2442
     24  CE2        3.8890    0.8250   11.7720 C.ar    6  TRP6        0.0810
     25  CE3        3.9880   -1.5330   12.3300 C.ar    6  TRP6        0.0012
     26  CZ2        2.4990    0.7700   11.5790 C.ar    6  TRP6        0.0191
     27  CZ3        2.6190   -1.5870   12.1350 C.ar    6  TRP6        0.0001
     28  CH2        1.8900   -0.4410   11.7640 C.ar    6  TRP6        0.0015
     29  N         -8.9730    2.0420    1.9630 N.3    61  LEU61      -0.1245
     30  CA        -7.5560    2.0860    1.6290 C.3    61  LEU61       0.1561
     31  C         -6.7160    0.9520    2.2060 C.2    61  LEU61       0.2260
     32  O         -6.8770    0.5930    3.3670 O.2    61  LEU61      -0.2867
     33  CB        -6.9750    3.4180    2.1570 C.3    61  LEU61       0.0270
     34  CG        -5.4510    3.5830    2.2060 C.3    61  LEU61       0.0019
     35  CD1       -4.9480    3.8230    0.7960 C.3    61  LEU61       0.0001
     36  CD2       -5.0570    4.7550    3.1060 C.3    61  LEU61       0.0001
     37  N         -3.3490    0.3680    3.4860 N.3    63  ASN63      -0.1240
     38  CA        -2.2030    1.2030    3.8590 C.3    63  ASN63       0.1653
     39  C         -0.9160    0.4410    4.1170 C.2    63  ASN63       0.2266
     40  O          0.0560    1.0160    4.6380 O.2    63  ASN63      -0.2867
     41  CB        -2.5230    2.0750    5.0880 C.3    63  ASN63       0.1155
     42  CG        -2.7620    1.2510    6.3560 C.2    63  ASN63       0.2627
     43  OD1       -2.5450    0.0430    6.3760 O.2    63  ASN63      -0.2716
     44  ND2       -3.1900    1.9170    7.4150 N.am   63  ASN63      -0.0877
     45  N         -0.5680   -2.1890    6.1650 N.3    65  HIS65      -0.1226
     46  CA        -0.6170   -3.0200    7.3730 C.3    65  HIS65       0.1752
     47  C         -2.0530   -3.4100    7.7540 C.2    65  HIS65       0.2595
     48  O         -2.2690   -4.2370    8.6410 O.2    65  HIS65      -0.2718
     49  CB         0.1460   -2.3800    8.5470 C.3    65  HIS65       0.0759
     50  CG        -0.3350   -1.0190    8.9270 C.ar   65  HIS65       0.0818
     51  ND1       -1.4450   -0.8150    9.7180 N.ar   65  HIS65      -0.2268
     52  CD2        0.1610    0.2100    8.6480 C.ar   65  HIS65       0.1154
     53  CE1       -1.6100    0.4810    9.9130 C.ar   65  HIS65       0.1986
     54  NE2       -0.6510    1.1250    9.2740 N.ar   65  HIS65      -0.2212
     55  N         -3.0300   -2.8010    7.0870 N.am   66  ALA66      -0.1980
     56  CA        -4.4340   -3.1860    7.2420 C.3    66  ALA66       0.1597
     57  C         -5.2050   -2.4260    6.1700 C.2    66  ALA66       0.2287
     58  O         -4.5810   -1.8100    5.3070 O.2    66  ALA66      -0.2864
     59  CB        -4.9370   -2.8070    8.6510 C.3    66  ALA66       0.0319
     60  N         -8.3150    0.4630    5.7030 N.3    68  ASN68      -0.1240
     61  CA        -9.1790    1.3600    6.4570 C.3    68  ASN68       0.1653
     62  C        -10.3880    1.8180    5.6640 C.2    68  ASN68       0.2266
     63  O        -10.2540    2.1780    4.4980 O.2    68  ASN68      -0.2867
     64  CB        -8.4380    2.6460    6.8740 C.3    68  ASN68       0.1155
     65  CG        -7.1640    2.3850    7.6340 C.2    68  ASN68       0.2627
     66  OD1       -7.0840    1.4690    8.4410 O.2    68  ASN68      -0.2716
     67  ND2       -6.1440    3.2200    7.3880 N.am   68  ASN68      -0.0877
     68  N        -12.6080    6.3020   11.1830 N.3    93  GLN93      -0.1245
     69  CA       -12.3170    5.1510   10.3340 C.3    93  GLN93       0.1566
     70  C        -12.4780    3.8650   11.1140 C.2    93  GLN93       0.2260
     71  O        -12.6170    3.8780   12.3320 O.2    93  GLN93      -0.2867
     72  CB       -10.8560    5.1950    9.8160 C.3    93  GLN93       0.0367
     73  CG        -9.7860    5.3220   10.9340 C.3    93  GLN93       0.0905
     74  CD        -9.0290    4.0310   11.2660 C.2    93  GLN93       0.2608
     75  OE1       -9.5660    2.9220   11.1670 O.2    93  GLN93      -0.2717
     76  NE2       -7.7710    4.1860   11.7130 N.am   93  GLN93      -0.0878
     77  N        -11.0580   -0.4380   10.8510 N.3    95  HIS95      -0.1241
     78  CA       -10.1590   -1.3750   10.1950 C.3    95  HIS95       0.1621
     79  C        -10.2170   -2.6410   11.0150 C.2    95  HIS95       0.2264
     80  O        -10.8850   -2.6800   12.0620 O.2    95  HIS95      -0.2867
     81  CB        -8.7210   -0.8630   10.1840 C.3    95  HIS95       0.0745
     82  CG        -8.1730   -0.5960   11.5530 C.ar   95  HIS95       0.0817
     83  ND1       -8.3990    0.5830   12.2330 N.ar   95  HIS95      -0.2268
     84  CD2       -7.4990   -1.3980   12.4060 C.ar   95  HIS95       0.1154
     85  CE1       -7.8930    0.4880   13.4500 C.ar   95  HIS95       0.1986
     86  NE2       -7.3400   -0.7060   13.5790 N.ar   95  HIS95      -0.2212
     87  N         -7.9010   -6.4210   12.3030 N.3    97  HIS97      -0.1241
     88  CA        -6.6420   -7.1260   12.5280 C.3    97  HIS97       0.1621
     89  C         -7.0920   -8.5860   12.4040 C.2    97  HIS97       0.2264
     90  O         -8.1410   -8.9490   12.9290 O.2    97  HIS97      -0.2867
     91  CB        -6.1030   -6.8910   13.9390 C.3    97  HIS97       0.0745
     92  CG        -5.8000   -5.4590   14.2270 C.ar   97  HIS97       0.0817
     93  ND1       -4.5440   -4.9140   14.0440 N.ar   97  HIS97      -0.2268
     94  CD2       -6.5970   -4.4500   14.6460 C.ar   97  HIS97       0.1154
     95  CE1       -4.5840   -3.6240   14.3470 C.ar   97  HIS97       0.1986
     96  NE2       -5.8200   -3.3170   14.7040 N.ar   97  HIS97      -0.2212
     97  N        -11.8880   -2.5820   14.7330 N.3   120  HIS120     -0.1241
     98  CA       -11.6660   -1.3770   15.5170 C.3   120  HIS120      0.1621
     99  C        -12.3290   -0.2010   14.8360 C.2   120  HIS120      0.2264
    100  O        -11.9590    0.1590   13.7080 O.2   120  HIS120     -0.2867
    101  CB       -10.1660   -1.0870   15.6510 C.3   120  HIS120      0.0745
    102  CG        -9.4610   -2.0590   16.5410 C.ar  120  HIS120      0.0817
    103  ND1       -8.0930   -2.2620   16.5080 N.ar  120  HIS120     -0.2268
    104  CD2       -9.9450   -2.8980   17.4870 C.ar  120  HIS120      0.1154
    105  CE1       -7.7690   -3.1880   17.3920 C.ar  120  HIS120      0.1986
    106  NE2       -8.8740   -3.5900   18.0000 N.ar  120  HIS120     -0.2212
    107  N        -12.6440    3.5410   15.1270 N.3   122  VAL122     -0.1245
    108  CA       -11.8560    4.5950   15.7640 C.3   122  VAL122      0.1561
    109  C        -12.5660    5.9370   15.8130 C.2   122  VAL122      0.2260
    110  O        -13.0220    6.4330   14.7810 O.2   122  VAL122     -0.2867
    111  CB       -10.5060    4.7170   15.0010 C.3   122  VAL122      0.0252
    112  CG1       -9.5740    5.7090   15.6990 C.3   122  VAL122      0.0019
    113  CG2       -9.8600    3.3330   14.8760 C.3   122  VAL122      0.0019
    114  N         -8.2590   14.8270   14.6580 N.3   131  PHE131     -0.1227
    115  CA        -7.6060   13.5820   15.0330 C.3   131  PHE131      0.1736
    116  C         -6.1560   13.7420   15.4510 C.2   131  PHE131      0.2596
    117  O         -5.7300   13.1420   16.4450 O.2   131  PHE131     -0.2718
    118  CB        -7.7120   12.5820   13.8820 C.3   131  PHE131      0.0547
    119  CG        -7.1990   11.2160   14.2100 C.ar  131  PHE131     -0.0202
    120  CD1       -7.9940   10.3130   14.9090 C.ar  131  PHE131     -0.0042
    121  CD2       -5.9100   10.8340   13.8530 C.ar  131  PHE131     -0.0042
    122  CE1       -7.5140    9.0500   15.2500 C.ar  131  PHE131     -0.0003
    123  CE2       -5.4240    9.5770   14.1880 C.ar  131  PHE131     -0.0003
    124  CZ        -6.2240    8.6800   14.8890 C.ar  131  PHE131     -0.0000
    125  N         -5.3970   14.5350   14.6880 N.am  132  GLY132     -0.1957
    126  CA        -3.9900   14.7380   14.9940 C.3   132  GLY132      0.1869
    127  C         -3.7190   15.3090   16.3640 C.2   132  GLY132      0.2309
    128  O         -2.7170   14.9660   17.0110 O.2   132  GLY132     -0.2863
    129  N         -4.7500   12.5360   19.3270 N.3   135  VAL135     -0.1245
    130  CA        -3.8440   11.4440   19.7070 C.3   135  VAL135      0.1561
    131  C         -2.7570   11.8800   20.6880 C.2   135  VAL135      0.2260
    132  O         -2.0780   11.0410   21.2670 O.2   135  VAL135     -0.2867
    133  CB        -3.1920   10.7190   18.4710 C.3   135  VAL135      0.0252
    134  CG1       -4.2850   10.1250   17.5830 C.3   135  VAL135      0.0019
    135  CG2       -2.2890   11.6640   17.6840 C.3   135  VAL135      0.0019
    136  N         -8.8610    9.5310   22.1860 N.3   141  LEU141     -0.1245
    137  CA        -9.5700    8.6070   21.3110 C.3   141  LEU141      0.1561
    138  C        -10.4160    7.6130   22.0660 C.2   141  LEU141      0.2260
    139  O        -10.1710    7.3540   23.2370 O.2   141  LEU141     -0.2867
    140  CB        -8.5610    7.7990   20.4620 C.3   141  LEU141      0.0270
    141  CG        -7.5620    8.4150   19.4790 C.3   141  LEU141      0.0019
    142  CD1       -7.0490    7.2950   18.5830 C.3   141  LEU141      0.0001
    143  CD2       -8.1660    9.5160   18.6310 C.3   141  LEU141      0.0001
    144  N        -11.7510    3.7880   21.0520 N.3   143  VAL143     -0.1245
    145  CA       -11.8090    2.7790   20.0100 C.3   143  VAL143      0.1561
    146  C        -12.7560    1.6780   20.4730 C.2   143  VAL143      0.2260
    147  O        -12.6190    1.1540   21.5920 O.2   143  VAL143     -0.2867
    148  CB       -10.4390    2.1640   19.6840 C.3   143  VAL143      0.0252
    149  CG1      -10.5830    1.1740   18.5190 C.3   143  VAL143      0.0019
    150  CG2       -9.4920    3.2490   19.2560 C.3   143  VAL143      0.0019
    151  N         -0.4780   -2.4200   -1.0830 N.3   170  LYS170     -0.1245
    152  CA        -0.1910   -1.1990   -0.3390 C.3   170  LYS170      0.1561
    153  C         -0.3420    0.0640   -1.2010 C.2   170  LYS170      0.2260
    154  O          0.1630    0.1180   -2.3270 O.2   170  LYS170     -0.2867
    155  CB         1.2350   -1.2880    0.2330 C.3   170  LYS170      0.0271
    156  CG         1.6460   -0.0810    1.0990 C.3   170  LYS170      0.0035
    157  CD         3.0190   -0.2840    1.7350 C.3   170  LYS170      0.0206
    158  CE         3.3610    0.8910    2.6400 C.3   170  LYS170      0.1093
    159  NZ         4.7140    0.7550    3.2590 N.3   170  LYS170     -0.1314
    160  N         -2.7760    3.1240   21.2150 N.3   198  LEU198     -0.1231
    161  CA        -2.9180    2.6800   19.8380 C.3   198  LEU198      0.1693
    162  C         -2.1620    1.3390   19.8630 C.2   198  LEU198      0.2593
    163  O         -1.1300    1.1920   20.5550 O.2   198  LEU198     -0.2718
    164  CB        -2.1690    3.6340   18.9130 C.3   198  LEU198      0.0284
    165  CG        -2.5680    5.0980   18.9260 C.3   198  LEU198      0.0019
    166  CD1       -1.7370    5.8500   17.9070 C.3   198  LEU198      0.0001
    167  CD2       -4.0570    5.2490   18.6090 C.3   198  LEU198      0.0001
    168  N         -2.6070    0.3650   19.0730 N.am  199  THR199     -0.1939
    169  CA        -1.9250   -0.9320   19.0520 C.3   199  THR199      0.2028
    170  C         -0.8750   -1.0450   17.9430 C.2   199  THR199      0.2643
    171  O         -0.3190   -2.1220   17.7440 O.2   199  THR199     -0.2714
    172  CB        -2.8990   -2.0810   18.8660 C.3   199  THR199      0.1808
    173  OG1       -3.5320   -1.9630   17.5930 O.3   199  THR199     -0.2208
    174  CG2       -3.9370   -2.0750   19.9790 C.3   199  THR199      0.0379
    175  N         -0.6780    0.0230   17.1730 N.am  200  THR200     -0.1937
    176  CA         0.3930    0.0270   16.1680 C.3   200  THR200      0.2013
    177  C          1.1640    1.3140   16.4340 C.2   200  THR200      0.2484
    178  O          0.6580    2.2480   17.0770 O.2   200  THR200     -0.2729
    179  CB        -0.1050    0.1630   14.7100 C.3   200  THR200      0.1807
    180  OG1       -0.7390    1.4340   14.5370 O.3   200  THR200     -0.2208
    181  CG2       -1.0770   -0.9240   14.3400 C.3   200  THR200      0.0379
    182  N          2.4090    1.3820   15.9570 N.am  201  PRO201     -0.2715
    183  CA         3.1920    2.6010   16.1440 C.3   201  PRO201      0.1521
    184  C          2.3120    3.7320   15.6080 C.2   201  PRO201      0.2440
    185  O          1.6100    3.5590   14.6040 O.2   201  PRO201     -0.2731
    186  CB         4.3970    2.3540   15.2330 C.3   201  PRO201      0.0310
    187  CG         4.6230    0.9010   15.3680 C.3   201  PRO201      0.0237
    188  CD         3.2150    0.3030   15.3580 C.3   201  PRO201      0.0939
    189  N          2.4040    4.9380   16.1890 N.am  202  PRO202     -0.2727
    190  CA         3.2610    5.3700   17.2990 C.3   202  PRO202      0.1402
    191  C          2.9270    4.8960   18.7260 C.2   202  PRO202      0.2269
    192  O          3.5550    5.3500   19.6900 O.2   202  PRO202     -0.2865
    193  CB         3.2460    6.8870   17.1420 C.3   202  PRO202      0.0296
    194  CG         1.8350    7.1410   16.6790 C.3   202  PRO202      0.0237
    195  CD         1.6340    6.0760   15.6420 C.3   202  PRO202      0.0939
    196  N          0.7510    5.5650   20.8160 N.3   204  LEU204     -0.1245
    197  CA         0.4200    6.6320   21.7600 C.3   204  LEU204      0.1561
    198  C         -0.6250    6.2000   22.7990 C.2   204  LEU204      0.2260
    199  O         -1.5950    5.4980   22.4810 O.2   204  LEU204     -0.2867
    200  CB        -0.0650    7.8760   21.0040 C.3   204  LEU204      0.0270
    201  CG         0.9970    8.4180   20.0190 C.3   204  LEU204      0.0019
    202  CD1        0.4290    9.5060   19.1130 C.3   204  LEU204      0.0001
    203  CD2        2.1720    8.9670   20.8320 C.3   204  LEU204      0.0001
    204  N        -10.3230    2.3080   25.6470 N.3   209  TRP209     -0.1241
    205  CA       -10.7690    1.1240   24.9340 C.3   209  TRP209      0.1605
    206  C        -12.1260    0.6450   25.4310 C.2   209  TRP209      0.2264
    207  O        -12.3680    0.5800   26.6280 O.2   209  TRP209     -0.2867
    208  CB        -9.7590   -0.0250   25.1010 C.3   209  TRP209      0.0550
    209  CG        -8.6520    0.0660   24.1170 C.ar  209  TRP209      0.0003
    210  CD1       -7.4240    0.6740   24.2850 C.ar  209  TRP209      0.0946
    211  CD2       -8.7200   -0.3370   22.7530 C.ar  209  TRP209      0.0152
    212  NE1       -6.7520    0.6770   23.0940 N.ar  209  TRP209     -0.2442
    213  CE2       -7.5150    0.0550   22.1410 C.ar  209  TRP209      0.0810
    214  CE3       -9.6950   -0.9990   21.9870 C.ar  209  TRP209      0.0012
    215  CZ2       -7.2480   -0.1920   20.8030 C.ar  209  TRP209      0.0191
    216  CZ3       -9.4310   -1.2510   20.6450 C.ar  209  TRP209      0.0001
    217  CH2       -8.2160   -0.8470   20.0690 C.ar  209  TRP209      0.0015
@<TRIPOS>BOND
     1   154   153    2
     2   153   152    1
     3   151   152    1
     4   152   155    1
     5   155   156    1
     6    35    34    1
     7   156   157    1
     8    30    29    1
     9    30    33    1
    10    30    31    1
    11   157   158    1
    12    33    34    1
    13    31    32    2
    14    34    36    1
    15   158   159    1
    16    37    38    1
    17    38    39    1
    18    38    41    1
    19    39    40    2
    20    63    62    2
    21    41    42    1
    22    58    57    2
    23    62    61    1
    24    60    61    1
    25    45    46    1
    26    57    56    1
    27    42    43    2
    28    42    44   am
    29    61    64    1
    30    64    65    1
    31    55    56    1
    32    55    47   am
    33    56    59    1
    34    46    47    1
    35    46    49    1
    36     4     3    2
    37    67    65   am
    38     8     7    2
    39     3     2    1
    40    65    66    2
    41    47    48    2
    42    49    50    1
    43     5     6    1
    44     7     6    1
    45    52    50   ar
    46    52    54   ar
    47     1     2    1
    48    50    51   ar
    49    54    53   ar
    50     6     9    1
    51    18    17    2
    52    51    53   ar
    53     9    10    1
    54    72    69    1
    55    72    73    1
    56    81    78    1
    57    81    82    1
    58    78    77    1
    59    78    79    1
    60    69    70    1
    61    69    68    1
    62    15    16    1
    63    17    16    1
    64    10    11   ar
    65    10    12   ar
    66    73    74    1
    67    79    80    2
    68    70    71    2
    69    75    74    2
    70    11    13   ar
    71    74    76   am
    72    16    19    1
    73    12    14   ar
    74    82    83   ar
    75    82    84   ar
    76    26    28   ar
    77    26    24   ar
    78    23    24   ar
    79    23    21   ar
    80    28    27   ar
    81    24    22   ar
    82    21    20   ar
    83    13    14   ar
    84    27    25   ar
    85    22    20   ar
    86    22    25   ar
    87    83    85   ar
    88    20    19    1
    89    87    88    1
    90    89    88    1
    91    89    90    2
    92    84    86   ar
    93    88    91    1
    94    85    86   ar
    95   100    99    2
    96   121   123   ar
    97   121   119   ar
    98   118   119    1
    99   118   115    1
   100    91    92    1
   101    93    92   ar
   102    93    95   ar
   103   123   124   ar
   104   119   120   ar
   105    92    94   ar
   106   181   179    1
   107    95    96   ar
   108   180   179    1
   109   185   184    2
   110    94    96   ar
   111   114   115    1
   112   125   126    1
   113   125   116   am
   114   179   176    1
   115    97    98    1
   116   110   109    2
   117    99    98    1
   118   113   111    1
   119   124   122   ar
   120   120   122   ar
   121   126   127    1
   122   111   112    1
   123   111   108    1
   124   115   116    1
   125   107   108    1
   126   186   187    1
   127   186   183    1
   128   188   187    1
   129   188   182    1
   130   116   117    2
   131    98   101    1
   132   184   183    1
   133   184   189   am
   134   195   189    1
   135   195   194    1
   136   101   102    1
   137   108   109    1
   138   182   183    1
   139   182   177   am
   140   176   177    1
   141   176   175    1
   142   189   190    1
   143   127   128    2
   144   177   178    2
   145   103   102   ar
   146   103   105   ar
   147   102   104   ar
   148   194   193    1
   149   193   190    1
   150   175   170   am
   151   190   191    1
   152   105   106   ar
   153   104   106   ar
   154   134   133    1
   155   173   172    1
   156   135   133    1
   157   171   170    2
   158   166   165    1
   159   170   169    1
   160   133   130    1
   161   149   148    1
   162   142   141    1
   163   167   165    1
   164   143   141    1
   165   191   192    2
   166   172   169    1
   167   172   174    1
   168   164   165    1
   169   164   161    1
   170   169   168    1
   171   168   162   am
   172   202   201    1
   173   150   148    1
   174   129   130    1
   175   141   140    1
   176   148   145    1
   177   130   131    1
   178   161   162    1
   179   161   160    1
   180   162   163    2
   181   145   146    1
   182   145   144    1
   183   201   203    1
   184   201   200    1
   185   217   216   ar
   186   217   215   ar
   187   140   137    1
   188   146   147    2
   189   216   214   ar
   190   131   132    2
   191   215   213   ar
   192   196   197    1
   193   200   197    1
   194   137   138    1
   195   137   136    1
   196   197   198    1
   197   214   211   ar
   198   138   139    2
   199   213   211   ar
   200   213   212   ar
   201   199   198    2
   202   211   209   ar
   203   212   210   ar
   204   209   210   ar
   205   209   208    1
   206   205   208    1
   207   205   206    1
   208   205   204    1
   209   206   207    2
