@<TRIPOS>MOLECULE
tmp/6eqvA00.pdb
 208 202 0 0 0
SMALL
GASTEIGER

@<TRIPOS>ATOM
      1  N         44.1780  -29.3280  -12.6200 N.3    46  ASP46      -0.1239
      2  CA        45.2310  -28.8710  -13.5200 C.3    46  ASP46       0.1674
      3  C         44.7520  -27.7910  -14.4880 C.2    46  ASP46       0.2266
      4  O         45.4340  -27.5140  -15.4850 O.2    46  ASP46      -0.2867
      5  CB        45.8490  -30.0580  -14.2780 C.3    46  ASP46       0.1410
      6  CG        44.8350  -30.8570  -15.0840 C.2    46  ASP46       0.3668
      7  OD1       43.6920  -30.3920  -15.2820 O.co2  46  ASP46      -0.2456
      8  OD2       45.2020  -31.9670  -15.5390 O.co2  46  ASP46      -0.2456
      9  N         48.3190  -33.8650  -21.0340 N.3    83  ASP83      -0.1225
     10  CA        48.4490  -34.1340  -19.6000 C.3    83  ASP83       0.1805
     11  C         47.4360  -33.3570  -18.7710 C.2    83  ASP83       0.2597
     12  O         46.9980  -33.8380  -17.7190 O.2    83  ASP83      -0.2718
     13  CB        49.8460  -33.7700  -19.1020 C.3    83  ASP83       0.1424
     14  CG        50.9410  -34.2900  -19.9900 C.2    83  ASP83       0.3668
     15  OD1       51.2880  -35.4820  -19.8570 O.co2  83  ASP83      -0.2456
     16  OD2       51.4540  -33.5000  -20.8170 O.co2  83  ASP83      -0.2456
     17  N         47.0790  -32.1500  -19.1990 N.am   84  ASN84      -0.1974
     18  CA        46.2740  -31.2460  -18.3820 C.3    84  ASN84       0.1688
     19  C         44.8010  -31.2710  -18.7650 C.2    84  ASN84       0.2292
     20  O         44.1190  -30.2480  -18.7250 O.2    84  ASN84      -0.2864
     21  CB        46.8420  -29.8380  -18.4650 C.3    84  ASN84       0.1181
     22  CG        48.2340  -29.7580  -17.8900 C.2    84  ASN84       0.2629
     23  OD1       48.4600  -30.1580  -16.7490 O.2    84  ASN84      -0.2716
     24  ND2       49.1860  -29.2790  -18.6890 N.am   84  ASN84      -0.0877
     25  N         42.6840  -33.2290  -17.1070 N.3    86  HIS86      -0.1241
     26  CA        42.0120  -33.8480  -15.9700 C.3    86  HIS86       0.1621
     27  C         40.9690  -32.9150  -15.3650 C.2    86  HIS86       0.2264
     28  O         39.8280  -33.3240  -15.0980 O.2    86  HIS86      -0.2867
     29  CB        43.0790  -34.2520  -14.9480 C.3    86  HIS86       0.0745
     30  CG        42.5780  -35.0940  -13.8190 C.ar   86  HIS86       0.0817
     31  ND1       42.3760  -34.5880  -12.5540 N.ar   86  HIS86      -0.2268
     32  CD2       42.2930  -36.4170  -13.7450 C.ar   86  HIS86       0.1154
     33  CE1       41.9510  -35.5520  -11.7550 C.ar   86  HIS86       0.1986
     34  NE2       41.9010  -36.6740  -12.4500 N.ar   86  HIS86      -0.2212
     35  N         47.5690  -27.9750   -9.9740 N.3   119  LEU119     -0.1231
     36  CA        48.3600  -29.2020  -10.0080 C.3   119  LEU119      0.1693
     37  C         49.5090  -29.1570  -11.0060 C.2   119  LEU119      0.2592
     38  O         50.3900  -30.0260  -10.9540 O.2   119  LEU119     -0.2718
     39  CB        47.4820  -30.4040  -10.3540 C.3   119  LEU119      0.0284
     40  CG        46.4260  -30.8240   -9.3400 C.3   119  LEU119      0.0019
     41  CD1       45.6450  -32.0150   -9.8990 C.3   119  LEU119      0.0001
     42  CD2       47.0920  -31.1680   -8.0160 C.3   119  LEU119      0.0001
     43  N         49.5130  -28.1890  -11.9190 N.am  120  ASP120     -0.1974
     44  CA        50.4910  -28.1630  -13.0130 C.3   120  ASP120      0.1709
     45  C         51.7110  -27.3580  -12.5650 C.2   120  ASP120      0.2293
     46  O         51.9790  -26.2490  -13.0210 O.2   120  ASP120     -0.2864
     47  CB        49.8540  -27.5920  -14.2720 C.3   120  ASP120      0.1436
     48  CG        50.7270  -27.7890  -15.5170 C.2   120  ASP120      0.3671
     49  OD1       51.7070  -28.5560  -15.4610 O.co2 120  ASP120     -0.2456
     50  OD2       50.4180  -27.1700  -16.5450 O.co2 120  ASP120     -0.2456
     51  N         53.2910  -28.6790   -6.1360 N.3   123  VAL123     -0.1245
     52  CA        52.1000  -28.5090   -5.3040 C.3   123  VAL123      0.1561
     53  C         52.5860  -28.4220   -3.8600 C.2   123  VAL123      0.2260
     54  O         52.6710  -29.4200   -3.1410 O.2   123  VAL123     -0.2867
     55  CB        51.0850  -29.6280   -5.5160 C.3   123  VAL123      0.0252
     56  CG1       49.8350  -29.3390   -4.6880 C.3   123  VAL123      0.0019
     57  CG2       50.7270  -29.7410   -7.0070 C.3   123  VAL123      0.0019
     58  N         48.3160  -25.4050   -2.0700 N.3   128  GLU128     -0.1245
     59  CA        47.0560  -26.0190   -1.6620 C.3   128  GLU128      0.1567
     60  C         46.2090  -25.0350   -0.8680 C.2   128  GLU128      0.2260
     61  O         44.9940  -24.9320   -1.0780 O.2   128  GLU128     -0.2867
     62  CB        47.3190  -27.2750   -0.8290 C.3   128  GLU128      0.0388
     63  CG        48.0830  -28.3500   -1.5500 C.3   128  GLU128      0.1160
     64  CD        48.3640  -29.5540   -0.6740 C.2   128  GLU128      0.3649
     65  OE1       47.9860  -29.5450    0.5260 O.co2 128  GLU128     -0.2457
     66  OE2       48.9620  -30.5130   -1.2020 O.co2 128  GLU128     -0.2457
     67  N         40.0170  -33.8920   -7.0070 N.3   145  SER145     -0.1202
     68  CA        40.3090  -35.2440   -7.4920 C.3   145  SER145      0.2020
     69  C         41.8110  -35.4770   -7.5750 C.2   145  SER145      0.2619
     70  O         42.3600  -35.8380   -8.6180 O.2   145  SER145     -0.2717
     71  CB        39.6400  -35.4740   -8.8410 C.3   145  SER145      0.2103
     72  OG        38.2320  -35.5850   -8.6940 O.3   145  SER145     -0.2182
     73  N         42.4850  -35.2670   -6.4470 N.am  146  TRP146     -0.1961
     74  CA        43.9330  -35.3850   -6.3610 C.3   146  TRP146      0.1771
     75  C         44.2970  -35.5820   -4.9000 C.2   146  TRP146      0.2620
     76  O         43.4820  -35.3570   -4.0020 O.2   146  TRP146     -0.2715
     77  CB        44.6430  -34.1460   -6.9230 C.3   146  TRP146      0.0590
     78  CG        44.1890  -32.8490   -6.2910 C.ar  146  TRP146      0.0006
     79  CD1       43.2110  -32.0200   -6.7520 C.ar  146  TRP146      0.0946
     80  CD2       44.6970  -32.2370   -5.0900 C.ar  146  TRP146      0.0152
     81  NE1       43.0760  -30.9350   -5.9200 N.ar  146  TRP146     -0.2442
     82  CE2       43.9740  -31.0450   -4.8930 C.ar  146  TRP146      0.0810
     83  CE3       45.6870  -32.5870   -4.1630 C.ar  146  TRP146      0.0012
     84  CZ2       44.2020  -30.1980   -3.8010 C.ar  146  TRP146      0.0191
     85  CZ3       45.9230  -31.7430   -3.0920 C.ar  146  TRP146      0.0001
     86  CH2       45.1800  -30.5630   -2.9160 C.ar  146  TRP146      0.0015
     87  N         45.5370  -35.9930   -4.6690 N.am  147  GLY147     -0.1940
     88  CA        46.0310  -36.1080   -3.3190 C.3   147  GLY147      0.1998
     89  C         47.3920  -36.7660   -3.2640 C.2   147  GLY147      0.2481
     90  O         48.1050  -36.8650   -4.2740 O.2   147  GLY147     -0.2729
     91  N         47.7820  -37.2120   -2.0710 N.am  148  PRO148     -0.2715
     92  CA        49.0830  -37.8710   -1.9070 C.3   148  PRO148      0.1536
     93  C         49.1910  -39.1210   -2.7670 C.2   148  PRO148      0.2598
     94  O         48.1970  -39.7720   -3.0970 O.2   148  PRO148     -0.2715
     95  CB        49.1210  -38.2220   -0.4160 C.3   148  PRO148      0.0310
     96  CG        48.1630  -37.2510    0.2200 C.3   148  PRO148      0.0237
     97  CD        47.0910  -36.9990   -0.7870 C.3   148  PRO148      0.0939
     98  N         50.4340  -39.4630   -3.1050 N.am  149  GLU149     -0.1964
     99  CA        50.7100  -40.5960   -3.9820 C.3   149  GLU149      0.1733
    100  C         50.0480  -41.8670   -3.4610 C.2   149  GLU149      0.2616
    101  O         50.0690  -42.1490   -2.2610 O.2   149  GLU149     -0.2715
    102  CB        52.2290  -40.8020   -4.0960 C.3   149  GLU149      0.0429
    103  CG        52.6420  -41.7180   -5.2340 C.3   149  GLU149      0.1163
    104  CD        54.1410  -41.9300   -5.3150 C.2   149  GLU149      0.3649
    105  OE1       54.8780  -41.3200   -4.5130 O.co2 149  GLU149     -0.2457
    106  OE2       54.5790  -42.7140   -6.1840 O.co2 149  GLU149     -0.2457
    107  N         49.4530  -42.6360   -4.3710 N.am  150  ASP150     -0.1971
    108  CA        48.8100  -43.9000   -4.0090 C.3   150  ASP150      0.1709
    109  C         49.7710  -45.0770   -4.1400 C.2   150  ASP150      0.2293
    110  O         49.4340  -46.1030   -4.7250 O.2   150  ASP150     -0.2864
    111  CB        47.5740  -44.1270   -4.8690 C.3   150  ASP150      0.1436
    112  CG        46.4800  -43.1100   -4.6170 C.2   150  ASP150      0.3671
    113  OD1       46.3370  -42.6680   -3.4480 O.co2 150  ASP150     -0.2456
    114  OD2       45.7600  -42.7630   -5.5940 O.co2 150  ASP150     -0.2456
    115  N         50.4930  -39.2100    4.5620 N.3   156  ASP156     -0.1225
    116  CA        50.6850  -37.7950    4.2920 C.3   156  ASP156      0.1805
    117  C         49.3390  -37.1000    4.3320 C.2   156  ASP156      0.2598
    118  O         48.3180  -37.6820    3.9560 O.2   156  ASP156     -0.2718
    119  CB        51.3670  -37.5720    2.9340 C.3   156  ASP156      0.1424
    120  CG        52.0110  -36.1930    2.8160 C.2   156  ASP156      0.3668
    121  OD1       52.1720  -35.5090    3.8480 O.co2 156  ASP156     -0.2456
    122  OD2       52.3610  -35.8010    1.6860 O.co2 156  ASP156     -0.2456
    123  N         49.3460  -35.8600    4.8030 N.am  157  GLY157     -0.1957
    124  CA        48.1430  -35.0710    4.8810 C.3   157  GLY157      0.1869
    125  C         48.4570  -33.6010    4.7310 C.2   157  GLY157      0.2309
    126  O         49.5980  -33.2070    4.4590 O.2   157  GLY157     -0.2863
    127  N         49.6040  -29.9800    5.3140 N.3   159  ALA159     -0.1245
    128  CA        50.5220  -29.3020    6.2230 C.3   159  ALA159      0.1562
    129  C         49.8080  -28.0800    6.8030 C.2   159  ALA159      0.2260
    130  O         48.5900  -27.9300    6.6750 O.2   159  ALA159     -0.2867
    131  CB        51.8190  -28.9400    5.5040 C.3   159  ALA159      0.0290
    132  N         36.1990  -34.6670   -1.6620 N.3   183  TRP183     -0.1227
    133  CA        37.4890  -35.2730   -1.9750 C.3   183  TRP183      0.1737
    134  C         37.3120  -36.6570   -2.5830 C.2   183  TRP183      0.2595
    135  O         36.4710  -37.4420   -2.1330 O.2   183  TRP183     -0.2718
    136  CB        38.3980  -35.4020   -0.7330 C.3   183  TRP183      0.0564
    137  CG        39.8020  -34.9790   -1.0420 C.ar  183  TRP183      0.0003
    138  CD1       40.8110  -35.7500   -1.5590 C.ar  183  TRP183      0.0946
    139  CD2       40.3280  -33.6620   -0.9080 C.ar  183  TRP183      0.0152
    140  NE1       41.9440  -34.9870   -1.7300 N.ar  183  TRP183     -0.2442
    141  CE2       41.6670  -33.6980   -1.3470 C.ar  183  TRP183      0.0810
    142  CE3       39.7880  -32.4430   -0.4610 C.ar  183  TRP183      0.0012
    143  CZ2       42.4790  -32.5690   -1.3460 C.ar  183  TRP183      0.0191
    144  CZ3       40.5970  -31.3240   -0.4590 C.ar  183  TRP183      0.0001
    145  CH2       41.9270  -31.3930   -0.8980 C.ar  183  TRP183      0.0015
    146  N         38.1330  -36.9580   -3.5890 N.am  184  ALA184     -0.1966
    147  CA        38.1910  -38.3050   -4.1410 C.3   184  ALA184      0.1728
    148  C         39.0060  -39.1880   -3.2050 C.2   184  ALA184      0.2617
    149  O         40.1110  -38.8150   -2.8090 O.2   184  ALA184     -0.2715
    150  CB        38.8140  -38.2830   -5.5410 C.3   184  ALA184      0.0334
    151  N         38.4740  -40.3650   -2.8590 N.am  185  SER185     -0.1936
    152  CA        39.1230  -41.1520   -1.8100 C.3   185  SER185      0.2055
    153  C         40.4240  -41.8100   -2.2640 C.2   185  SER185      0.2644
    154  O         41.2300  -42.1920   -1.4110 O.2   185  SER185     -0.2714
    155  CB        38.1700  -42.2150   -1.2470 C.3   185  SER185      0.2130
    156  OG        37.8420  -43.1930   -2.2160 O.3   185  SER185     -0.2179
    157  N         40.6650  -41.9530   -3.5660 N.am  186  GLY186     -0.1939
    158  CA        41.9740  -42.4100   -4.0020 C.3   186  GLY186      0.2014
    159  C         41.9700  -43.5320   -5.0260 C.2   186  GLY186      0.2638
    160  O         40.9670  -44.2350   -5.1910 O.2   186  GLY186     -0.2714
    161  N         43.1110  -43.7340   -5.6900 N.am  187  ASN187     -0.1972
    162  CA        43.2380  -44.7250   -6.7560 C.3   187  ASN187      0.1688
    163  C         44.2070  -45.8430   -6.3990 C.2   187  ASN187      0.2292
    164  O         44.6920  -46.5310   -7.3020 O.2   187  ASN187     -0.2864
    165  CB        43.6990  -44.0680   -8.0600 C.3   187  ASN187      0.1181
    166  CG        42.5530  -43.6960   -8.9710 C.2   187  ASN187      0.2629
    167  OD1       41.4450  -44.2230   -8.8470 O.2   187  ASN187     -0.2716
    168  ND2       42.8110  -42.7710   -9.9000 N.am  187  ASN187     -0.0877
    169  N         45.7760  -40.9790    4.2490 N.3   198  ASP198     -0.1239
    170  CA        45.6960  -39.7950    3.4030 C.3   198  ASP198      0.1674
    171  C         44.9440  -38.7750    4.2470 C.2   198  ASP198      0.2266
    172  O         43.7600  -38.9700    4.5420 O.2   198  ASP198     -0.2867
    173  CB        44.9670  -40.1560    2.1030 C.3   198  ASP198      0.1410
    174  CG        44.6400  -38.9640    1.2130 C.2   198  ASP198      0.3668
    175  OD1       44.5810  -37.8020    1.6720 O.co2 198  ASP198     -0.2456
    176  OD2       44.3780  -39.2280    0.0190 O.co2 198  ASP198     -0.2456
    177  N         43.9310  -35.8170    3.6400 N.3   200  TYR200     -0.1227
    178  CA        42.8970  -35.0390    2.9610 C.3   200  TYR200      0.1736
    179  C         41.5560  -35.7590    3.0080 C.2   200  TYR200      0.2596
    180  O         40.5380  -35.1770    3.4000 O.2   200  TYR200     -0.2718
    181  CB        43.3150  -34.7500    1.5100 C.3   200  TYR200      0.0548
    182  CG        44.6130  -33.9700    1.4560 C.ar  200  TYR200     -0.0200
    183  CD1       45.8400  -34.6270    1.5090 C.ar  200  TYR200     -0.0009
    184  CD2       44.6140  -32.5780    1.4040 C.ar  200  TYR200     -0.0009
    185  CE1       47.0260  -33.9250    1.4980 C.ar  200  TYR200      0.0417
    186  CE2       45.8110  -31.8560    1.3740 C.ar  200  TYR200      0.0417
    187  CZ        47.0090  -32.5420    1.4280 C.ar  200  TYR200      0.1957
    188  OH        48.2060  -31.8610    1.4110 O.3   200  TYR200     -0.2866
    189  N         41.5420  -37.0370    2.6280 N.am  201  THR201     -0.1953
    190  CA        40.3150  -37.8250    2.6880 C.3   201  THR201      0.1897
    191  C         39.9170  -38.1190    4.1340 C.2   201  THR201      0.2313
    192  O         38.7280  -38.1010    4.4770 O.2   201  THR201     -0.2863
    193  CB        40.5140  -39.1150    1.8920 C.3   201  THR201      0.1794
    194  OG1       41.6500  -39.8180    2.4220 O.3   201  THR201     -0.2208
    195  CG2       40.8080  -38.7810    0.4220 C.3   201  THR201      0.0378
    196  N         38.8330  -42.9520   -9.4170 N.3   259  THR259     -0.1203
    197  CA        38.3500  -42.1550   -8.2970 C.3   259  THR259      0.1994
    198  C         38.0920  -40.7110   -8.7120 C.2   259  THR259      0.2618
    199  O         37.2080  -40.0460   -8.1590 O.2   259  THR259     -0.2717
    200  CB        39.3810  -42.2150   -7.1560 C.3   259  THR259      0.1784
    201  OG1       38.8380  -41.6050   -5.9950 O.3   259  THR259     -0.2211
    202  CG2       40.6500  -41.4560   -7.5250 C.3   259  THR259      0.0376
    203  N         38.8490  -40.2200   -9.6910 N.am  260  SER260     -0.1951
    204  CA        38.7470  -38.8320  -10.1210 C.3   260  SER260      0.1924
    205  C         37.3460  -38.4640  -10.5680 C.2   260  SER260      0.2314
    206  O         36.9580  -37.2990  -10.4590 O.2   260  SER260     -0.2863
    207  CB        39.7160  -38.5670  -11.2740 C.3   260  SER260      0.2116
    208  OG        41.0540  -38.5930  -10.8150 O.3   260  SER260     -0.2180
@<TRIPOS>BOND
     1     9    10    1
     2    16    14   ar
     3    14    15   ar
     4    14    13    1
     5    10    13    1
     6    10    11    1
     7    17    11   am
     8    17    18    1
     9    11    12    2
    10    19    20    2
    11    19    18    1
    12    24    22   am
    13    21    18    1
    14    21    22    1
    15    22    23    2
    16    25    26    1
    17    50    48   ar
    18    26    27    1
    19    26    29    1
    20     8     6   ar
    21    48    49   ar
    22    48    47    1
    23     4     3    2
    24    27    28    2
    25     7     6   ar
    26     6     5    1
    27    29    30    1
    28     3     2    1
    29     5     2    1
    30    47    44    1
    31    30    32   ar
    32    30    31   ar
    33    32    34   ar
    34     2     1    1
    35    46    45    2
    36    44    45    1
    37    44    43    1
    38    31    33   ar
    39    34    33   ar
    40    43    37   am
    41   207   208    1
    42   207   204    1
    43    37    38    2
    44    37    36    1
    45   205   206    2
    46   205   204    1
    47    39    36    1
    48    39    40    1
    49   204   203    1
    50    36    35    1
    51   168   166   am
    52    41    40    1
    53   203   198   am
    54   196   197    1
    55    40    42    1
    56   166   167    2
    57   166   165    1
    58    71    72    1
    59    71    68    1
    60   198   197    1
    61   198   199    2
    62    70    69    2
    63   197   200    1
    64   165   162    1
    65    69    68    1
    66    69    73   am
    67   202   200    1
    68    68    67    1
    69   164   163    2
    70   200   201    1
    71    57    55    1
    72    77    74    1
    73    77    78    1
    74   162   163    1
    75   162   161    1
    76    79    78   ar
    77    79    81   ar
    78    73    74    1
    79    74    75    1
    80    78    80   ar
    81   106   104   ar
    82    51    52    1
    83    81    82   ar
    84   161   159   am
    85   114   112   ar
    86   150   147    1
    87    55    52    1
    88    55    56    1
    89   104   103    1
    90   104   105   ar
    91    52    53    1
    92   103   102    1
    93   160   159    2
    94    80    82   ar
    95    80    83   ar
    96   159   158    1
    97    75    87   am
    98    75    76    2
    99    82    84   ar
   100   111   112    1
   101   111   108    1
   102   110   109    2
   103    87    88    1
   104   112   113   ar
   105   107   108    1
   106   107   100   am
   107    90    89    2
   108    83    85   ar
   109   147   146    1
   110   147   148    1
   111   109   108    1
   112   102    99    1
   113   158   157    1
   114    99   100    1
   115    99    98    1
   116    53    54    2
   117    84    86   ar
   118   146   134   am
   119   157   153   am
   120   100   101    2
   121    88    89    1
   122    89    91   am
   123   148   151   am
   124   148   149    2
   125    98    93   am
   126    94    93    2
   127    85    86   ar
   128   151   152    1
   129    93    92    1
   130   134   135    2
   131   134   133    1
   132   153   152    1
   133   153   154    2
   134   156   155    1
   135    91    92    1
   136    91    97    1
   137    58    59    1
   138   133   132    1
   139   133   136    1
   140    92    95    1
   141   152   155    1
   142   140   138   ar
   143   140   141   ar
   144    59    60    1
   145    59    62    1
   146   138   137   ar
   147    63    62    1
   148    63    64    1
   149   141   143   ar
   150   141   139   ar
   151   143   145   ar
   152    66    64   ar
   153    61    60    2
   154   137   139   ar
   155   137   136    1
   156   139   142   ar
   157   145   144   ar
   158    97    96    1
   159    64    65   ar
   160   142   144   ar
   161    95    96    1
   162   176   174   ar
   163   195   193    1
   164   174   175   ar
   165   174   173    1
   166   186   184   ar
   167   186   187   ar
   168   184   182   ar
   169   188   187    1
   170   187   185   ar
   171   182   183   ar
   172   182   181    1
   173   185   183   ar
   174   181   178    1
   175   122   120   ar
   176   193   194    1
   177   193   190    1
   178   173   170    1
   179   189   190    1
   180   189   179   am
   181   190   191    1
   182   120   119    1
   183   120   121   ar
   184   119   116    1
   185   178   179    1
   186   178   177    1
   187   179   180    2
   188   170   171    1
   189   170   169    1
   190   118   117    2
   191   191   192    2
   192   171   172    2
   193   116   117    1
   194   116   115    1
   195   117   123   am
   196   126   125    2
   197   125   124    1
   198   123   124    1
   199   127   128    1
   200   131   128    1
   201   128   129    1
   202   130   129    2
