@<TRIPOS>MOLECULE
tmp/6er4A01.pdb
 86 81 0 0 0
SMALL
GASTEIGER

@<TRIPOS>ATOM
      1  N         47.2810   -0.7410   15.6560 N.3    19  THR19      -0.1203
      2  CA        47.5180   -0.6380   14.2220 C.3    19  THR19       0.1994
      3  C         47.9700    0.7650   13.8330 C.2    19  THR19       0.2618
      4  O         48.8620    0.9400   12.9980 O.2    19  THR19      -0.2717
      5  CB        46.2550   -1.0280   13.4280 C.3    19  THR19       0.1784
      6  OG1       45.8290   -2.3160   13.8550 O.3    19  THR19      -0.2211
      7  CG2       46.4870   -1.0590   11.9570 C.3    19  THR19       0.0376
      8  N         47.3300    1.7790   14.3920 N.am   20  GLY20      -0.1942
      9  CA        47.5050    3.1580   13.9380 C.3    20  GLY20       0.2014
     10  C         47.0230    3.3320   12.5020 C.2    20  GLY20       0.2639
     11  O         46.5450    2.4060   11.8560 O.2    20  GLY20      -0.2714
     12  N         47.1760    4.5460   11.9870 N.am   21  TYR21      -0.1959
     13  CA        46.8370    4.8600   10.5900 C.3    21  TYR21       0.1771
     14  C         47.8270    5.9040   10.1150 C.2    21  TYR21       0.2619
     15  O         47.8250    7.0400   10.5950 O.2    21  TYR21      -0.2715
     16  CB        45.3800    5.3180   10.4530 C.3    21  TYR21       0.0574
     17  CG        44.9470    5.5100    9.0370 C.ar   21  TYR21      -0.0198
     18  CD1       45.2620    6.6280    8.3130 C.ar   21  TYR21      -0.0009
     19  CD2       44.2400    4.5020    8.3800 C.ar   21  TYR21      -0.0009
     20  CE1       44.8660    6.7830    6.9890 C.ar   21  TYR21       0.0417
     21  CE2       43.8470    4.6480    7.0650 C.ar   21  TYR21       0.0417
     22  CZ        44.1580    5.7930    6.3820 C.ar   21  TYR21       0.1957
     23  OH        43.7390    5.9520    5.0650 O.3    21  TYR21      -0.2866
     24  N         48.6850    5.5380    9.1780 N.am   22  ASP22      -0.1971
     25  CA        49.7850    6.4190    8.7450 C.3    22  ASP22       0.1709
     26  C         49.2460    7.5450    7.8800 C.2    22  ASP22       0.2293
     27  O         48.4840    7.2940    6.9560 O.2    22  ASP22      -0.2864
     28  CB        50.8000    5.6200    7.9150 C.3    22  ASP22       0.1436
     29  CG        52.0760    6.3690    7.6620 C.2    22  ASP22       0.3671
     30  OD1       52.3690    7.3090    8.3900 O.co2  22  ASP22      -0.2456
     31  OD2       52.7830    5.9790    6.7320 O.co2  22  ASP22      -0.2456
     32  N         51.7470    9.8680    6.8900 N.3    24  SER24      -0.1202
     33  CA        53.0210   10.4710    6.5130 C.3    24  SER24       0.2020
     34  C         53.1480   10.7680    5.0470 C.2    24  SER24       0.2619
     35  O         53.9630   11.6210    4.6670 O.2    24  SER24      -0.2717
     36  CB        54.1670    9.5400    6.9190 C.3    24  SER24       0.2103
     37  OG        54.1500    9.2340    8.3040 O.3    24  SER24      -0.2182
     38  N         52.4020   10.0610    4.2120 N.am   25  LYS25      -0.1965
     39  CA        52.4790   10.2320    2.7510 C.3    25  LYS25       0.1728
     40  C         51.3720   11.0970    2.2120 C.2    25  LYS25       0.2616
     41  O         51.3130   11.3070    1.0050 O.2    25  LYS25      -0.2715
     42  CB        52.4050    8.8490    2.0850 C.3    25  LYS25       0.0311
     43  CG        53.5370    7.9290    2.5150 C.3    25  LYS25       0.0038
     44  CD        53.4640    6.5480    1.8660 C.3    25  LYS25       0.0206
     45  CE        54.4980    5.6170    2.4820 C.3    25  LYS25       0.1093
     46  NZ        54.0090    4.2010    2.5410 N.3    25  LYS25      -0.1314
     47  N         50.4910   11.5900    3.0710 N.am   26  GLU26      -0.1977
     48  CA        49.3720   12.3920    2.6220 C.3    26  GLU26       0.1602
     49  C         49.8660   13.7560    2.1410 C.2    26  GLU26       0.2287
     50  O         50.7850   14.3310    2.7390 O.2    26  GLU26      -0.2864
     51  CB        48.3910   12.6660    3.7640 C.3    26  GLU26       0.0415
     52  CG        47.6590   11.4630    4.3230 C.3    26  GLU26       0.1163
     53  CD        46.4090   11.0550    3.5800 C.2    26  GLU26       0.3649
     54  OE1       45.9330   11.8020    2.7090 O.co2  26  GLU26      -0.2457
     55  OE2       45.8780    9.9600    3.8850 O.co2  26  GLU26      -0.2457
     56  N         57.3070   11.2690   10.6030 N.3   153  ASN153     -0.1240
     57  CA        55.9970   10.6350   10.4340 C.3   153  ASN153      0.1653
     58  C         54.9090   11.4730   11.0670 C.2   153  ASN153      0.2266
     59  O         55.1520   12.2520   11.9910 O.2   153  ASN153     -0.2867
     60  CB        56.0100    9.1980   10.9650 C.3   153  ASN153      0.1155
     61  CG        55.8980    9.1300   12.4370 C.2   153  ASN153      0.2627
     62  OD1       54.7900    8.9870   12.9640 O.2   153  ASN153     -0.2716
     63  ND2       57.0320    9.2610   13.1370 N.am  153  ASN153     -0.0877
     64  N         50.7600   10.4160   12.1500 N.3   155  MET155     -0.1245
     65  CA        49.8360    9.2880   12.2140 C.3   155  MET155      0.1570
     66  C         48.6640    9.5210   13.1160 C.2   155  MET155      0.2261
     67  O         48.6900   10.3680   14.0250 O.2   155  MET155     -0.2867
     68  CB        50.5150    8.0350   12.5870 C.3   155  MET155      0.0387
     69  CG        51.0170    8.0560   13.9320 C.3   155  MET155      0.0595
     70  SD        51.8380    6.5190   14.4370 S.3   155  MET155     -0.1393
     71  CE        50.6040    5.3450   14.4820 C.3   155  MET155      0.0692
     72  N         54.6150    6.8530   16.9440 N.3   160  MET160     -0.1245
     73  CA        55.7290    5.9520   16.5850 C.3   160  MET160      0.1570
     74  C         56.9270    6.1960   17.4810 C.2   160  MET160      0.2261
     75  O         57.4450    7.3160   17.5570 O.2   160  MET160     -0.2867
     76  CB        56.1530    6.1610   15.1390 C.3   160  MET160      0.0387
     77  CG        55.1280    5.8080   14.0990 C.3   160  MET160      0.0595
     78  SD        54.3180    4.2160   14.3440 S.3   160  MET160     -0.1393
     79  CE        55.7630    3.1940   14.3210 C.3   160  MET160      0.0692
     80  N         54.1850    1.1700   17.4870 N.3   165  VAL165     -0.1245
     81  CA        53.0110    2.0080   17.7200 C.3   165  VAL165      0.1561
     82  C         52.7380    2.0830   19.2140 C.2   165  VAL165      0.2260
     83  O         52.2280    1.1350   19.8270 O.2   165  VAL165     -0.2867
     84  CB        51.7790    1.4870   16.9560 C.3   165  VAL165      0.0252
     85  CG1       50.5930    2.4070   17.2620 C.3   165  VAL165      0.0019
     86  CG2       52.0410    1.4600   15.4540 C.3   165  VAL165      0.0019
@<TRIPOS>BOND
     1    41    40    2
     2    44    45    1
     3    44    43    1
     4    42    43    1
     5    42    39    1
     6    49    48    1
     7    49    50    2
     8    40    39    1
     9    40    47   am
    10    45    46    1
    11    48    47    1
    12    48    51    1
    13    54    53   ar
    14    39    38    1
    15    53    55   ar
    16    53    52    1
    17    51    52    1
    18    38    34   am
    19    35    34    2
    20    34    33    1
    21    23    22    1
    22    22    20   ar
    23    22    21   ar
    24    33    32    1
    25    33    36    1
    26    31    29   ar
    27    36    37    1
    28    27    26    2
    29    20    18   ar
    30    21    19   ar
    31    29    28    1
    32    29    30   ar
    33    26    25    1
    34    28    25    1
    35    18    17   ar
    36    19    17   ar
    37    25    24    1
    38    17    16    1
    39    24    14   am
    40    14    13    1
    41    14    15    2
    42    57    56    1
    43    57    60    1
    44    57    58    1
    45    16    13    1
    46    13    12    1
    47    60    61    1
    48    58    59    2
    49    11    10    2
    50     7     5    1
    51    12    10   am
    52    64    65    1
    53    65    68    1
    54    65    66    1
    55    61    62    2
    56    61    63   am
    57    10     9    1
    58    68    69    1
    59     4     3    2
    60    66    67    2
    61     5     6    1
    62     5     2    1
    63     3     2    1
    64     3     8   am
    65    69    70    1
    66     9     8    1
    67    77    78    1
    68    77    76    1
    69     2     1    1
    70    79    78    1
    71    70    71    1
    72    76    73    1
    73    86    84    1
    74    73    72    1
    75    73    74    1
    76    84    85    1
    77    84    81    1
    78    74    75    2
    79    80    81    1
    80    81    82    1
    81    82    83    2
