@<TRIPOS>MOLECULE
tmp/6er5A00.pdb
 78 73 0 0 0
SMALL
GASTEIGER

@<TRIPOS>ATOM
      1  N          5.0770  -43.4670    9.2450 N.3   167  LEU167     -0.1245
      2  CA         5.4420  -43.7260   10.6490 C.3   167  LEU167      0.1561
      3  C          6.0100  -45.1470   10.7570 C.2   167  LEU167      0.2260
      4  O          5.3670  -46.1160   10.3470 O.2   167  LEU167     -0.2867
      5  CB         4.2700  -43.4730   11.6240 C.3   167  LEU167      0.0270
      6  CG         3.2840  -44.5630   12.0800 C.3   167  LEU167      0.0019
      7  CD1        2.4510  -44.0800   13.2560 C.3   167  LEU167      0.0001
      8  CD2        2.3620  -45.0050   10.9590 C.3   167  LEU167      0.0001
      9  N         -2.2280  -37.9520   12.4690 N.3   195  GLY195     -0.1210
     10  CA        -1.4980  -36.7020   12.2180 C.3   195  GLY195      0.1956
     11  C         -2.3680  -35.4700   12.4030 C.2   195  GLY195      0.2612
     12  O         -3.5970  -35.5730   12.5040 O.2   195  GLY195     -0.2717
     13  N         -1.7190  -34.3060   12.4480 N.am  196  GLY196     -0.1942
     14  CA        -2.4000  -33.0120   12.6110 C.3   196  GLY196      0.2014
     15  C         -1.9250  -31.9510   11.6380 C.2   196  GLY196      0.2639
     16  O         -1.9770  -30.7580   11.9480 O.2   196  GLY196     -0.2714
     17  N         -1.4630  -32.3890   10.4650 N.am  197  GLY197     -0.1954
     18  CA        -1.1220  -31.4900    9.3650 C.3   197  GLY197      0.1869
     19  C         -2.3730  -31.0790    8.6170 C.2   197  GLY197      0.2309
     20  O         -3.4050  -31.7490    8.7080 O.2   197  GLY197     -0.2863
     21  N         -3.6280  -36.9340   16.7910 N.3   221  TYR221     -0.1227
     22  CA        -2.3990  -36.1380   16.7070 C.3   221  TYR221      0.1736
     23  C         -1.3910  -36.5840   17.7590 C.2   221  TYR221      0.2595
     24  O         -1.7810  -36.9540   18.8690 O.2   221  TYR221     -0.2718
     25  CB        -2.7440  -34.6590   16.9030 C.3   221  TYR221      0.0548
     26  CG        -1.5860  -33.6970   16.7450 C.ar  221  TYR221     -0.0200
     27  CD1       -0.7880  -33.7230   15.6120 C.ar  221  TYR221     -0.0009
     28  CD2       -1.3080  -32.7340   17.7170 C.ar  221  TYR221     -0.0009
     29  CE1        0.2630  -32.8340   15.4500 C.ar  221  TYR221      0.0417
     30  CE2       -0.2500  -31.8400   17.5670 C.ar  221  TYR221      0.0417
     31  CZ         0.5380  -31.8900   16.4290 C.ar  221  TYR221      0.1957
     32  OH         1.5890  -31.0020   16.2750 O.3   221  TYR221     -0.2866
     33  N         -0.1020  -36.5380   17.4170 N.am  222  ARG222     -0.1966
     34  CA         0.9560  -36.9010   18.3670 C.3   222  ARG222      0.1729
     35  C          0.9730  -35.9610   19.5740 C.2   222  ARG222      0.2616
     36  O          1.0600  -36.4260   20.7020 O.2   222  ARG222     -0.2715
     37  CB         2.3400  -36.9190   17.6860 C.3   222  ARG222      0.0348
     38  CG         3.4960  -37.4760   18.5340 C.3   222  ARG222      0.0492
     39  CD         3.2530  -38.9180   18.9880 C.3   222  ARG222      0.2205
     40  NE         4.4760  -39.6620   19.3540 N.pl3 222  ARG222     -0.0865
     41  CZ         4.9280  -39.9130   20.5930 C.cat 222  ARG222      0.5346
     42  NH1        4.2930  -39.4800   21.6840 N.pl3 222  ARG222      0.1354
     43  NH2        6.0520  -40.6140   20.7440 N.pl3 222  ARG222      0.1354
     44  N          0.8810  -34.6520   19.3170 N.am  223  GLY223     -0.1955
     45  CA         1.0040  -33.5910   20.3480 C.3   223  GLY223      0.1869
     46  C         -0.2660  -33.0550   21.0090 C.2   223  GLY223      0.2309
     47  O         -1.2550  -33.7740   21.1280 O.2   223  GLY223     -0.2863
     48  N          0.1970  -27.2240   14.0800 N.3   228  ARG228     -0.1245
     49  CA         1.3560  -26.4260   14.5170 C.3   228  ARG228      0.1563
     50  C          1.6610  -25.3350   13.4960 C.2   228  ARG228      0.2260
     51  O          1.4520  -25.5230   12.3000 O.2   228  ARG228     -0.2867
     52  CB         2.6160  -27.2820   14.7640 C.3   228  ARG228      0.0307
     53  CG         2.9770  -27.4370   16.2340 C.3   228  ARG228      0.0489
     54  CD         3.5950  -26.1700   16.8370 C.3   228  ARG228      0.2205
     55  NE         3.4340  -26.1390   18.3000 N.pl3 228  ARG228     -0.0865
     56  CZ         3.3330  -25.0460   19.0680 C.cat 228  ARG228      0.5346
     57  NH1        3.1800  -25.1960   20.3830 N.pl3 228  ARG228      0.1354
     58  NH2        3.3680  -23.8090   18.5590 N.pl3 228  ARG228      0.1354
     59  N         -1.0360  -41.7480   19.6150 N.3   254  ASN254     -0.1240
     60  CA        -0.4350  -42.1710   18.3540 C.3   254  ASN254      0.1653
     61  C         -0.3570  -43.6840   18.3090 C.2   254  ASN254      0.2266
     62  O          0.0030  -44.2960   19.3110 O.2   254  ASN254     -0.2867
     63  CB         0.9690  -41.5870   18.1990 C.3   254  ASN254      0.1155
     64  CG         1.3300  -41.3220   16.7480 C.2   254  ASN254      0.2627
     65  OD1        0.6240  -40.5950   16.0400 O.2   254  ASN254     -0.2716
     66  ND2        2.4390  -41.8940   16.3000 N.am  254  ASN254     -0.0877
     67  N          1.2450  -37.6650    8.1550 N.3   285  ILE285     -0.1231
     68  CA         2.3830  -37.3140    9.0100 C.3   285  ILE285      0.1692
     69  C          3.1140  -36.0940    8.4360 C.2   285  ILE285      0.2592
     70  O          3.7650  -35.3490    9.1750 O.2   285  ILE285     -0.2718
     71  CB         3.3860  -38.4970    9.1620 C.3   285  ILE285      0.0266
     72  CG1        2.6740  -39.8240    9.4960 C.3   285  ILE285      0.0019
     73  CG2        4.4520  -38.1890   10.2120 C.3   285  ILE285      0.0020
     74  CD1        1.6250  -39.7330   10.5820 C.3   285  ILE285      0.0001
     75  N          2.9960  -35.9030    7.1210 N.am  286  GLY286     -0.1957
     76  CA         3.5840  -34.7670    6.4260 C.3   286  GLY286      0.1869
     77  C          4.0410  -35.2290    5.0640 C.2   286  GLY286      0.2309
     78  O          3.3880  -36.0820    4.4570 O.2   286  GLY286     -0.2863
@<TRIPOS>BOND
     1    78    77    2
     2    77    76    1
     3    76    75    1
     4    75    69   am
     5    67    68    1
     6    69    68    1
     7    69    70    2
     8    19    20    2
     9    19    18    1
    10    68    71    1
    11    71    72    1
    12    71    73    1
    13     1     2    1
    14    18    17    1
    15    72    74    1
    16     4     3    2
    17    17    15   am
    18     2     3    1
    19     2     5    1
    20     8     6    1
    21     5     6    1
    22    15    16    2
    23    15    14    1
    24     6     7    1
    25    10    11    1
    26    10     9    1
    27    51    50    2
    28    11    13   am
    29    11    12    2
    30    13    14    1
    31    50    49    1
    32    48    49    1
    33    49    52    1
    34    52    53    1
    35    29    27   ar
    36    29    31   ar
    37    27    26   ar
    38    65    64    2
    39    53    54    1
    40    32    31    1
    41    66    64   am
    42    31    30   ar
    43    22    21    1
    44    22    25    1
    45    22    23    1
    46    26    25    1
    47    26    28   ar
    48    64    63    1
    49    54    55    1
    50    33    23   am
    51    33    34    1
    52    30    28   ar
    53    37    34    1
    54    37    38    1
    55    23    24    2
    56    63    60    1
    57    55    56    2
    58    61    60    1
    59    61    62    2
    60    60    59    1
    61    34    35    1
    62    38    39    1
    63    58    56    1
    64    39    40    1
    65    56    57    1
    66    44    35   am
    67    44    45    1
    68    40    41    2
    69    35    36    2
    70    45    46    1
    71    41    43    1
    72    41    42    1
    73    46    47    2
