@<TRIPOS>MOLECULE
tmp/6ercA01.pdb
 250 238 0 0 0
SMALL
GASTEIGER

@<TRIPOS>ATOM
      1  N         61.8210  -14.3920  -37.4030 N.3    73  ASN73      -0.1225
      2  CA        60.7940  -14.9860  -36.5590 C.3    73  ASN73       0.1785
      3  C         59.4490  -15.0620  -37.2670 C.2    73  ASN73       0.2597
      4  O         58.6070  -15.8800  -36.8820 O.2    73  ASN73      -0.2718
      5  CB        60.6740  -14.2200  -35.2300 C.3    73  ASN73       0.1169
      6  CG        59.8730  -12.9390  -35.3430 C.2    73  ASN73       0.2627
      7  OD1       58.6610  -12.9610  -35.5680 O.2    73  ASN73      -0.2716
      8  ND2       60.5420  -11.8110  -35.1350 N.am   73  ASN73      -0.0877
      9  N         59.2370  -14.2500  -38.3040 N.am   74  MET74      -0.1979
     10  CA        58.0520  -14.4250  -39.1360 C.3    74  MET74       0.1605
     11  C         58.0880  -15.7650  -39.8610 C.2    74  MET74       0.2287
     12  O         57.0520  -16.4210  -40.0200 O.2    74  MET74      -0.2864
     13  CB        57.9360  -13.2740  -40.1340 C.3    74  MET74       0.0413
     14  CG        57.5210  -11.9570  -39.5000 C.3    74  MET74       0.0598
     15  SD        55.8760  -12.0270  -38.7550 S.3    74  MET74      -0.1393
     16  CE        55.7310  -10.3620  -38.1190 C.3    74  MET74       0.0692
     17  N         59.8130  -18.3960  -38.6660 N.3    76  GLY76      -0.1210
     18  CA        59.6440  -19.3570  -37.5880 C.3    76  GLY76       0.1956
     19  C         58.1840  -19.5910  -37.2580 C.2    76  GLY76       0.2611
     20  O         57.7350  -20.7320  -37.1380 O.2    76  GLY76      -0.2717
     21  N         57.4210  -18.5070  -37.1120 N.am   77  GLN77      -0.1979
     22  CA        55.9920  -18.6420  -36.8590 C.3    77  GLN77       0.1601
     23  C         55.2910  -19.2810  -38.0490 C.2    77  GLN77       0.2287
     24  O         54.3690  -20.0890  -37.8810 O.2    77  GLN77      -0.2864
     25  CB        55.3860  -17.2750  -36.5440 C.3    77  GLN77       0.0394
     26  CG        53.9430  -17.3290  -36.0780 C.3    77  GLN77       0.0908
     27  CD        53.3740  -15.9520  -35.8070 C.2    77  GLN77       0.2608
     28  OE1       54.0570  -14.9390  -35.9830 O.2    77  GLN77      -0.2717
     29  NE2       52.1160  -15.9050  -35.3750 N.am   77  GLN77      -0.0878
     30  N         56.1580  -23.1900  -37.8780 N.3    80  ILE80      -0.1231
     31  CA        55.4400  -24.0200  -36.9140 C.3    80  ILE80       0.1692
     32  C         54.0070  -24.2530  -37.3670 C.2    80  ILE80       0.2592
     33  O         53.4340  -25.3200  -37.1150 O.2    80  ILE80      -0.2718
     34  CB        55.4840  -23.4000  -35.5010 C.3    80  ILE80       0.0266
     35  CG1       54.8480  -24.3560  -34.4900 C.3    80  ILE80       0.0019
     36  CG2       54.7740  -22.0560  -35.4650 C.3    80  ILE80       0.0020
     37  CD1       55.6850  -25.5900  -34.2150 C.3    80  ILE80       0.0001
     38  N         53.3990  -23.2710  -38.0300 N.am   81  HIS81      -0.1976
     39  CA        52.0560  -23.4670  -38.5590 C.3    81  HIS81       0.1656
     40  C         52.0110  -24.5160  -39.6650 C.2    81  HIS81       0.2291
     41  O         50.9140  -24.8900  -40.0940 O.2    81  HIS81      -0.2864
     42  CB        51.4960  -22.1370  -39.0650 C.3    81  HIS81       0.0771
     43  CG        51.2490  -21.1360  -37.9790 C.ar   81  HIS81       0.0820
     44  ND1       50.9260  -19.8210  -38.2370 N.ar   81  HIS81      -0.2267
     45  CD2       51.2780  -21.2580  -36.6310 C.ar   81  HIS81       0.1154
     46  CE1       50.7670  -19.1760  -37.0950 C.ar   81  HIS81       0.1986
     47  NE2       50.9760  -20.0250  -36.1050 N.ar   81  HIS81      -0.2212
     48  N         52.4900  -28.0850  -36.2800 N.3    84  ALA84      -0.1231
     49  CA        51.8340  -28.4390  -35.0270 C.3    84  ALA84       0.1694
     50  C         50.7230  -27.4590  -34.6800 C.2    84  ALA84       0.2592
     51  O         50.8510  -26.2530  -34.9000 O.2    84  ALA84      -0.2718
     52  CB        52.8480  -28.4850  -33.8790 C.3    84  ALA84       0.0304
     53  N         49.6380  -27.9940  -34.1200 N.am   85  LEU85      -0.1966
     54  CA        48.5750  -27.1840  -33.5350 C.3    85  LEU85       0.1728
     55  C         48.0430  -27.9030  -32.3070 C.2    85  LEU85       0.2616
     56  O         47.5650  -29.0360  -32.4090 O.2    85  LEU85      -0.2715
     57  CB        47.4370  -26.9340  -34.5290 C.3    85  LEU85       0.0311
     58  CG        46.2520  -26.1500  -33.9530 C.3    85  LEU85       0.0022
     59  CD1       46.6420  -24.7030  -33.7030 C.3    85  LEU85       0.0001
     60  CD2       45.0420  -26.2340  -34.8630 C.3    85  LEU85       0.0001
     61  N         48.1150  -27.2410  -31.1520 N.am   86  SER86      -0.1950
     62  CA        47.5790  -27.7930  -29.9090 C.3    86  SER86       0.1924
     63  C         46.1630  -27.2560  -29.7260 C.2    86  SER86       0.2314
     64  O         45.9010  -26.3400  -28.9450 O.2    86  SER86      -0.2863
     65  CB        48.4830  -27.4380  -28.7370 C.3    86  SER86       0.2116
     66  OG        49.7710  -28.0020  -28.9090 O.3    86  SER86      -0.2180
     67  N         40.8050  -14.6730  -32.9990 N.3   197  ASP197     -0.1239
     68  CA        41.0170  -14.7170  -31.5540 C.3   197  ASP197      0.1674
     69  C         40.8210  -13.3410  -30.9240 C.2   197  ASP197      0.2266
     70  O         40.0120  -13.1720  -30.0030 O.2   197  ASP197     -0.2867
     71  CB        42.4170  -15.2620  -31.2560 C.3   197  ASP197      0.1410
     72  CG        42.6180  -16.6700  -31.7850 C.2   197  ASP197      0.3668
     73  OD1       41.6610  -17.4710  -31.7140 O.co2 197  ASP197     -0.2456
     74  OD2       43.7260  -16.9760  -32.2780 O.co2 197  ASP197     -0.2456
     75  N         44.9840  -19.8030  -38.1420 N.3   213  ARG213     -0.1245
     76  CA        45.5840  -18.6300  -37.5070 C.3   213  ARG213      0.1563
     77  C         46.5360  -17.8960  -38.4420 C.2   213  ARG213      0.2260
     78  O         47.5870  -17.4000  -38.0230 O.2   213  ARG213     -0.2867
     79  CB        46.2880  -19.0470  -36.2160 C.3   213  ARG213      0.0307
     80  CG        47.2820  -20.1890  -36.3800 C.3   213  ARG213      0.0489
     81  CD        47.8000  -20.7250  -35.0600 C.3   213  ARG213      0.2205
     82  NE        48.4610  -22.0150  -35.2500 N.pl3 213  ARG213     -0.0865
     83  CZ        49.1720  -22.6480  -34.3200 C.cat 213  ARG213      0.5346
     84  NH1       49.3350  -22.1170  -33.1080 N.pl3 213  ARG213      0.1354
     85  NH2       49.7290  -23.8180  -34.6080 N.pl3 213  ARG213      0.1354
     86  N         46.9370  -14.0310  -37.7430 N.3   216  GLU216     -0.1231
     87  CA        47.4730  -13.6430  -36.4400 C.3   216  GLU216      0.1699
     88  C         48.1950  -12.3020  -36.5160 C.2   216  GLU216      0.2592
     89  O         47.9550  -11.4110  -35.6940 O.2   216  GLU216     -0.2718
     90  CB        48.4090  -14.7330  -35.9090 C.3   216  GLU216      0.0402
     91  CG        48.6520  -14.6830  -34.3910 C.3   216  GLU216      0.1161
     92  CD        49.8120  -13.7830  -33.9800 C.2   216  GLU216      0.3649
     93  OE1       50.3740  -13.0830  -34.8460 O.co2 216  GLU216     -0.2457
     94  OE2       50.1660  -13.7820  -32.7790 O.co2 216  GLU216     -0.2457
     95  N         49.0760  -12.1340  -37.4970 N.am  217  ASN217     -0.1974
     96  CA        49.7400  -10.8530  -37.6870 C.3   217  ASN217      0.1688
     97  C         49.9830  -10.6380  -39.1720 C.2   217  ASN217      0.2292
     98  O         50.0150  -11.6000  -39.9490 O.2   217  ASN217     -0.2864
     99  CB        51.0600  -10.7730  -36.9090 C.3   217  ASN217      0.1181
    100  CG        52.1130  -11.7150  -37.4430 C.2   217  ASN217      0.2629
    101  OD1       52.8500  -11.3740  -38.3660 O.2   217  ASN217     -0.2716
    102  ND2       52.2000  -12.9030  -36.8570 N.am  217  ASN217     -0.0877
    103  N         66.9480  -21.1350  -42.5980 N.3   270  TYR270     -0.1241
    104  CA        66.4220  -20.9050  -41.2550 C.3   270  TYR270      0.1605
    105  C         67.2170  -21.6730  -40.2060 C.2   270  TYR270      0.2264
    106  O         67.7280  -21.0870  -39.2450 O.2   270  TYR270     -0.2867
    107  CB        64.9420  -21.2930  -41.1970 C.3   270  TYR270      0.0534
    108  CG        64.3080  -21.0250  -39.8510 C.ar  270  TYR270     -0.0201
    109  CD1       63.8890  -19.7470  -39.5010 C.ar  270  TYR270     -0.0009
    110  CD2       64.1340  -22.0460  -38.9280 C.ar  270  TYR270     -0.0009
    111  CE1       63.3140  -19.4970  -38.2740 C.ar  270  TYR270      0.0417
    112  CE2       63.5580  -21.8030  -37.6960 C.ar  270  TYR270      0.0417
    113  CZ        63.1520  -20.5270  -37.3760 C.ar  270  TYR270      0.1957
    114  OH        62.5810  -20.2760  -36.1520 O.3   270  TYR270     -0.2866
    115  N         57.0380  -28.5290  -29.6980 N.3   297  THR297     -0.1218
    116  CA        56.0420  -27.4890  -29.9130 C.3   297  THR297      0.1862
    117  C         55.6450  -26.7970  -28.6150 C.2   297  THR297      0.2287
    118  O         55.3750  -25.5910  -28.6200 O.2   297  THR297     -0.2866
    119  CB        54.8080  -28.0820  -30.6010 C.3   297  THR297      0.1770
    120  OG1       53.9160  -27.0280  -30.9770 O.3   297  THR297     -0.2211
    121  CG2       54.0730  -29.0570  -29.6950 C.3   297  THR297      0.0375
    122  N         60.4420  -24.8060  -29.1790 N.3   301  PHE301     -0.1227
    123  CA        60.2380  -23.9120  -30.3120 C.3   301  PHE301      0.1736
    124  C         59.3530  -22.7150  -29.9890 C.2   301  PHE301      0.2595
    125  O         59.1120  -21.8910  -30.8780 O.2   301  PHE301     -0.2718
    126  CB        59.6420  -24.6810  -31.4920 C.3   301  PHE301      0.0547
    127  CG        59.9540  -24.0680  -32.8210 C.ar  301  PHE301     -0.0202
    128  CD1       61.2050  -24.2240  -33.3880 C.ar  301  PHE301     -0.0042
    129  CD2       59.0020  -23.3310  -33.5040 C.ar  301  PHE301     -0.0042
    130  CE1       61.5010  -23.6590  -34.6120 C.ar  301  PHE301     -0.0003
    131  CE2       59.2940  -22.7640  -34.7300 C.ar  301  PHE301     -0.0003
    132  CZ        60.5440  -22.9290  -35.2830 C.ar  301  PHE301     -0.0000
    133  N         58.8630  -22.5900  -28.7590 N.am  302  ARG302     -0.1966
    134  CA        58.1290  -21.3920  -28.3690 C.3   302  ARG302      0.1729
    135  C         59.0500  -20.2360  -28.0040 C.2   302  ARG302      0.2616
    136  O         58.5610  -19.1880  -27.5680 O.2   302  ARG302     -0.2715
    137  CB        57.1910  -21.7000  -27.1990 C.3   302  ARG302      0.0348
    138  CG        56.1050  -22.7040  -27.5480 C.3   302  ARG302      0.0492
    139  CD        54.7910  -22.3980  -26.8510 C.3   302  ARG302      0.2205
    140  NE        53.7710  -23.3850  -27.1890 N.pl3 302  ARG302     -0.0865
    141  CZ        52.4980  -23.3110  -26.8140 C.cat 302  ARG302      0.5346
    142  NH1       52.0740  -22.2890  -26.0820 N.pl3 302  ARG302      0.1354
    143  NH2       51.6470  -24.2630  -27.1720 N.pl3 302  ARG302      0.1354
    144  N         60.3630  -20.3970  -28.1820 N.am  303  PHE303     -0.1960
    145  CA        61.2990  -19.3100  -27.9270 C.3   303  PHE303      0.1771
    146  C         60.9750  -18.0620  -28.7330 C.2   303  PHE303      0.2620
    147  O         61.3870  -16.9620  -28.3490 O.2   303  PHE303     -0.2715
    148  CB        62.7230  -19.7690  -28.2490 C.3   303  PHE303      0.0574
    149  CG        62.9880  -19.9500  -29.7240 C.ar  303  PHE303     -0.0200
    150  CD1       63.4250  -18.8870  -30.5010 C.ar  303  PHE303     -0.0042
    151  CD2       62.8060  -21.1810  -30.3310 C.ar  303  PHE303     -0.0042
    152  CE1       63.6680  -19.0470  -31.8510 C.ar  303  PHE303     -0.0003
    153  CE2       63.0510  -21.3460  -31.6870 C.ar  303  PHE303     -0.0003
    154  CZ        63.4830  -20.2780  -32.4430 C.ar  303  PHE303     -0.0000
    155  N         60.2550  -18.2030  -29.8470 N.am  304  GLY304     -0.1940
    156  CA        60.0180  -17.0640  -30.7160 C.3   304  GLY304      0.2014
    157  C         59.2580  -15.9390  -30.0470 C.2   304  GLY304      0.2638
    158  O         59.3840  -14.7790  -30.4410 O.2   304  GLY304     -0.2714
    159  N         58.4610  -16.2560  -29.0320 N.am  305  HIS305     -0.1973
    160  CA        57.7200  -15.2100  -28.3390 C.3   305  HIS305      0.1656
    161  C         58.6570  -14.2440  -27.6260 C.2   305  HIS305      0.2291
    162  O         58.3300  -13.0620  -27.4700 O.2   305  HIS305     -0.2864
    163  CB        56.7410  -15.8540  -27.3700 C.3   305  HIS305      0.0771
    164  CG        55.8180  -16.8320  -28.0270 C.ar  305  HIS305      0.0820
    165  ND1       55.5650  -18.0830  -27.5080 N.ar  305  HIS305     -0.2267
    166  CD2       55.1090  -16.7520  -29.1780 C.ar  305  HIS305      0.1154
    167  CE1       54.7280  -18.7260  -28.3030 C.ar  305  HIS305      0.1986
    168  NE2       54.4330  -17.9390  -29.3220 N.ar  305  HIS305     -0.2212
    169  N         61.5320  -13.3710  -28.9420 N.3   307  GLU307     -0.1231
    170  CA        62.2380  -12.6290  -29.9820 C.3   307  GLU307      0.1699
    171  C         61.3510  -11.6590  -30.7580 C.2   307  GLU307      0.2592
    172  O         61.8760  -10.8580  -31.5380 O.2   307  GLU307     -0.2718
    173  CB        62.9100  -13.6080  -30.9580 C.3   307  GLU307      0.0402
    174  CG        62.0070  -14.1470  -32.0620 C.3   307  GLU307      0.1161
    175  CD        62.6010  -15.3430  -32.7930 C.2   307  GLU307      0.3649
    176  OE1       63.8380  -15.3930  -32.9670 O.co2 307  GLU307     -0.2457
    177  OE2       61.8240  -16.2360  -33.1920 O.co2 307  GLU307     -0.2457
    178  N         60.0350  -11.7000  -30.5640 N.am  308  VAL308     -0.1980
    179  CA        59.1400  -10.7640  -31.2350 C.3   308  VAL308      0.1595
    180  C         59.3780   -9.3640  -30.6820 C.2   308  VAL308      0.2287
    181  O         59.2460   -9.1280  -29.4760 O.2   308  VAL308     -0.2864
    182  CB        57.6770  -11.1890  -31.0530 C.3   308  VAL308      0.0276
    183  CG1       56.7220  -10.1110  -31.5540 C.3   308  VAL308      0.0022
    184  CG2       57.4180  -12.5020  -31.7640 C.3   308  VAL308      0.0022
    185  N         52.7530   -3.9750  -32.3440 N.3   327  ILE327     -0.1245
    186  CA        52.2520   -5.3470  -32.4160 C.3   327  ILE327      0.1561
    187  C         50.8170   -5.4210  -31.9070 C.2   327  ILE327      0.2260
    188  O         49.9450   -6.0290  -32.5390 O.2   327  ILE327     -0.2867
    189  CB        53.1760   -6.2920  -31.6240 C.3   327  ILE327      0.0252
    190  CG1       54.5180   -6.4620  -32.3430 C.3   327  ILE327      0.0019
    191  CG2       52.5170   -7.6500  -31.3870 C.3   327  ILE327      0.0019
    192  CD1       54.4430   -7.2270  -33.6570 C.3   327  ILE327      0.0001
    193  N         47.0920   -7.4710  -34.1990 N.3   331  TYR331     -0.1241
    194  CA        46.5140   -8.7960  -33.9860 C.3   331  TYR331      0.1605
    195  C         45.2360   -8.9310  -34.8060 C.2   331  TYR331      0.2264
    196  O         44.2480   -8.2320  -34.5530 O.2   331  TYR331     -0.2867
    197  CB        46.2290   -9.0230  -32.5050 C.3   331  TYR331      0.0534
    198  CG        47.4590   -9.0720  -31.6250 C.ar  331  TYR331     -0.0201
    199  CD1       48.6520   -9.6240  -32.0820 C.ar  331  TYR331     -0.0009
    200  CD2       47.4240   -8.5660  -30.3280 C.ar  331  TYR331     -0.0009
    201  CE1       49.7740   -9.6700  -31.2740 C.ar  331  TYR331      0.0417
    202  CE2       48.5390   -8.6060  -29.5130 C.ar  331  TYR331      0.0417
    203  CZ        49.7120   -9.1600  -29.9900 C.ar  331  TYR331      0.1957
    204  OH        50.8260   -9.2000  -29.1790 O.3   331  TYR331     -0.2866
    205  N         52.7520   -8.7510  -26.0250 N.3   364  LEU364     -0.1245
    206  CA        52.3500  -10.1460  -25.9110 C.3   364  LEU364      0.1561
    207  C         52.0110  -10.5370  -24.4770 C.2   364  LEU364      0.2260
    208  O         51.0730  -11.3090  -24.2510 O.2   364  LEU364     -0.2867
    209  CB        53.4680  -11.0540  -26.4330 C.3   364  LEU364      0.0270
    210  CG        53.8660  -10.8910  -27.9040 C.3   364  LEU364      0.0019
    211  CD1       55.2690  -11.4210  -28.1320 C.3   364  LEU364      0.0001
    212  CD2       52.8800  -11.6080  -28.8060 C.3   364  LEU364      0.0001
    213  N         44.8730  -11.0960  -22.4630 N.3   377  LEU377     -0.1245
    214  CA        45.6090  -12.3470  -22.5720 C.3   377  LEU377      0.1561
    215  C         47.0870  -12.1020  -22.3030 C.2   377  LEU377      0.2260
    216  O         47.6080  -11.0080  -22.5350 O.2   377  LEU377     -0.2867
    217  CB        45.4140  -12.9870  -23.9530 C.3   377  LEU377      0.0270
    218  CG        45.8760  -12.1670  -25.1590 C.3   377  LEU377      0.0019
    219  CD1       47.2920  -12.5540  -25.5930 C.3   377  LEU377      0.0001
    220  CD2       44.8870  -12.3330  -26.3010 C.3   377  LEU377      0.0001
    221  N         50.6100  -14.0930  -23.1910 N.3   379  LEU379     -0.1245
    222  CA        51.1850  -15.2070  -23.9330 C.3   379  LEU379      0.1561
    223  C         52.2240  -15.9560  -23.1090 C.2   379  LEU379      0.2260
    224  O         52.3430  -17.1800  -23.2280 O.2   379  LEU379     -0.2867
    225  CB        51.7930  -14.7000  -25.2390 C.3   379  LEU379      0.0270
    226  CG        52.2940  -15.7560  -26.2230 C.3   379  LEU379      0.0019
    227  CD1       51.2510  -16.8390  -26.4790 C.3   379  LEU379      0.0001
    228  CD2       52.6740  -15.0850  -27.5290 C.3   379  LEU379      0.0001
    229  N         50.1130  -18.1660  -20.9410 N.3   382  ARG382     -0.1245
    230  CA        49.5460  -19.2530  -21.7320 C.3   382  ARG382      0.1563
    231  C         50.5760  -20.3450  -21.9830 C.2   382  ARG382      0.2260
    232  O         50.2460  -21.5370  -21.9650 O.2   382  ARG382     -0.2867
    233  CB        48.9990  -18.7140  -23.0550 C.3   382  ARG382      0.0307
    234  CG        47.7280  -17.8870  -22.9040 C.3   382  ARG382      0.0489
    235  CD        47.0370  -17.6430  -24.2430 C.3   382  ARG382      0.2205
    236  NE        46.3480  -18.8340  -24.7420 N.pl3 382  ARG382     -0.0865
    237  CZ        45.1490  -19.2400  -24.3280 C.cat 382  ARG382      0.5346
    238  NH1       44.4940  -18.5570  -23.3960 N.pl3 382  ARG382      0.1354
    239  NH2       44.6020  -20.3370  -24.8420 N.pl3 382  ARG382      0.1354
    240  N         50.3610  -24.1680  -20.7510 N.3   386  ARG386     -0.1245
    241  CA        50.4130  -25.2550  -21.7240 C.3   386  ARG386      0.1563
    242  C         51.4580  -26.2920  -21.3340 C.2   386  ARG386      0.2260
    243  O         51.2180  -27.4990  -21.4510 O.2   386  ARG386     -0.2867
    244  CB        50.7020  -24.6910  -23.1190 C.3   386  ARG386      0.0307
    245  CG        50.4320  -25.6570  -24.2680 C.3   386  ARG386      0.0489
    246  CD        48.9450  -25.8990  -24.4780 C.3   386  ARG386      0.2205
    247  NE        48.2010  -24.6610  -24.6910 N.pl3 386  ARG386     -0.0865
    248  CZ        46.8770  -24.5930  -24.7960 C.cat 386  ARG386      0.5346
    249  NH1       46.1400  -25.6930  -24.7080 N.pl3 386  ARG386      0.1354
    250  NH2       46.2840  -23.4230  -24.9850 N.pl3 386  ARG386      0.1354
@<TRIPOS>BOND
     1   103   104    1
     2   104   107    1
     3   104   105    1
     4   107   108    1
     5   105   106    2
     6    13    14    1
     7    13    10    1
     8    41    40    2
     9    12    11    2
    10    98    97    2
    11    11    10    1
    12   108   109   ar
    13   108   110   ar
    14    40    39    1
    15   109   111   ar
    16    14    15    1
    17    97    96    1
    18    10     9    1
    19    42    39    1
    20    42    43    1
    21   110   112   ar
    22    15    16    1
    23    17    18    1
    24    39    38    1
    25    77    78    2
    26    77    76    1
    27   101   100    2
    28     9     3   am
    29   111   113   ar
    30    44    43   ar
    31    44    46   ar
    32    75    76    1
    33    23    24    2
    34    23    22    1
    35    38    32   am
    36    43    45   ar
    37    30    31    1
    38    86    87    1
    39   112   113   ar
    40    96    95    1
    41    96    99    1
    42    18    19    1
    43    76    79    1
    44    95    88   am
    45   100    99    1
    46   100   102   am
    47     1     2    1
    48   113   114    1
    49    32    33    2
    50    32    31    1
    51     3     4    2
    52     3     2    1
    53    19    20    2
    54    19    21   am
    55    21    22    1
    56    46    47   ar
    57    31    34    1
    58    22    25    1
    59    45    47   ar
    60     2     5    1
    61    25    26    1
    62    88    87    1
    63    88    89    2
    64    87    90    1
    65    80    79    1
    66    80    81    1
    67    48    49    1
    68    26    27    1
    69    28    27    2
    70    90    91    1
    71    27    29   am
    72     7     6    2
    73    34    36    1
    74    34    35    1
    75     6     5    1
    76     6     8   am
    77   132   131   ar
    78   132   130   ar
    79    82    81    1
    80    82    83    2
    81    49    50    1
    82    49    52    1
    83    51    50    2
    84    60    58    1
    85    93    92   ar
    86   195   196    2
    87   195   194    1
    88   131   129   ar
    89    50    53   am
    90   130   128   ar
    91    85    83    1
    92    57    58    1
    93    57    54    1
    94    35    37    1
    95    91    92    1
    96    83    84    1
    97   193   194    1
    98    53    54    1
    99   194   197    1
   100    92    94   ar
   101    58    59    1
   102   192   190    1
   103    54    55    1
   104   129   127   ar
   105   128   127   ar
   106   177   175   ar
   107    67    68    1
   108   176   175   ar
   109   127   126    1
   110   175   174    1
   111   188   187    2
   112   197   198    1
   113   154   152   ar
   114   154   153   ar
   115   186   185    1
   116   186   187    1
   117   186   189    1
   118    56    55    2
   119   190   189    1
   120    55    61   am
   121    74    72   ar
   122   199   198   ar
   123   199   201   ar
   124   174   173    1
   125   152   150   ar
   126    72    73   ar
   127    72    71    1
   128   184   182    1
   129   153   151   ar
   130   198   200   ar
   131   189   191    1
   132   183   182    1
   133    68    71    1
   134    68    69    1
   135   172   171    2
   136   126   123    1
   137   201   203   ar
   138   179   182    1
   139   179   180    1
   140   179   178    1
   141    61    62    1
   142   120   119    1
   143   173   170    1
   144    69    70    2
   145   125   124    2
   146   171   178   am
   147   171   170    1
   148   156   157    1
   149   156   155    1
   150   180   181    2
   151   119   116    1
   152   119   121    1
   153   150   149   ar
   154   158   157    2
   155   151   149   ar
   156   200   202   ar
   157   123   124    1
   158   123   122    1
   159   157   159   am
   160   203   202   ar
   161   203   204    1
   162   124   133   am
   163   170   169    1
   164   116   115    1
   165   116   117    1
   166    62    63    1
   167    62    65    1
   168   155   146   am
   169    63    64    2
   170   149   148    1
   171   168   166   ar
   172   168   167   ar
   173   166   164   ar
   174   159   160    1
   175    66    65    1
   176   212   210    1
   177   133   134    1
   178   146   147    2
   179   146   145    1
   180   118   117    2
   181   134   135    1
   182   134   137    1
   183   160   161    1
   184   160   163    1
   185   167   165   ar
   186   148   145    1
   187   144   135   am
   188   144   145    1
   189   211   210    1
   190   164   165   ar
   191   164   163    1
   192   135   136    2
   193   210   209    1
   194   161   162    2
   195   138   137    1
   196   138   139    1
   197   228   226    1
   198   140   139    1
   199   140   141    2
   200   143   141    1
   201   141   142    1
   202   227   226    1
   203   209   206    1
   204   220   218    1
   205   226   225    1
   206   205   206    1
   207   206   207    1
   208   219   218    1
   209   225   222    1
   210   218   217    1
   211   250   248    1
   212   239   237    1
   213   248   249    1
   214   248   247    2
   215   236   237    2
   216   236   235    1
   217   247   246    1
   218   246   245    1
   219   207   208    2
   220   237   238    1
   221   245   244    1
   222   235   234    1
   223   217   214    1
   224   222   221    1
   225   222   223    1
   226   224   223    2
   227   244   241    1
   228   233   234    1
   229   233   230    1
   230   214   213    1
   231   214   215    1
   232   216   215    2
   233   231   232    2
   234   231   230    1
   235   230   229    1
   236   241   242    1
   237   241   240    1
   238   243   242    2
