@<TRIPOS>MOLECULE
tmp/6erkA00.pdb
 123 117 0 0 0
SMALL
GASTEIGER

@<TRIPOS>ATOM
      1  N         45.8730  -11.3160   23.6940 N.3    54  TRP54      -0.1241
      2  CA        46.5780  -10.4500   22.7620 C.3    54  TRP54       0.1605
      3  C         47.3340   -9.3350   23.4890 C.2    54  TRP54       0.2264
      4  O         48.2120   -8.7590   22.9050 O.2    54  TRP54      -0.2867
      5  CB        45.6880   -9.6920   21.7280 C.3    54  TRP54       0.0550
      6  CG        44.8620  -10.4940   20.8650 C.ar   54  TRP54       0.0003
      7  CD1       43.6190  -10.9140   21.1090 C.ar   54  TRP54       0.0946
      8  CD2       45.1850  -10.9060   19.5530 C.ar   54  TRP54       0.0152
      9  NE1       43.1570  -11.5980   20.1040 N.ar   54  TRP54      -0.2442
     10  CE2       44.0700  -11.6040   19.0900 C.ar   54  TRP54       0.0810
     11  CE3       46.2860  -10.7280   18.7130 C.ar   54  TRP54       0.0012
     12  CZ2       44.0310  -12.1900   17.8240 C.ar   54  TRP54       0.0191
     13  CZ3       46.2450  -11.2890   17.4630 C.ar   54  TRP54       0.0001
     14  CH2       45.1500  -12.0330   17.0590 C.ar   54  TRP54       0.0015
     15  N         37.7090    1.1410   27.2280 N.3   112  SER112     -0.1202
     16  CA        37.8700   -0.1700   26.7270 C.3   112  SER112      0.2020
     17  C         37.8420   -0.1050   25.1860 C.2   112  SER112      0.2619
     18  O         37.4050    0.8960   24.5950 O.2   112  SER112     -0.2717
     19  CB        36.7690   -1.0960   27.1810 C.3   112  SER112      0.2103
     20  OG        35.5820   -0.8120   26.5200 O.3   112  SER112     -0.2182
     21  N         38.2670   -1.2060   24.5540 N.am  113  GLY113     -0.1942
     22  CA        38.2780   -1.2590   23.0910 C.3   113  GLY113      0.2014
     23  C         36.8840   -1.0470   22.5100 C.2   113  GLY113      0.2639
     24  O         36.7380   -0.2740   21.5450 O.2   113  GLY113     -0.2714
     25  N         35.8750   -1.7080   23.0820 N.am  114  SER114     -0.1949
     26  CA        34.4980   -1.5310   22.6200 C.3   114  SER114      0.1924
     27  C         34.0240   -0.0750   22.6640 C.2   114  SER114      0.2314
     28  O         33.3900    0.4050   21.7210 O.2   114  SER114     -0.2863
     29  CB        33.5000   -2.4240   23.3510 C.3   114  SER114      0.2116
     30  OG        33.8230   -3.8300   23.1360 O.3   114  SER114     -0.2180
     31  N         35.6720    1.9320   19.8530 N.3   117  VAL117     -0.1245
     32  CA        34.9240    1.6810   18.6160 C.3   117  VAL117      0.1561
     33  C         33.6700    2.5130   18.6020 C.2   117  VAL117      0.2260
     34  O         33.3630    3.1490   17.5690 O.2   117  VAL117     -0.2867
     35  CB        34.7180    0.1740   18.3560 C.3   117  VAL117      0.0252
     36  CG1       33.7380   -0.0920   17.2280 C.3   117  VAL117      0.0019
     37  CG2       36.0640   -0.5110   18.0780 C.3   117  VAL117      0.0019
     38  N         35.4140   -8.4600   13.6040 N.3   146  TYR146     -0.1227
     39  CA        35.0130   -8.2590   15.0230 C.3   146  TYR146      0.1736
     40  C         35.5270   -6.9360   15.6120 C.2   146  TYR146      0.2595
     41  O         36.6990   -6.6480   15.4440 O.2   146  TYR146     -0.2718
     42  CB        35.5210   -9.3700   15.9500 C.3   146  TYR146      0.0548
     43  CG        35.1470   -9.1830   17.4100 C.ar  146  TYR146     -0.0200
     44  CD1       33.8810   -9.5660   17.8930 C.ar  146  TYR146     -0.0009
     45  CD2       36.0890   -8.6420   18.3390 C.ar  146  TYR146     -0.0009
     46  CE1       33.5580   -9.4030   19.2530 C.ar  146  TYR146      0.0417
     47  CE2       35.7500   -8.4790   19.6680 C.ar  146  TYR146      0.0417
     48  CZ        34.4870   -8.8510   20.1100 C.ar  146  TYR146      0.1957
     49  OH        34.1730   -8.6840   21.4560 O.3   146  TYR146     -0.2866
     50  N         34.6600   -6.1700   16.3020 N.am  147  TYR147     -0.1962
     51  CA        34.9590   -4.8000   16.7450 C.3   147  TYR147      0.1771
     52  C         34.4800   -4.5120   18.1760 C.2   147  TYR147      0.2620
     53  O         34.3950   -3.3090   18.5930 O.2   147  TYR147     -0.2715
     54  CB        34.3870   -3.6850   15.7730 C.3   147  TYR147      0.0574
     55  CG        34.6510   -4.0170   14.3550 C.ar  147  TYR147     -0.0198
     56  CD1       35.8520   -3.8650   13.8050 C.ar  147  TYR147     -0.0009
     57  CD2       33.6120   -4.5040   13.5500 C.ar  147  TYR147     -0.0009
     58  CE1       36.1040   -4.3410   12.5150 C.ar  147  TYR147      0.0417
     59  CE2       33.8200   -4.8930   12.2740 C.ar  147  TYR147      0.0417
     60  CZ        35.1080   -4.8460   11.7610 C.ar  147  TYR147      0.1957
     61  OH        35.4320   -5.2490   10.4610 O.3   147  TYR147     -0.2866
     62  N         34.1580   -5.5450   18.9530 N.am  148  GLY148     -0.1940
     63  CA        33.6800   -5.3170   20.3460 C.3   148  GLY148      0.2014
     64  C         32.2480   -5.8170   20.5130 C.2   148  GLY148      0.2638
     65  O         31.6010   -6.2130   19.5150 O.2   148  GLY148     -0.2714
     66  N         31.7540   -5.8330   21.7640 N.am  149  ASP149     -0.1971
     67  CA        30.4620   -6.4660   22.1410 C.3   149  ASP149      0.1709
     68  C         29.3500   -5.4830   22.5870 C.2   149  ASP149      0.2293
     69  O         28.2510   -5.9130   22.9870 O.2   149  ASP149     -0.2864
     70  CB        30.6620   -7.3340   23.3640 C.3   149  ASP149      0.1436
     71  CG        31.5290   -8.4610   23.1290 C.2   149  ASP149      0.3671
     72  OD1       31.7090   -8.8400   21.9190 O.co2 149  ASP149     -0.2456
     73  OD2       32.0030   -8.9620   24.1710 O.co2 149  ASP149     -0.2456
     74  N         39.4610   -4.4490   10.5970 N.3   203  GLU203     -0.1245
     75  CA        40.7390   -4.8140   11.2260 C.3   203  GLU203      0.1567
     76  C         41.7840   -4.9530   10.1060 C.2   203  GLU203      0.2260
     77  O         41.6110   -5.7880    9.1890 O.2   203  GLU203     -0.2867
     78  CB        40.6060   -6.1660   11.9340 C.3   203  GLU203      0.0388
     79  CG        39.6000   -6.1880   13.0510 C.3   203  GLU203      0.1160
     80  CD        39.1640   -7.5900   13.3400 C.2   203  GLU203      0.3649
     81  OE1       38.2470   -8.0360   12.6730 O.co2 203  GLU203     -0.2457
     82  OE2       39.7670   -8.2500   14.2290 O.co2 203  GLU203     -0.2457
     83  N         40.5700  -11.0090   13.7380 N.3   208  GLY208     -0.1225
     84  CA        40.8620  -11.8520   14.9090 C.3   208  GLY208      0.1811
     85  C         39.7420  -12.7520   15.2890 C.2   208  GLY208      0.2280
     86  O         39.7520  -13.9910   14.9830 O.2   208  GLY208     -0.2866
     87  N         40.5500   -0.6950   12.9240 N.3   237  ASP237     -0.1239
     88  CA        40.5030   -1.1710   14.2950 C.3   237  ASP237      0.1674
     89  C         41.7920   -1.9500   14.5430 C.2   237  ASP237      0.2266
     90  O         41.9080   -3.1090   14.1360 O.2   237  ASP237     -0.2867
     91  CB        39.3020   -2.0660   14.5290 C.3   237  ASP237      0.1410
     92  CG        39.1660   -2.5030   15.9630 C.2   237  ASP237      0.3668
     93  OD1       40.1650   -2.3150   16.7020 O.co2 237  ASP237     -0.2456
     94  OD2       38.1110   -3.1190   16.3070 O.co2 237  ASP237     -0.2456
     95  N         42.9700   -2.5450   17.6140 N.3   239  ILE239     -0.1231
     96  CA        42.9610   -2.9290   19.0510 C.3   239  ILE239      0.1692
     97  C         43.7960   -4.1930   19.2860 C.2   239  ILE239      0.2591
     98  O         44.5340   -4.2680   20.2890 O.2   239  ILE239     -0.2718
     99  CB        41.5480   -2.9300   19.6180 C.3   239  ILE239      0.0266
    100  CG1       41.0280   -1.5090   19.7090 C.3   239  ILE239      0.0019
    101  CG2       41.5430   -3.5440   20.9920 C.3   239  ILE239      0.0020
    102  CD1       39.5150   -1.3990   19.8120 C.3   239  ILE239      0.0001
    103  N         43.6680   -5.1950   18.4070 N.am  240  ALA240     -0.1980
    104  CA        44.4490   -6.4320   18.5050 C.3   240  ALA240      0.1597
    105  C         45.7900   -6.3370   17.7600 C.2   240  ALA240      0.2287
    106  O         46.8220   -6.8310   18.2350 O.2   240  ALA240     -0.2864
    107  CB        43.6620   -7.6110   18.0090 C.3   240  ALA240      0.0319
    108  N         44.3830   -2.9730   24.2320 N.3   266  LYS266     -0.1245
    109  CA        45.0010   -4.2840   24.5170 C.3   266  LYS266      0.1561
    110  C         46.4790   -4.1270   24.8930 C.2   266  LYS266      0.2260
    111  O         46.8130   -3.8000   26.0540 O.2   266  LYS266     -0.2867
    112  CB        44.6830   -5.3240   23.4630 C.3   266  LYS266      0.0271
    113  CG        43.2110   -5.8060   23.4860 C.3   266  LYS266      0.0035
    114  CD        43.0850   -7.0160   22.5890 C.3   266  LYS266      0.0206
    115  CE        41.7340   -7.6500   22.7210 C.3   266  LYS266      0.1093
    116  NZ        40.6900   -7.2930   21.7580 N.3   266  LYS266     -0.1314
    117  N         42.3710   -2.2830   31.6130 N.3   274  THR274     -0.1218
    118  CA        41.5720   -1.8680   30.5150 C.3   274  THR274      0.1862
    119  C         41.7770   -0.3920   30.2060 C.2   274  THR274      0.2287
    120  O         41.7260    0.4260   31.1000 O.2   274  THR274     -0.2866
    121  CB        40.1130   -2.2100   30.6840 C.3   274  THR274      0.1770
    122  OG1       39.3940   -2.0190   29.4290 O.3   274  THR274     -0.2211
    123  CG2       39.4620   -1.4230   31.7480 C.3   274  THR274      0.0375
@<TRIPOS>BOND
     1    77    76    2
     2    76    75    1
     3    61    60    1
     4    74    75    1
     5    75    78    1
     6    60    59   ar
     7    60    58   ar
     8    78    79    1
     9    59    57   ar
    10    58    56   ar
    11    81    80   ar
    12    87    88    1
    13    79    80    1
    14    80    82   ar
    15    57    55   ar
    16    38    39    1
    17    83    84    1
    18    56    55   ar
    19    90    89    2
    20    88    91    1
    21    88    89    1
    22    55    54    1
    23    91    92    1
    24    84    85    1
    25    86    85    2
    26    39    40    1
    27    39    42    1
    28    41    40    2
    29    40    50   am
    30    54    51    1
    31    42    43    1
    32    92    94   ar
    33    92    93   ar
    34    50    51    1
    35    51    52    1
    36    14    13   ar
    37    14    12   ar
    38    36    35    1
    39    43    44   ar
    40    43    45   ar
    41    13    11   ar
    42    34    33    2
    43    95    96    1
    44   105   106    2
    45   105   104    1
    46    12    10   ar
    47    44    46   ar
    48   107   104    1
    49    37    35    1
    50    52    53    2
    51    52    62   am
    52    45    47   ar
    53    35    32    1
    54   103   104    1
    55   103    97   am
    56    33    32    1
    57    32    31    1
    58    11     8   ar
    59    62    63    1
    60    96    97    1
    61    96    99    1
    62    10     8   ar
    63    10     9   ar
    64    46    48   ar
    65    97    98    2
    66    65    64    2
    67     8     6   ar
    68    99   100    1
    69    99   101    1
    70    47    48   ar
    71   100   102    1
    72     9     7   ar
    73    48    49    1
    74    63    64    1
    75    64    66   am
    76     6     7   ar
    77     6     5    1
    78    24    23    2
    79    28    27    2
    80     5     2    1
    81   116   115    1
    82    66    67    1
    83    72    71   ar
    84    67    68    1
    85    67    70    1
    86    23    25   am
    87    23    22    1
    88    68    69    2
    89   114   115    1
    90   114   113    1
    91    26    27    1
    92    26    25    1
    93    26    29    1
    94     2     3    1
    95     2     1    1
    96     4     3    2
    97    22    21    1
    98    71    70    1
    99    71    73   ar
   100    30    29    1
   101   112   113    1
   102   112   109    1
   103   108   109    1
   104   109   110    1
   105    21    17   am
   106    18    17    2
   107   110   111    2
   108    17    16    1
   109    20    19    1
   110    16    19    1
   111    16    15    1
   112   122   121    1
   113   119   118    1
   114   119   120    2
   115   118   121    1
   116   118   117    1
   117   121   123    1
