@<TRIPOS>MOLECULE
tmp/6es0A00.pdb
 238 227 0 0 0
SMALL
GASTEIGER

@<TRIPOS>ATOM
      1  N          7.1490   10.6160   -8.4090 N.3    20  LEU20      -0.1245
      2  CA         8.5070   10.0970   -8.4570 C.3    20  LEU20       0.1561
      3  C          8.6390    9.1570   -9.6480 C.2    20  LEU20       0.2260
      4  O          7.6810    8.4690  -10.0200 O.2    20  LEU20      -0.2867
      5  CB         8.8740    9.3680   -7.1570 C.3    20  LEU20       0.0270
      6  CG         9.3100   10.2460   -5.9850 C.3    20  LEU20       0.0019
      7  CD1        9.3860    9.4280   -4.7100 C.3    20  LEU20       0.0001
      8  CD2       10.6540   10.8800   -6.2890 C.3    20  LEU20       0.0001
      9  N          9.8470    6.1750  -10.3030 N.3    22  ARG22      -0.1245
     10  CA        10.2380    4.8570   -9.8350 C.3    22  ARG22       0.1563
     11  C          9.0350    3.9380   -9.8850 C.2    22  ARG22       0.2260
     12  O          7.9020    4.3920   -9.9960 O.2    22  ARG22      -0.2867
     13  CB        10.8070    4.9290   -8.4280 C.3    22  ARG22       0.0307
     14  CG        12.2860    5.1250   -8.4210 C.3    22  ARG22       0.0489
     15  CD        12.8200    5.2370   -7.0270 C.3    22  ARG22       0.2205
     16  NE        13.7340    6.3660   -6.9460 N.pl3  22  ARG22      -0.0865
     17  CZ        14.9990    6.3200   -7.3450 C.cat  22  ARG22       0.5346
     18  NH1       15.4950    5.1960   -7.8440 N.pl3  22  ARG22       0.1354
     19  NH2       15.7670    7.4000   -7.2420 N.pl3  22  ARG22       0.1354
     20  N          4.3190    5.9430   -7.0860 N.3    28  VAL28      -0.1245
     21  CA         5.2180    6.3970   -6.0290 C.3    28  VAL28       0.1561
     22  C          5.2930    7.9190   -6.0700 C.2    28  VAL28       0.2260
     23  O          5.4540    8.5100   -7.1430 O.2    28  VAL28      -0.2867
     24  CB         6.6260    5.7840   -6.1700 C.3    28  VAL28       0.0252
     25  CG1        7.5470    6.2910   -5.0650 C.3    28  VAL28       0.0019
     26  CG2        6.5510    4.2650   -6.1480 C.3    28  VAL28       0.0019
     27  N          8.0290    9.3280    1.5580 N.3    41  ALA41      -0.1245
     28  CA         7.5940    8.7620    0.2920 C.3    41  ALA41       0.1562
     29  C          6.2210    8.1370    0.4800 C.2    41  ALA41       0.2260
     30  O          5.9010    7.6260    1.5540 O.2    41  ALA41      -0.2867
     31  CB         8.5770    7.7090   -0.2270 C.3    41  ALA41       0.0290
     32  N          3.4900    5.4610   -1.3900 N.3    43  LYS43      -0.1245
     33  CA         3.2120    4.4400   -2.3900 C.3    43  LYS43       0.1561
     34  C          1.7070    4.2340   -2.4700 C.2    43  LYS43       0.2260
     35  O          1.0420    4.0940   -1.4380 O.2    43  LYS43      -0.2867
     36  CB         3.9200    3.1290   -2.0430 C.3    43  LYS43       0.0271
     37  CG         3.7520    2.0300   -3.0700 C.3    43  LYS43       0.0035
     38  CD         4.4940    0.7750   -2.6370 C.3    43  LYS43       0.0206
     39  CE         4.2420   -0.3870   -3.5880 C.3    43  LYS43       0.1093
     40  NZ         5.0150   -1.6040   -3.2080 N.3    43  LYS43      -0.1314
     41  N         -0.1440   -5.1800    2.6010 N.3    62  GLU62      -0.1245
     42  CA         1.2610   -4.8230    2.4250 C.3    62  GLU62       0.1567
     43  C          1.7640   -3.9920    3.5980 C.2    62  GLU62       0.2260
     44  O          2.8980   -4.1700    4.0570 O.2    62  GLU62      -0.2867
     45  CB         1.4520   -4.0640    1.1110 C.3    62  GLU62       0.0388
     46  CG         2.8880   -3.6320    0.8450 C.3    62  GLU62       0.1160
     47  CD         3.0220   -2.7660   -0.3960 C.2    62  GLU62       0.3649
     48  OE1        2.0140   -2.5830   -1.1130 O.co2  62  GLU62      -0.2457
     49  OE2        4.1380   -2.2640   -0.6520 O.co2  62  GLU62      -0.2457
     50  N          2.4010   -6.1210    6.7350 N.3    65  ILE65      -0.1231
     51  CA         3.6110   -6.9290    6.6140 C.3    65  ILE65       0.1692
     52  C          4.8520   -6.0620    6.7990 C.2    65  ILE65       0.2591
     53  O          5.7890   -6.4380    7.5120 O.2    65  ILE65      -0.2718
     54  CB         3.6250   -7.6660    5.2630 C.3    65  ILE65       0.0266
     55  CG1        2.5330   -8.7380    5.2350 C.3    65  ILE65       0.0019
     56  CG2        4.9850   -8.2890    5.0100 C.3    65  ILE65       0.0020
     57  CD1        2.5540   -9.6030    3.9950 C.3    65  ILE65       0.0001
     58  N          4.8820   -4.8890    6.1600 N.am   66  LEU66      -0.1980
     59  CA         6.0220   -3.9910    6.3240 C.3    66  LEU66       0.1596
     60  C          6.1220   -3.4800    7.7570 C.2    66  LEU66       0.2287
     61  O          7.2220   -3.1880    8.2370 O.2    66  LEU66      -0.2864
     62  CB         5.9090   -2.8300    5.3340 C.3    66  LEU66       0.0297
     63  CG         7.1090   -1.9010    5.1250 C.3    66  LEU66       0.0022
     64  CD1        8.3780   -2.6870    4.8580 C.3    66  LEU66       0.0001
     65  CD2        6.8280   -0.9550    3.9680 C.3    66  LEU66       0.0001
     66  N          7.7360   -6.2930    9.8900 N.3    69  ALA69      -0.1245
     67  CA         9.1150   -6.5960    9.5330 C.3    69  ALA69       0.1562
     68  C         10.0710   -5.4450    9.8240 C.2    69  ALA69       0.2260
     69  O         11.1670   -5.4080    9.2550 O.2    69  ALA69      -0.2867
     70  CB         9.2010   -6.9940    8.0570 C.3    69  ALA69       0.0290
     71  N         15.5900   -2.5970    6.8550 N.3    74  ILE74      -0.1231
     72  CA        14.3360   -2.6960    6.1200 C.3    74  ILE74       0.1692
     73  C         13.7410   -1.2980    6.0320 C.2    74  ILE74       0.2591
     74  O         13.8370   -0.5190    6.9870 O.2    74  ILE74      -0.2718
     75  CB        13.3520   -3.6670    6.8070 C.3    74  ILE74       0.0266
     76  CG1       13.9990   -5.0410    6.9980 C.3    74  ILE74       0.0019
     77  CG2       12.0560   -3.7860    6.0140 C.3    74  ILE74       0.0020
     78  CD1       14.3060   -5.7550    5.7100 C.3    74  ILE74       0.0001
     79  N         13.1440   -0.9800    4.8850 N.am   75  LEU75      -0.1980
     80  CA        12.5230    0.3220    4.6750 C.3    75  LEU75       0.1596
     81  C         11.5100    0.6160    5.7780 C.2    75  LEU75       0.2287
     82  O         10.5300   -0.1300    5.9270 O.2    75  LEU75      -0.2864
     83  CB        11.8430    0.3720    3.3090 C.3    75  LEU75       0.0297
     84  CG        11.0650    1.6530    2.9960 C.3    75  LEU75       0.0022
     85  CD1       11.9830    2.8680    2.9950 C.3    75  LEU75       0.0001
     86  CD2       10.3590    1.5200    1.6660 C.3    75  LEU75       0.0001
     87  N          0.5900    4.2530    1.3040 N.3    89  ILE89      -0.1245
     88  CA         1.5280    3.8620    2.3490 C.3    89  ILE89       0.1561
     89  C          2.6220    4.9180    2.4190 C.2    89  ILE89       0.2260
     90  O          3.2480    5.2380    1.4010 O.2    89  ILE89      -0.2867
     91  CB         2.1220    2.4690    2.0760 C.3    89  ILE89       0.0252
     92  CG1        1.0380    1.3940    2.1720 C.3    89  ILE89       0.0019
     93  CG2        3.2620    2.1650    3.0360 C.3    89  ILE89       0.0019
     94  CD1        1.4920    0.0330    1.6970 C.3    89  ILE89       0.0001
     95  N          6.2390    5.9890    3.9310 N.3    91  THR91      -0.1203
     96  CA         7.4800    5.4850    4.4990 C.3    91  THR91       0.1994
     97  C          8.4930    6.6200    4.5660 C.2    91  THR91       0.2618
     98  O          8.2390    7.7370    4.1100 O.2    91  THR91      -0.2717
     99  CB         8.0600    4.3270    3.6770 C.3    91  THR91       0.1784
    100  OG1        8.6080    4.8420    2.4560 O.3    91  THR91      -0.2211
    101  CG2        6.9900    3.2900    3.3620 C.3    91  THR91       0.0376
    102  N          9.6580    6.3210    5.1370 N.am   92  GLU92      -0.1965
    103  CA        10.7720    7.2540    5.0740 C.3    92  GLU92       0.1733
    104  C         11.2120    7.4480    3.6250 C.2    92  GLU92       0.2616
    105  O         10.9520    6.6200    2.7480 O.2    92  GLU92      -0.2715
    106  CB        11.9450    6.7540    5.9200 C.3    92  GLU92       0.0429
    107  CG        11.7180    6.8550    7.4240 C.3    92  GLU92       0.1163
    108  CD        12.9390    6.4510    8.2350 C.2    92  GLU92       0.3649
    109  OE1       13.9830    6.1300    7.6330 O.co2  92  GLU92      -0.2457
    110  OE2       12.8530    6.4510    9.4790 O.co2  92  GLU92      -0.2457
    111  N         11.8780    8.5700    3.3770 N.am   93  TYR93      -0.1960
    112  CA        12.3940    8.8980    2.0570 C.3    93  TYR93       0.1771
    113  C         13.8800    8.5750    2.0070 C.2    93  TYR93       0.2619
    114  O         14.6480    9.0360    2.8570 O.2    93  TYR93      -0.2715
    115  CB        12.1460   10.3730    1.7300 C.3    93  TYR93       0.0574
    116  CG        12.7250   10.8420    0.4080 C.ar   93  TYR93      -0.0198
    117  CD1       12.0730   10.5880   -0.7920 C.ar   93  TYR93      -0.0009
    118  CD2       13.9140   11.5580    0.3650 C.ar   93  TYR93      -0.0009
    119  CE1       12.5980   11.0250   -1.9990 C.ar   93  TYR93       0.0417
    120  CE2       14.4420   11.9980   -0.8340 C.ar   93  TYR93       0.0417
    121  CZ        13.7820   11.7320   -2.0100 C.ar   93  TYR93       0.1957
    122  OH        14.3130   12.1710   -3.1960 O.3    93  TYR93      -0.2866
    123  N         14.2790    7.7770    1.0170 N.am   94  MET94      -0.1964
    124  CA        15.6830    7.4480    0.8160 C.3    94  MET94       0.1722
    125  C         16.2690    8.4180   -0.2000 C.2    94  MET94       0.2458
    126  O         15.9040    8.3500   -1.3840 O.2    94  MET94      -0.2730
    127  CB        15.8330    6.0130    0.3380 C.3    94  MET94       0.0427
    128  CG        15.3370    4.9750    1.3320 C.3    94  MET94       0.0599
    129  SD        16.3140    4.9230    2.8480 S.3    94  MET94      -0.1393
    130  CE        15.1660    5.6310    4.0240 C.3    94  MET94       0.0692
    131  N         17.1690    9.3210    0.1970 N.am   95  PRO95      -0.2727
    132  CA        17.5940   10.3840   -0.7290 C.3    95  PRO95       0.1402
    133  C         18.4390    9.8950   -1.8950 C.2    95  PRO95       0.2269
    134  O         18.4010   10.5140   -2.9660 O.2    95  PRO95      -0.2865
    135  CB        18.3930   11.3380    0.1730 C.3    95  PRO95       0.0296
    136  CG        17.9880   10.9920    1.5690 C.3    95  PRO95       0.0237
    137  CD        17.6960    9.5280    1.5540 C.3    95  PRO95       0.0939
    138  N         18.3690    7.1580   -3.7850 N.3    97  GLY97      -0.1225
    139  CA        17.8310    6.2870   -4.8170 C.3    97  GLY97       0.1811
    140  C         18.1090    4.8180   -4.5590 C.2    97  GLY97       0.2280
    141  O         18.0850    4.3400   -3.4170 O.2    97  GLY97      -0.2866
    142  N         14.4230  -11.2960    7.5960 N.3   131  LEU131     -0.1245
    143  CA        13.1140  -11.6880    7.0820 C.3   131  LEU131      0.1561
    144  C         12.9230  -13.1970    7.1530 C.2   131  LEU131      0.2260
    145  O         11.8200  -13.6750    7.4420 O.2   131  LEU131     -0.2867
    146  CB        12.9430  -11.1970    5.6450 C.3   131  LEU131      0.0270
    147  CG        12.8150   -9.6920    5.4130 C.3   131  LEU131      0.0019
    148  CD1       12.6310   -9.4030    3.9260 C.3   131  LEU131      0.0001
    149  CD2       11.6580   -9.1260    6.2230 C.3   131  LEU131      0.0001
    150  N          9.5040  -14.7740    6.2290 N.3   138  LEU138     -0.1231
    151  CA         9.1540  -13.8810    5.1360 C.3   138  LEU138      0.1693
    152  C         10.1170  -14.0940    3.9780 C.2   138  LEU138      0.2592
    153  O         11.3380  -14.0840    4.1670 O.2   138  LEU138     -0.2718
    154  CB         9.1850  -12.4200    5.5830 C.3   138  LEU138      0.0284
    155  CG         7.8840  -11.8740    6.1660 C.3   138  LEU138      0.0019
    156  CD1        7.9860  -10.3700    6.3620 C.3   138  LEU138      0.0001
    157  CD2        6.7140  -12.2220    5.2610 C.3   138  LEU138      0.0001
    158  N          9.5640  -14.2890    2.7870 N.am  139  LEU139     -0.1966
    159  CA        10.3440  -14.5040    1.5790 C.3   139  LEU139      0.1728
    160  C         10.0780  -13.3570    0.6160 C.2   139  LEU139      0.2616
    161  O          8.9190  -13.0270    0.3420 O.2   139  LEU139     -0.2715
    162  CB         9.9940  -15.8530    0.9470 C.3   139  LEU139      0.0311
    163  CG         9.9920  -17.0170    1.9450 C.3   139  LEU139      0.0022
    164  CD1        9.5850  -18.3200    1.2780 C.3   139  LEU139      0.0001
    165  CD2       11.3490  -17.1560    2.6190 C.3   139  LEU139      0.0001
    166  N         11.1540  -12.7450    0.1170 N.am  140  HIS140     -0.1973
    167  CA        11.0210  -11.5930   -0.7690 C.3   140  HIS140      0.1656
    168  C         10.5800  -12.0230   -2.1640 C.2   140  HIS140      0.2291
    169  O          9.5470  -11.5700   -2.6690 O.2   140  HIS140     -0.2864
    170  CB        12.3470  -10.8290   -0.8270 C.3   140  HIS140      0.0771
    171  CG        12.2370   -9.4600   -1.4250 C.ar  140  HIS140      0.0820
    172  ND1       11.7790   -9.2370   -2.7070 N.ar  140  HIS140     -0.2267
    173  CD2       12.5340   -8.2410   -0.9160 C.ar  140  HIS140      0.1154
    174  CE1       11.7920   -7.9400   -2.9580 C.ar  140  HIS140      0.1986
    175  NE2       12.2470   -7.3130   -1.8880 N.ar  140  HIS140     -0.2212
    176  N         17.3810    0.1470   -1.7120 N.3   149  LEU149     -0.1245
    177  CA        17.4190    1.5930   -1.5500 C.3   149  LEU149      0.1561
    178  C         18.6000    2.0050   -0.6780 C.2   149  LEU149      0.2260
    179  O         19.1610    1.2060    0.0750 O.2   149  LEU149     -0.2867
    180  CB        16.1060    2.1100   -0.9540 C.3   149  LEU149      0.0270
    181  CG        14.8630    1.8510   -1.8100 C.3   149  LEU149      0.0019
    182  CD1       13.6300    2.5130   -1.2170 C.3   149  LEU149      0.0001
    183  CD2       15.0900    2.3220   -3.2390 C.3   149  LEU149      0.0001
    184  N         15.9950   -2.3930    2.3400 N.3   158  ILE158     -0.1231
    185  CA        15.3570   -3.3100    1.3990 C.3   158  ILE158      0.1692
    186  C         13.8910   -2.9290    1.2520 C.2   158  ILE158      0.2592
    187  O         13.1880   -2.7190    2.2470 O.2   158  ILE158     -0.2718
    188  CB        15.5200   -4.7650    1.8650 C.3   158  ILE158      0.0266
    189  CG1       16.9830   -5.1930    1.7290 C.3   158  ILE158      0.0019
    190  CG2       14.6080   -5.6940    1.0740 C.3   158  ILE158      0.0020
    191  CD1       17.2940   -6.5100    2.3700 C.3   158  ILE158      0.0001
    192  N         13.4270   -2.8320    0.0070 N.am  159  ALA159     -0.1966
    193  CA        12.0740   -2.3830   -0.2880 C.3   159  ALA159      0.1728
    194  C         11.4890   -3.2450   -1.3980 C.2   159  ALA159      0.2616
    195  O         12.1280   -4.1760   -1.8960 O.2   159  ALA159     -0.2715
    196  CB        12.0580   -0.8980   -0.6720 C.3   159  ALA159      0.0334
    197  N         10.2580   -2.9240   -1.7900 N.am  160  ASP160     -0.1957
    198  CA         9.5690   -3.6660   -2.8430 C.3   160  ASP160      0.1840
    199  C          8.6130   -2.7100   -3.5460 C.2   160  ASP160      0.2622
    200  O          7.6220   -2.2770   -2.9510 O.2   160  ASP160     -0.2715
    201  CB         8.8250   -4.8670   -2.2630 C.3   160  ASP160      0.1450
    202  CG         8.4030   -5.8690   -3.3250 C.2   160  ASP160      0.3671
    203  OD1        7.9390   -5.4480   -4.4090 O.co2 160  ASP160     -0.2456
    204  OD2        8.5380   -7.0850   -3.0720 O.co2 160  ASP160     -0.2456
    205  N          8.9040   -2.3860   -4.8070 N.am  161  PHE161     -0.1974
    206  CA         8.0500   -1.4710   -5.5570 C.3   161  PHE161      0.1639
    207  C          6.8570   -2.1610   -6.2060 C.2   161  PHE161      0.2290
    208  O          5.9770   -1.4710   -6.7310 O.2   161  PHE161     -0.2864
    209  CB         8.8630   -0.7420   -6.6310 C.3   161  PHE161      0.0560
    210  CG         9.7690    0.3290   -6.0870 C.ar  161  PHE161     -0.0200
    211  CD1        9.2630    1.5710   -5.7360 C.ar  161  PHE161     -0.0042
    212  CD2       11.1280    0.0980   -5.9350 C.ar  161  PHE161     -0.0042
    213  CE1       10.0940    2.5600   -5.2370 C.ar  161  PHE161     -0.0003
    214  CE2       11.9650    1.0820   -5.4360 C.ar  161  PHE161     -0.0003
    215  CZ        11.4480    2.3140   -5.0870 C.ar  161  PHE161     -0.0000
    216  N          2.1040   -8.4240   -5.8110 N.3   165  LYS165     -0.1231
    217  CA         2.4100   -9.3970   -4.7680 C.3   165  LYS165      0.1693
    218  C          1.3140   -9.4630   -3.7130 C.2   165  LYS165      0.2592
    219  O          1.1620  -10.4890   -3.0410 O.2   165  LYS165     -0.2718
    220  CB         3.7480   -9.0590   -4.1080 C.3   165  LYS165      0.0285
    221  CG         4.9620   -9.5820   -4.8490 C.3   165  LYS165      0.0035
    222  CD         6.2460   -9.2060   -4.1300 C.3   165  LYS165      0.0206
    223  CE         7.3860  -10.1290   -4.5340 C.3   165  LYS165      0.1093
    224  NZ         7.5230  -10.2340   -6.0140 N.3   165  LYS165     -0.1314
    225  N          0.5490   -8.3890   -3.5520 N.am  166  TRP166     -0.1976
    226  CA        -0.4770   -8.3290   -2.5190 C.3   166  TRP166      0.1640
    227  C         -1.8450   -8.0250   -3.1200 C.2   166  TRP166      0.2290
    228  O         -2.8730   -8.2130   -2.4690 O.2   166  TRP166     -0.2864
    229  CB        -0.1140   -7.2780   -1.4660 C.3   166  TRP166      0.0576
    230  CG         1.1850   -7.5560   -0.7670 C.ar  166  TRP166      0.0006
    231  CD1        1.3800   -8.3810    0.3030 C.ar  166  TRP166      0.0946
    232  CD2        2.4690   -7.0080   -1.0890 C.ar  166  TRP166      0.0152
    233  NE1        2.7050   -8.3820    0.6660 N.ar  166  TRP166     -0.2442
    234  CE2        3.3950   -7.5480   -0.1720 C.ar  166  TRP166      0.0810
    235  CE3        2.9260   -6.1170   -2.0640 C.ar  166  TRP166      0.0012
    236  CZ2        4.7500   -7.2240   -0.2000 C.ar  166  TRP166      0.0191
    237  CZ3        4.2710   -5.7980   -2.0910 C.ar  166  TRP166      0.0001
    238  CH2        5.1670   -6.3500   -1.1640 C.ar  166  TRP166      0.0015
@<TRIPOS>BOND
     1     9    10    1
     2     4     3    2
     3    12    11    2
     4    11    10    1
     5    10    13    1
     6     3     2    1
     7     2     1    1
     8     2     5    1
     9    13    14    1
    10    14    15    1
    11    18    17    1
    12    17    19    1
    13    17    16    2
    14     5     6    1
    15    23    22    2
    16    20    21    1
    17    15    16    1
    18   208   207    2
    19   209   210    1
    20   209   206    1
    21     8     6    1
    22   207   206    1
    23    24    26    1
    24    24    21    1
    25    24    25    1
    26   210   212   ar
    27   210   211   ar
    28    22    21    1
    29   224   223    1
    30     6     7    1
    31   212   214   ar
    32   216   217    1
    33   211   213   ar
    34   206   205    1
    35   214   215   ar
    36   213   215   ar
    37   221   222    1
    38   221   220    1
    39   139   140    1
    40   139   138    1
    41   205   199   am
    42   217   220    1
    43   217   218    1
    44   140   141    2
    45   223   222    1
    46   203   202   ar
    47   218   225   am
    48   218   219    2
    49    39    40    1
    50    39    38    1
    51   225   226    1
    52   199   200    2
    53   199   198    1
    54   202   204   ar
    55   202   201    1
    56   183   181    1
    57   122   121    1
    58   227   226    1
    59   227   228    2
    60    37    38    1
    61    37    36    1
    62   134   133    2
    63   174   172   ar
    64   174   175   ar
    65   198   201    1
    66   198   197    1
    67   172   171   ar
    68   169   168    2
    69   226   229    1
    70    34    33    1
    71    34    35    2
    72    33    36    1
    73    33    32    1
    74   168   167    1
    75   237   235   ar
    76   237   238   ar
    77   235   232   ar
    78   121   119   ar
    79   121   120   ar
    80   119   117   ar
    81   195   194    2
    82   133   132    1
    83   175   173   ar
    84   181   182    1
    85   181   180    1
    86   197   194   am
    87   176   177    1
    88   177   180    1
    89   177   178    1
    90   229   230    1
    91   171   173   ar
    92   171   170    1
    93   194   193    1
    94   126   125    2
    95   238   236   ar
    96    48    47   ar
    97   232   230   ar
    98   232   234   ar
    99   120   118   ar
   100   170   167    1
   101   117   116   ar
   102   167   166    1
   103   230   231   ar
   104   132   135    1
   105   132   131    1
   106   178   179    2
   107   196   193    1
   108    49    47   ar
   109    47    46    1
   110   193   192    1
   111    31    28    1
   112   125   131   am
   113   125   124    1
   114   236   234   ar
   115   234   233   ar
   116   192   186   am
   117   166   160   am
   118   135   136    1
   119   131   137    1
   120    28    29    1
   121    28    27    1
   122   231   233   ar
   123   127   124    1
   124   127   128    1
   125   161   160    2
   126   118   116   ar
   127   116   115    1
   128    29    30    2
   129   160   159    1
   130   124   123    1
   131    46    45    1
   132   162   159    1
   133   162   163    1
   134   123   113   am
   135   190   188    1
   136    45    42    1
   137   186   185    1
   138   186   187    2
   139   164   163    1
   140    87    88    1
   141   128   129    1
   142   185   188    1
   143   185   184    1
   144    90    89    2
   145   137   136    1
   146   159   158    1
   147    86    84    1
   148    94    92    1
   149   189   188    1
   150   189   191    1
   151   115   112    1
   152   163   165    1
   153   113   112    1
   154   113   114    2
   155   112   111    1
   156    91    92    1
   157    91    88    1
   158    91    93    1
   159    88    89    1
   160    42    41    1
   161    42    43    1
   162   100    99    1
   163   105   104    2
   164   158   152   am
   165   129   130    1
   166    85    84    1
   167    84    83    1
   168    83    80    1
   169   101    99    1
   170   111   104   am
   171    43    44    2
   172   104   103    1
   173    99    96    1
   174   148   147    1
   175    95    96    1
   176    65    63    1
   177   152   153    2
   178   152   151    1
   179    57    55    1
   180    98    97    2
   181    96    97    1
   182    97   102   am
   183    80    79    1
   184    80    81    1
   185    64    63    1
   186    79    73   am
   187    56    54    1
   188   103   102    1
   189   103   106    1
   190    63    62    1
   191   151   154    1
   192   151   150    1
   193    55    54    1
   194   157   155    1
   195    54    51    1
   196    62    59    1
   197   147   146    1
   198   147   149    1
   199   154   155    1
   200   146   143    1
   201    78    76    1
   202    81    82    2
   203   106   107    1
   204    77    75    1
   205    73    72    1
   206    73    74    2
   207    72    75    1
   208    72    71    1
   209    58    59    1
   210    58    52   am
   211   155   156    1
   212    59    60    1
   213    51    50    1
   214    51    52    1
   215    52    53    2
   216    75    76    1
   217   143   144    1
   218   143   142    1
   219   144   145    2
   220   107   108    1
   221   109   108   ar
   222    60    61    2
   223    70    67    1
   224   108   110   ar
   225    69    68    2
   226    67    68    1
   227    67    66    1
