@<TRIPOS>MOLECULE
tmp/6esbA00.pdb
 108 103 0 0 0
SMALL
GASTEIGER

@<TRIPOS>ATOM
      1  N        501.9860  457.4740  374.8030 N.3    45  PRO45      -0.2102
      2  CA       503.1600  457.8840  375.5960 C.3    45  PRO45       0.1504
      3  C        502.9240  459.0680  376.5200 C.2    45  PRO45       0.2575
      4  O        503.6980  459.2450  377.4690 O.2    45  PRO45      -0.2718
      5  CB       504.2050  458.2190  374.5250 C.3    45  PRO45       0.0282
      6  CG       503.4100  458.5880  373.3390 C.3    45  PRO45       0.0208
      7  CD       502.1720  457.7420  373.3690 C.3    45  PRO45       0.0893
      8  N        501.8940  459.8730  376.2800 N.am   46  ASP46      -0.1974
      9  CA       501.4460  460.8710  377.2400 C.3    46  ASP46       0.1708
     10  C        499.9590  461.1210  377.0290 C.2    46  ASP46       0.2293
     11  O        499.3670  460.6820  376.0420 O.2    46  ASP46      -0.2864
     12  CB       502.2610  462.1680  377.1460 C.3    46  ASP46       0.1436
     13  CG       502.3340  462.7160  375.7420 C.2    46  ASP46       0.3671
     14  OD1      501.8920  462.0260  374.8080 O.co2  46  ASP46      -0.2456
     15  OD2      502.8340  463.8460  375.5710 O.co2  46  ASP46      -0.2456
     16  N        498.3110  462.9990  373.7930 N.3    49  LEU49      -0.1245
     17  CA       498.5940  462.4150  372.4830 C.3    49  LEU49       0.1561
     18  C        498.1440  460.9520  372.5240 C.2    49  LEU49       0.2260
     19  O        498.8580  460.0760  373.0130 O.2    49  LEU49      -0.2867
     20  CB       500.0700  462.5810  372.1620 C.3    49  LEU49       0.0270
     21  CG       500.7580  462.1410  370.8870 C.3    49  LEU49       0.0019
     22  CD1      501.8020  463.1620  370.5230 C.3    49  LEU49       0.0001
     23  CD2      501.4500  460.8690  371.2090 C.3    49  LEU49       0.0001
     24  N        499.0480  457.2350  369.2820 N.3    52  PHE52      -0.1227
     25  CA       500.3940  456.9850  368.7960 C.3    52  PHE52       0.1736
     26  C        501.0970  456.0300  369.7500 C.2    52  PHE52       0.2596
     27  O        500.5250  455.5560  370.7330 O.2    52  PHE52      -0.2718
     28  CB       501.2060  458.2760  368.6740 C.3    52  PHE52       0.0547
     29  CG       500.7270  459.2340  367.6140 C.ar   52  PHE52      -0.0202
     30  CD1      499.8700  458.8430  366.6120 C.ar   52  PHE52      -0.0042
     31  CD2      501.1630  460.5460  367.6280 C.ar   52  PHE52      -0.0042
     32  CE1      499.4510  459.7520  365.6540 C.ar   52  PHE52      -0.0003
     33  CE2      500.7430  461.4480  366.6750 C.ar   52  PHE52      -0.0003
     34  CZ       499.8860  461.0430  365.6880 C.ar   52  PHE52      -0.0000
     35  N        502.3590  455.7610  369.4550 N.am   53  SER53      -0.1938
     36  CA       503.2740  455.0860  370.3600 C.3    53  SER53       0.2055
     37  C        504.3910  456.0550  370.7190 C.2    53  SER53       0.2643
     38  O        504.3610  457.2300  370.3550 O.2    53  SER53      -0.2714
     39  CB       503.8350  453.8130  369.7280 C.3    53  SER53       0.2130
     40  OG       504.6500  454.1270  368.6150 O.3    53  SER53      -0.2179
     41  N        505.3810  455.5610  371.4460 N.am   54  LEU54      -0.1963
     42  CA       506.5650  456.3550  371.7080 C.3    54  LEU54       0.1728
     43  C        507.5340  456.1460  370.5430 C.2    54  LEU54       0.2616
     44  O        507.2810  455.3430  369.6410 O.2    54  LEU54      -0.2715
     45  CB       507.1410  455.9900  373.0830 C.3    54  LEU54       0.0311
     46  CG       508.1900  456.8270  373.8360 C.3    54  LEU54       0.0022
     47  CD1      507.9150  456.8050  375.3190 C.3    54  LEU54       0.0001
     48  CD2      509.5990  456.3150  373.6050 C.3    54  LEU54       0.0001
     49  N        508.5980  456.9490  370.5190 N.am   55  LYS55      -0.1977
     50  CA       509.7180  456.7640  369.6040 C.3    55  LYS55       0.1596
     51  C        510.2470  455.3360  369.6330 C.2    55  LYS55       0.2287
     52  O        510.5700  454.7950  370.6930 O.2    55  LYS55      -0.2864
     53  CB       510.8440  457.7250  369.9790 C.3    55  LYS55       0.0298
     54  CG       512.1150  457.5270  369.1720 C.3    55  LYS55       0.0038
     55  CD       513.1670  458.5710  369.5040 C.3    55  LYS55       0.0206
     56  CE       514.0580  458.1250  370.6500 C.3    55  LYS55       0.1093
     57  NZ       513.4690  458.4440  371.9780 N.3    55  LYS55      -0.1314
     58  N        502.7780  467.4120  362.3550 N.3   118  GLY118     -0.1225
     59  CA       504.1980  467.2420  362.6170 C.3   118  GLY118      0.1811
     60  C        504.9370  466.1570  361.8540 C.2   118  GLY118      0.2280
     61  O        506.0060  465.7230  362.2910 O.2   118  GLY118     -0.2866
     62  N        504.0170  456.8230  361.7950 N.3   257  PHE257     -0.1241
     63  CA       503.9840  458.2730  361.6760 C.3   257  PHE257      0.1605
     64  C        505.3960  458.7950  361.8910 C.2   257  PHE257      0.2264
     65  O        505.9180  458.7450  363.0060 O.2   257  PHE257     -0.2867
     66  CB       503.0120  458.8750  362.6830 C.3   257  PHE257      0.0534
     67  CG       502.8900  460.3610  362.5830 C.ar  257  PHE257     -0.0203
     68  CD1      502.2120  460.9370  361.5260 C.ar  257  PHE257     -0.0042
     69  CD2      503.4450  461.1830  363.5440 C.ar  257  PHE257     -0.0042
     70  CE1      502.0980  462.3040  361.4260 C.ar  257  PHE257     -0.0003
     71  CE2      503.3290  462.5510  363.4480 C.ar  257  PHE257     -0.0003
     72  CZ       502.6580  463.1110  362.3900 C.ar  257  PHE257     -0.0000
     73  N        507.9530  461.6070  362.3900 N.3   259  ASN259     -0.1225
     74  CA       507.9790  462.9860  362.8520 C.3   259  ASN259      0.1785
     75  C        508.9650  463.8150  362.0330 C.2   259  ASN259      0.2598
     76  O        509.6580  463.3150  361.1450 O.2   259  ASN259     -0.2718
     77  CB       508.3330  463.0410  364.3340 C.3   259  ASN259      0.1169
     78  CG       507.2260  462.5200  365.2110 C.2   259  ASN259      0.2627
     79  OD1      506.0640  462.8600  365.0230 O.2   259  ASN259     -0.2716
     80  ND2      507.5750  461.6740  366.1670 N.am  259  ASN259     -0.0877
     81  N        509.0400  465.1080  362.3550 N.am  260  SER260     -0.1938
     82  CA       509.8900  466.0240  361.6050 C.3   260  SER260      0.2055
     83  C        511.3700  465.7790  361.8540 C.2   260  SER260      0.2643
     84  O        512.1990  466.1280  361.0070 O.2   260  SER260     -0.2714
     85  CB       509.5440  467.4680  361.9590 C.3   260  SER260      0.2130
     86  OG       508.2220  467.7830  361.5640 O.3   260  SER260     -0.2179
     87  N        511.7200  465.1880  362.9930 N.am  261  SER261     -0.1949
     88  CA       513.1020  464.8900  363.3290 C.3   261  SER261      0.1924
     89  C        513.5150  463.4840  362.9180 C.2   261  SER261      0.2314
     90  O        514.5280  462.9770  363.4120 O.2   261  SER261     -0.2863
     91  CB       513.3260  465.0860  364.8270 C.3   261  SER261      0.2116
     92  OG       512.5430  464.1730  365.5730 O.3   261  SER261     -0.2180
     93  N        511.8470  460.8680  363.7110 N.3   263  THR263     -0.1218
     94  CA       511.3280  459.9740  364.7360 C.3   263  THR263      0.1862
     95  C        510.0660  459.2750  364.2460 C.2   263  THR263      0.2287
     96  O        509.1320  459.9260  363.7730 O.2   263  THR263     -0.2866
     97  CB       511.0340  460.7780  366.0030 C.3   263  THR263      0.1770
     98  OG1      512.2550  461.3110  366.5260 O.3   263  THR263     -0.2211
     99  CG2      510.3580  459.9330  367.0490 C.3   263  THR263      0.0375
    100  N        506.8120  456.4740  364.9970 N.3   265  GLN265     -0.1245
    101  CA       505.9120  455.9980  366.0360 C.3   265  GLN265      0.1566
    102  C        504.6390  455.5030  365.3680 C.2   265  GLN265      0.2260
    103  O        504.2800  455.9570  364.2810 O.2   265  GLN265     -0.2867
    104  CB       505.6170  457.0950  367.0630 C.3   265  GLN265      0.0367
    105  CG       505.0350  458.3460  366.4700 C.3   265  GLN265      0.0905
    106  CD       505.0040  459.4880  367.4520 C.2   265  GLN265      0.2608
    107  OE1      505.3250  459.3220  368.6240 O.2   265  GLN265     -0.2717
    108  NE2      504.6530  460.6710  366.9700 N.am  265  GLN265     -0.0878
@<TRIPOS>BOND
     1    84    83    2
     2    76    75    2
     3    70    68   ar
     4    70    72   ar
     5    68    67   ar
     6    86    85    1
     7    82    83    1
     8    82    85    1
     9    82    81    1
    10    63    62    1
    11    63    64    1
    12    63    66    1
    13    83    87   am
    14    60    61    2
    15    60    59    1
    16    64    65    2
    17    75    81   am
    18    75    74    1
    19    58    59    1
    20    73    74    1
    21    72    71   ar
    22    67    66    1
    23    67    69   ar
    24    74    77    1
    25    89    88    1
    26    89    90    2
    27    87    88    1
    28    88    91    1
    29    71    69   ar
    30    93    94    1
    31    96    95    2
    32    95    94    1
    33   103   102    2
    34    77    78    1
    35    94    97    1
    36    91    92    1
    37   100   101    1
    38    79    78    2
    39    78    80   am
    40   102   101    1
    41    32    34   ar
    42    32    30   ar
    43    34    33   ar
    44    97    98    1
    45    97    99    1
    46   101   104    1
    47   105   104    1
    48   105   106    1
    49    30    29   ar
    50    33    31   ar
    51   108   106   am
    52   106   107    2
    53    29    31   ar
    54    29    28    1
    55    40    39    1
    56    28    25    1
    57    25    24    1
    58    25    26    1
    59    54    55    1
    60    54    53    1
    61    35    26   am
    62    35    36    1
    63    55    56    1
    64    50    51    1
    65    50    53    1
    66    50    49    1
    67    51    52    2
    68    44    43    2
    69    39    36    1
    70    26    27    2
    71    38    37    2
    72    36    37    1
    73    49    43   am
    74    22    21    1
    75    43    42    1
    76    56    57    1
    77    37    41   am
    78    21    23    1
    79    21    20    1
    80    41    42    1
    81    42    45    1
    82    20    17    1
    83    17    18    1
    84    17    16    1
    85    18    19    2
    86    45    46    1
    87     6     7    1
    88     6     5    1
    89     7     1    1
    90    48    46    1
    91    46    47    1
    92     5     2    1
    93     1     2    1
    94    14    13   ar
    95    15    13   ar
    96     2     3    1
    97    13    12    1
    98    11    10    2
    99     8     3   am
   100     8     9    1
   101     3     4    2
   102    10     9    1
   103    12     9    1
