@<TRIPOS>MOLECULE
tmp/6esjB05.pdb
 195 192 0 0 0
SMALL
GASTEIGER

@<TRIPOS>ATOM
      1  N        -15.4380   22.7140  -34.0000 N.3    67  ASP67      -0.1239
      2  CA       -14.2800   23.0670  -34.8200 C.3    67  ASP67       0.1674
      3  C        -13.0740   23.1950  -33.8990 C.2    67  ASP67       0.2266
      4  O        -12.7880   24.2610  -33.3520 O.2    67  ASP67      -0.2867
      5  CB       -14.5340   24.3570  -35.5910 C.3    67  ASP67       0.1410
      6  CG       -13.3620   24.7500  -36.4740 C.2    67  ASP67       0.3668
      7  OD1      -12.5320   23.8730  -36.7950 O.co2  67  ASP67      -0.2456
      8  OD2      -13.2710   25.9380  -36.8470 O.co2  67  ASP67      -0.2456
      9  N        -17.1180   30.6380  -33.8010 N.3    79  TRP79      -0.1241
     10  CA       -18.3200   30.0070  -34.3240 C.3    79  TRP79       0.1605
     11  C        -18.6870   28.7270  -33.5860 C.2    79  TRP79       0.2264
     12  O        -19.6870   28.0930  -33.9340 O.2    79  TRP79      -0.2867
     13  CB       -18.1470   29.7170  -35.8170 C.3    79  TRP79       0.0550
     14  CG       -17.5760   30.8750  -36.5770 C.ar   79  TRP79       0.0003
     15  CD1      -16.3020   30.9980  -37.0520 C.ar   79  TRP79       0.0946
     16  CD2      -18.2590   32.0800  -36.9440 C.ar   79  TRP79       0.0152
     17  NE1      -16.1510   32.2030  -37.6960 N.ar   79  TRP79      -0.2442
     18  CE2      -17.3380   32.8860  -37.6430 C.ar   79  TRP79       0.0810
     19  CE3      -19.5600   32.5540  -36.7510 C.ar   79  TRP79       0.0012
     20  CZ2      -17.6780   34.1380  -38.1490 C.ar   79  TRP79       0.0191
     21  CZ3      -19.8930   33.7980  -37.2530 C.ar   79  TRP79       0.0001
     22  CH2      -18.9570   34.5750  -37.9430 C.ar   79  TRP79       0.0015
     23  N        -25.7580   30.1250  -40.1820 N.3   112  GLY112     -0.1210
     24  CA       -25.0880   29.2790  -41.1410 C.3   112  GLY112      0.1956
     25  C        -24.3170   28.1540  -40.4840 C.2   112  GLY112      0.2612
     26  O        -24.6080   27.7330  -39.3580 O.2   112  GLY112     -0.2717
     27  N        -23.3120   27.6580  -41.2000 N.am  113  GLY113     -0.1942
     28  CA       -22.4930   26.5770  -40.6900 C.3   113  GLY113      0.2014
     29  C        -22.4870   25.3560  -41.5850 C.2   113  GLY113      0.2639
     30  O        -22.2250   24.2420  -41.1210 O.2   113  GLY113     -0.2714
     31  N        -22.7740   25.5550  -42.8690 N.am  114  GLY114     -0.1954
     32  CA       -22.7780   24.4560  -43.8200 C.3   114  GLY114      0.1869
     33  C        -23.7630   23.3580  -43.4930 C.2   114  GLY114      0.2309
     34  O        -23.5280   22.1980  -43.8490 O.2   114  GLY114     -0.2863
     35  N        -24.1500   21.9130  -40.8590 N.3   116  GLN116     -0.1231
     36  CA       -23.5250   20.9780  -39.9330 C.3   116  GLN116      0.1698
     37  C        -23.2160   21.5800  -38.5710 C.2   116  GLN116      0.2592
     38  O        -23.2320   20.8520  -37.5760 O.2   116  GLN116     -0.2718
     39  CB       -22.2220   20.4150  -40.5240 C.3   116  GLN116      0.0381
     40  CG       -22.3200   19.9600  -41.9730 C.3   116  GLN116      0.0905
     41  CD       -23.2200   18.7530  -42.1530 C.2   116  GLN116      0.2608
     42  OE1      -22.8930   17.6490  -41.7170 O.2   116  GLN116     -0.2717
     43  NE2      -24.3600   18.9570  -42.8040 N.am  116  GLN116     -0.0878
     44  N        -22.9220   22.8780  -38.4980 N.am  117  THR117     -0.1953
     45  CA       -22.6550   23.5370  -37.2250 C.3   117  THR117      0.1897
     46  C        -23.5160   24.7850  -37.0790 C.2   117  THR117      0.2313
     47  O        -24.4180   25.0230  -37.8880 O.2   117  THR117     -0.2863
     48  CB       -21.1740   23.9100  -37.1000 C.3   117  THR117      0.1794
     49  OG1      -20.8370   24.8810  -38.0990 O.3   117  THR117     -0.2208
     50  CG2      -20.2880   22.6830  -37.2670 C.3   117  THR117      0.0378
     51  N        -24.3260   36.8190  -33.3340 N.3   125  TYR125     -0.1241
     52  CA       -25.7390   36.8260  -33.6830 C.3   125  TYR125      0.1605
     53  C        -26.5950   37.5540  -32.6520 C.2   125  TYR125      0.2264
     54  O        -27.8170   37.3730  -32.6330 O.2   125  TYR125     -0.2867
     55  CB       -26.2460   35.3940  -33.8650 C.3   125  TYR125      0.0534
     56  CG       -25.4760   34.5810  -34.8820 C.ar  125  TYR125     -0.0201
     57  CD1      -24.8690   35.1860  -35.9750 C.ar  125  TYR125     -0.0009
     58  CD2      -25.3630   33.2050  -34.7510 C.ar  125  TYR125     -0.0009
     59  CE1      -24.1660   34.4410  -36.9050 C.ar  125  TYR125      0.0417
     60  CE2      -24.6650   32.4520  -35.6750 C.ar  125  TYR125      0.0417
     61  CZ       -24.0690   33.0740  -36.7500 C.ar  125  TYR125      0.1957
     62  OH       -23.3740   32.3250  -37.6710 O.3   125  TYR125     -0.2866
     63  N        -27.0430   33.5870  -43.6880 N.3   194  GLU194     -0.1231
     64  CA       -25.6540   33.7270  -44.1190 C.3   194  GLU194      0.1699
     65  C        -25.0710   32.3540  -44.4290 C.2   194  GLU194      0.2592
     66  O        -24.8130   31.5670  -43.5130 O.2   194  GLU194     -0.2718
     67  CB       -24.8270   34.4420  -43.0520 C.3   194  GLU194      0.0402
     68  CG       -23.5650   35.1010  -43.5800 C.3   194  GLU194      0.1161
     69  CD       -22.3870   34.1490  -43.6360 C.2   194  GLU194      0.3649
     70  OE1      -21.3650   34.5080  -44.2540 O.co2 194  GLU194     -0.2457
     71  OE2      -22.4800   33.0460  -43.0570 O.co2 194  GLU194     -0.2457
     72  N        -24.9020   32.0660  -45.7220 N.am  195  SER195     -0.1952
     73  CA       -24.0710   30.9780  -46.2370 C.3   195  SER195      0.1924
     74  C        -24.6400   29.5880  -45.9810 C.2   195  SER195      0.2314
     75  O        -24.2170   28.6140  -46.6110 O.2   195  SER195     -0.2863
     76  CB       -22.6690   31.0650  -45.6390 C.3   195  SER195      0.2116
     77  OG       -22.1050   29.7750  -45.4750 O.3   195  SER195     -0.2180
     78  N        -22.7530   23.3950  -53.4540 N.3   228  TRP228     -0.1241
     79  CA       -22.7760   22.6710  -52.1920 C.3   228  TRP228      0.1605
     80  C        -24.1310   22.7150  -51.5000 C.2   228  TRP228      0.2264
     81  O        -24.3130   22.0310  -50.4880 O.2   228  TRP228     -0.2867
     82  CB       -21.7140   23.2420  -51.2450 C.3   228  TRP228      0.0550
     83  CG       -21.7210   24.7360  -51.2320 C.ar  228  TRP228      0.0003
     84  CD1      -20.8890   25.5650  -51.9250 C.ar  228  TRP228      0.0946
     85  CD2      -22.6240   25.5840  -50.5130 C.ar  228  TRP228      0.0152
     86  NE1      -21.2100   26.8770  -51.6740 N.ar  228  TRP228     -0.2442
     87  CE2      -22.2720   26.9150  -50.8090 C.ar  228  TRP228      0.0810
     88  CE3      -23.6910   25.3480  -49.6400 C.ar  228  TRP228      0.0012
     89  CZ2      -22.9500   28.0030  -50.2680 C.ar  228  TRP228      0.0191
     90  CZ3      -24.3630   26.4280  -49.1060 C.ar  228  TRP228      0.0001
     91  CH2      -23.9910   27.7400  -49.4230 C.ar  228  TRP228      0.0015
     92  N        -14.3990   17.3050  -49.6590 N.3   281  THR281     -0.1204
     93  CA       -14.1370   18.7040  -49.9460 C.3   281  THR281      0.1979
     94  C        -14.1670   19.4970  -48.6390 C.2   281  THR281      0.2460
     95  O        -14.8760   19.1210  -47.7000 O.2   281  THR281     -0.2732
     96  CB       -15.1960   19.2370  -50.9220 C.3   281  THR281      0.1783
     97  OG1      -14.9540   18.7060  -52.2300 O.3   281  THR281     -0.2211
     98  CG2      -15.1820   20.7450  -51.0270 C.3   281  THR281      0.0376
     99  N        -13.3710   20.5600  -48.4860 N.am  282  PRO282     -0.2717
    100  CA       -13.5610   21.4430  -47.3210 C.3   282  PRO282      0.1535
    101  C        -14.9380   22.0900  -47.2690 C.2   282  PRO282      0.2598
    102  O        -15.3220   22.6190  -46.2180 O.2   282  PRO282     -0.2715
    103  CB       -12.4510   22.4880  -47.4910 C.3   282  PRO282      0.0310
    104  CG       -11.3770   21.7570  -48.2230 C.3   282  PRO282      0.0237
    105  CD       -12.0890   20.8160  -49.1670 C.3   282  PRO282      0.0939
    106  N        -15.6840   22.0610  -48.3730 N.am  283  LEU283     -0.1964
    107  CA       -17.0570   22.5370  -48.4610 C.3   283  LEU283      0.1728
    108  C        -18.0500   21.3900  -48.6270 C.2   283  LEU283      0.2617
    109  O        -19.1810   21.6140  -49.0700 O.2   283  LEU283     -0.2715
    110  CB       -17.2000   23.5140  -49.6280 C.3   283  LEU283      0.0311
    111  CG       -16.4170   24.8240  -49.5750 C.3   283  LEU283      0.0022
    112  CD1      -15.3120   24.8300  -50.6220 C.3   283  LEU283      0.0001
    113  CD2      -17.3600   25.9950  -49.7830 C.3   283  LEU283      0.0001
    114  N        -17.6450   20.1650  -48.3020 N.am  284  SER284     -0.1936
    115  CA       -18.5240   19.0140  -48.4690 C.3   284  SER284      0.2055
    116  C        -19.6480   19.0660  -47.4420 C.2   284  SER284      0.2643
    117  O        -19.3960   19.0310  -46.2330 O.2   284  SER284     -0.2714
    118  CB       -17.7320   17.7160  -48.3300 C.3   284  SER284      0.2130
    119  OG       -17.2430   17.5550  -47.0090 O.3   284  SER284     -0.2179
    120  N        -20.8850   19.1540  -47.9190 N.am  285  VAL285     -0.1963
    121  CA       -22.0540   19.1130  -47.0500 C.3   285  VAL285      0.1727
    122  C        -22.4270   17.6480  -46.8560 C.2   285  VAL285      0.2616
    123  O        -22.9500   17.0030  -47.7690 O.2   285  VAL285     -0.2715
    124  CB       -23.2210   19.9200  -47.6300 C.3   285  VAL285      0.0290
    125  CG1      -24.4430   19.7990  -46.7340 C.3   285  VAL285      0.0023
    126  CG2      -22.8200   21.3770  -47.7860 C.3   285  VAL285      0.0023
    127  N        -22.1450   17.1200  -45.6630 N.am  286  ASN286     -0.1972
    128  CA       -22.4040   15.7090  -45.3930 C.3   286  ASN286      0.1688
    129  C        -23.8950   15.4050  -45.4410 C.2   286  ASN286      0.2292
    130  O        -24.3250   14.4540  -46.1050 O.2   286  ASN286     -0.2864
    131  CB       -21.8150   15.3240  -44.0360 C.3   286  ASN286      0.1181
    132  CG       -20.3330   15.6270  -43.9370 C.2   286  ASN286      0.2629
    133  OD1      -19.5890   15.4660  -44.9050 O.2   286  ASN286     -0.2716
    134  ND2      -19.8960   16.0700  -42.7640 N.am  286  ASN286     -0.0877
    135  N        -11.4640   31.3930  -46.7350 N.3   325  ALA325     -0.1231
    136  CA       -11.6840   30.7940  -45.4240 C.3   325  ALA325      0.1694
    137  C        -11.5480   29.2770  -45.4440 C.2   325  ALA325      0.2592
    138  O        -11.3320   28.6730  -44.3880 O.2   325  ALA325     -0.2718
    139  CB       -13.0640   31.1830  -44.8920 C.3   325  ALA325      0.0304
    140  N        -11.6620   28.6500  -46.6130 N.am  326  PHE326     -0.1976
    141  CA       -11.6200   27.1990  -46.7350 C.3   326  PHE326      0.1639
    142  C        -10.2510   26.6710  -47.1420 C.2   326  PHE326      0.2290
    143  O        -10.0670   25.4520  -47.2040 O.2   326  PHE326     -0.2864
    144  CB       -12.6690   26.7250  -47.7470 C.3   326  PHE326      0.0560
    145  CG       -14.0670   27.1700  -47.4260 C.ar  326  PHE326     -0.0200
    146  CD1      -14.9140   26.3570  -46.6940 C.ar  326  PHE326     -0.0042
    147  CD2      -14.5350   28.3990  -47.8600 C.ar  326  PHE326     -0.0042
    148  CE1      -16.1990   26.7610  -46.3990 C.ar  326  PHE326     -0.0003
    149  CE2      -15.8190   28.8110  -47.5650 C.ar  326  PHE326     -0.0003
    150  CZ       -16.6530   27.9900  -46.8340 C.ar  326  PHE326     -0.0000
    151  N         -8.0080   24.5710  -44.4960 N.3   329  TYR329     -0.1241
    152  CA        -8.6580   23.3640  -44.0000 C.3   329  TYR329      0.1605
    153  C         -8.4110   22.1700  -44.9180 C.2   329  TYR329      0.2264
    154  O         -9.2840   21.3160  -45.0850 O.2   329  TYR329     -0.2867
    155  CB       -10.1560   23.5970  -43.8140 C.3   329  TYR329      0.0534
    156  CG       -10.4930   24.4360  -42.6020 C.ar  329  TYR329     -0.0201
    157  CD1      -10.6250   25.8140  -42.7030 C.ar  329  TYR329     -0.0009
    158  CD2      -10.6740   23.8500  -41.3560 C.ar  329  TYR329     -0.0009
    159  CE1      -10.9300   26.5860  -41.5980 C.ar  329  TYR329      0.0417
    160  CE2      -10.9790   24.6130  -40.2450 C.ar  329  TYR329      0.0417
    161  CZ       -11.1060   25.9800  -40.3720 C.ar  329  TYR329      0.1957
    162  OH       -11.4100   26.7430  -39.2680 O.3   329  TYR329     -0.2866
    163  N        -19.6330   30.7070  -54.0190 N.3   395  PHE395     -0.1241
    164  CA       -20.4410   31.7700  -53.4310 C.3   395  PHE395      0.1605
    165  C        -20.7400   32.9130  -54.3890 C.2   395  PHE395      0.2264
    166  O        -21.9060   33.2940  -54.5390 O.2   395  PHE395     -0.2867
    167  CB       -19.7490   32.3130  -52.1700 C.3   395  PHE395      0.0534
    168  CG       -19.5070   31.2690  -51.1190 C.ar  395  PHE395     -0.0203
    169  CD1      -18.2840   30.6270  -51.0310 C.ar  395  PHE395     -0.0042
    170  CD2      -20.5050   30.9250  -50.2230 C.ar  395  PHE395     -0.0042
    171  CE1      -18.0590   29.6630  -50.0670 C.ar  395  PHE395     -0.0003
    172  CE2      -20.2870   29.9620  -49.2560 C.ar  395  PHE395     -0.0003
    173  CZ       -19.0620   29.3300  -49.1780 C.ar  395  PHE395     -0.0000
    174  N        -15.0420   34.9880  -45.3640 N.3   435  HIS435     -0.1226
    175  CA       -16.4130   34.5140  -45.4500 C.3   435  HIS435      0.1752
    176  C        -17.0280   34.4440  -44.0580 C.2   435  HIS435      0.2596
    177  O        -16.5450   33.7040  -43.1950 O.2   435  HIS435     -0.2718
    178  CB       -16.4230   33.1470  -46.1260 C.3   435  HIS435      0.0759
    179  CG       -17.7460   32.4530  -46.0870 C.ar  435  HIS435      0.0818
    180  ND1      -18.1100   31.6050  -45.0650 N.ar  435  HIS435     -0.2268
    181  CD2      -18.7800   32.4590  -46.9590 C.ar  435  HIS435      0.1154
    182  CE1      -19.3180   31.1290  -45.3020 C.ar  435  HIS435      0.1986
    183  NE2      -19.7460   31.6310  -46.4460 N.ar  435  HIS435     -0.2212
    184  N        -18.0830   35.2200  -43.8360 N.am  436  GLY436     -0.1957
    185  CA       -18.7930   35.2060  -42.5750 C.3   436  GLY436      0.1869
    186  C        -18.5080   36.3600  -41.6410 C.2   436  GLY436      0.2309
    187  O        -18.9530   36.3200  -40.4890 O.2   436  GLY436     -0.2863
    188  N        -21.3010   39.5870  -40.7670 N.3   439  ILE439     -0.1245
    189  CA       -22.3250   39.4500  -39.7360 C.3   439  ILE439      0.1561
    190  C        -22.0830   40.4150  -38.5840 C.2   439  ILE439      0.2260
    191  O        -23.0380   40.9080  -37.9720 O.2   439  ILE439     -0.2867
    192  CB       -22.3840   37.9920  -39.2450 C.3   439  ILE439      0.0252
    193  CG1      -22.2130   37.0270  -40.4200 C.3   439  ILE439      0.0019
    194  CG2      -23.6940   37.7260  -38.5180 C.3   439  ILE439      0.0019
    195  CD1      -22.2290   35.5700  -40.0190 C.3   439  ILE439      0.0001
@<TRIPOS>BOND
     1   166   165    2
     2   165   164    1
     3   163   164    1
     4    78    79    1
     5   164   167    1
     6    97    96    1
     7    79    80    1
     8    79    82    1
     9   167   168    1
    10    84    86   ar
    11    84    83   ar
    12    86    87   ar
    13    80    81    2
    14    82    83    1
    15    83    85   ar
    16   168   169   ar
    17   168   170   ar
    18   169   171   ar
    19    98    96    1
    20    96    93    1
    21    87    85   ar
    22    87    89   ar
    23   112   111    1
    24    85    88   ar
    25    89    91   ar
    26   170   172   ar
    27   171   173   ar
    28    93    92    1
    29    93    94    1
    30   113   111    1
    31    88    90   ar
    32   110   111    1
    33   110   107    1
    34    91    90   ar
    35   172   173   ar
    36   105    99    1
    37   105   104    1
    38   109   108    2
    39    94    99   am
    40    94    95    2
    41   108   107    1
    42   108   114   am
    43    99   100    1
    44   115   118    1
    45   115   114    1
    46   115   116    1
    47   107   106    1
    48   106   101   am
    49   118   119    1
    50   104   103    1
    51   120   116   am
    52   120   121    1
    53   147   149   ar
    54   147   145   ar
    55   126   124    1
    56   123   122    2
    57   144   145    1
    58   144   141    1
    59   124   121    1
    60   124   125    1
    61   149   150   ar
    62   103   100    1
    63   116   117    2
    64   145   146   ar
    65   100   101    1
    66   101   102    2
    67   143   142    2
    68   142   141    1
    69   121   122    1
    70   181   183   ar
    71   181   179   ar
    72   122   127   am
    73   150   148   ar
    74   141   140    1
    75   135   136    1
    76   146   148   ar
    77   140   137   am
    78    75    74    2
    79   183   182   ar
    80    73    74    1
    81    73    72    1
    82    73    76    1
    83   178   179    1
    84   178   175    1
    85   130   129    2
    86   179   180   ar
    87    72    65   am
    88   127   128    1
    89    76    77    1
    90   175   174    1
    91   175   176    1
    92   137   136    1
    93   137   138    2
    94   129   128    1
    95   136   139    1
    96   128   131    1
    97   182   180   ar
    98   154   153    2
    99   153   152    1
   100   133   132    2
   101   151   152    1
   102    65    64    1
   103    65    66    2
   104    70    69   ar
   105    64    63    1
   106    64    67    1
   107   176   184   am
   108   176   177    2
   109   131   132    1
   110   152   155    1
   111   132   134   am
   112    34    33    2
   113   184   185    1
   114    32    33    1
   115    32    31    1
   116   155   156    1
   117    69    68    1
   118    69    71   ar
   119    68    67    1
   120    31    29   am
   121    43    41   am
   122   157   156   ar
   123   157   159   ar
   124   156   158   ar
   125   185   186    1
   126    41    40    1
   127    41    42    2
   128    40    39    1
   129   186   187    2
   130   159   161   ar
   131    29    30    2
   132    29    28    1
   133   158   160   ar
   134    27    28    1
   135    27    25   am
   136    24    25    1
   137    24    23    1
   138    35    36    1
   139   188   189    1
   140    39    36    1
   141    25    26    2
   142   193   195    1
   143   193   192    1
   144   161   160   ar
   145   161   162    1
   146    36    37    1
   147   189   192    1
   148   189   190    1
   149   192   194    1
   150   190   191    2
   151    37    44   am
   152    37    38    2
   153    44    45    1
   154    20    22   ar
   155    20    18   ar
   156    49    48    1
   157    22    21   ar
   158    47    46    2
   159    17    18   ar
   160    17    15   ar
   161    62    61    1
   162    18    16   ar
   163    50    48    1
   164    21    19   ar
   165    45    48    1
   166    45    46    1
   167    15    14   ar
   168    16    19   ar
   169    16    14   ar
   170    59    61   ar
   171    59    57   ar
   172     8     6   ar
   173     7     6   ar
   174    61    60   ar
   175    14    13    1
   176     6     5    1
   177    57    56   ar
   178    13    10    1
   179    60    58   ar
   180     5     2    1
   181    56    58   ar
   182    56    55    1
   183     2     1    1
   184     2     3    1
   185    10     9    1
   186    10    11    1
   187    12    11    2
   188     3     4    2
   189    55    52    1
   190    52    51    1
   191    52    53    1
   192    53    54    2
