@<TRIPOS>MOLECULE
tmp/6esmA00.pdb
 178 177 0 0 0
SMALL
GASTEIGER

@<TRIPOS>ATOM
      1  N         -0.0240   57.1790    5.3880 N.3    68  TYR68      -0.1241
      2  CA         0.2630   57.2630    6.8170 C.3    68  TYR68       0.1605
      3  C          1.7290   56.8960    7.0030 C.2    68  TYR68       0.2264
      4  O          2.0520   55.7410    7.3160 O.2    68  TYR68      -0.2867
      5  CB        -0.6580   56.3360    7.6100 C.3    68  TYR68       0.0534
      6  CG        -2.1030   56.7720    7.5660 C.ar   68  TYR68      -0.0201
      7  CD1       -2.5640   57.7960    8.3860 C.ar   68  TYR68      -0.0009
      8  CD2       -3.0040   56.1760    6.6940 C.ar   68  TYR68      -0.0009
      9  CE1       -3.8910   58.2100    8.3440 C.ar   68  TYR68       0.0417
     10  CE2       -4.3330   56.5810    6.6450 C.ar   68  TYR68       0.0417
     11  CZ        -4.7670   57.5960    7.4720 C.ar   68  TYR68       0.1957
     12  OH        -6.0860   58.0020    7.4270 O.3    68  TYR68      -0.2866
     13  N          9.8450   55.7790   17.8740 N.3    75  GLY75      -0.1210
     14  CA         8.5690   56.4420   17.6550 C.3    75  GLY75       0.1956
     15  C          7.5000   55.4700   17.1780 C.2    75  GLY75       0.2612
     16  O          7.2080   54.4560   17.8170 O.2    75  GLY75      -0.2717
     17  N          6.8800   55.8030   16.0500 N.am   76  LEU76      -0.1965
     18  CA         5.9000   54.9120   15.4450 C.3    76  LEU76       0.1728
     19  C          6.5850   53.6090   15.0760 C.2    76  LEU76       0.2616
     20  O          7.5360   53.6050   14.2940 O.2    76  LEU76      -0.2715
     21  CB         5.3400   55.5560   14.1790 C.3    76  LEU76       0.0311
     22  CG         4.5820   56.8780   14.2830 C.3    76  LEU76       0.0022
     23  CD1        4.3070   57.4160   12.8900 C.3    76  LEU76       0.0001
     24  CD2        3.2810   56.7000   15.0460 C.3    76  LEU76       0.0001
     25  N          6.1060   52.4990   15.6240 N.am   77  LEU77      -0.1963
     26  CA         6.7380   51.2090   15.3590 C.3    77  LEU77       0.1728
     27  C          6.0450   50.4250   14.2570 C.2    77  LEU77       0.2616
     28  O          6.6720   49.5820   13.6000 O.2    77  LEU77      -0.2715
     29  CB         6.7650   50.3550   16.6320 C.3    77  LEU77       0.0311
     30  CG         7.3860   51.0170   17.8590 C.3    77  LEU77       0.0022
     31  CD1        7.2800   50.0660   19.0480 C.3    77  LEU77       0.0001
     32  CD2        8.8340   51.4160   17.6180 C.3    77  LEU77       0.0001
     33  N          4.7520   50.6630   14.0810 N.am   78  ALA78      -0.1963
     34  CA         3.8690   49.8640   13.2460 C.3    78  ALA78       0.1728
     35  C          2.5110   50.5410   13.3210 C.2    78  ALA78       0.2616
     36  O          2.2940   51.4370   14.1430 O.2    78  ALA78      -0.2715
     37  CB         3.7560   48.4270   13.7630 C.3    78  ALA78       0.0334
     38  N          1.5960   50.1100   12.4590 N.am   79  HIS79      -0.1973
     39  CA         0.2070   50.5400   12.5710 C.3    79  HIS79       0.1656
     40  C         -0.6790   49.5100   11.8930 C.2    79  HIS79       0.2291
     41  O         -0.2120   48.6850   11.1060 O.2    79  HIS79      -0.2864
     42  CB        -0.0530   51.9640   12.0570 C.3    79  HIS79       0.0771
     43  CG         0.2940   52.1950   10.6120 C.ar   79  HIS79       0.0820
     44  ND1        0.6940   53.4300   10.1530 N.ar   79  HIS79      -0.2267
     45  CD2        0.2480   51.3930    9.5230 C.ar   79  HIS79       0.1154
     46  CE1        0.9210   53.3710    8.8530 C.ar   79  HIS79       0.1986
     47  NE2        0.6540   52.1460    8.4440 N.ar   79  HIS79      -0.2212
     48  N          5.5300   41.0870   20.2730 N.3   111  LEU111     -0.1231
     49  CA         4.6720   41.9740   21.0570 C.3   111  LEU111      0.1693
     50  C          4.0720   43.0830   20.2050 C.2   111  LEU111      0.2591
     51  O          2.8990   43.4270   20.3630 O.2   111  LEU111     -0.2718
     52  CB         5.4460   42.5630   22.2310 C.3   111  LEU111      0.0284
     53  CG         5.8830   41.5670   23.3080 C.3   111  LEU111      0.0019
     54  CD1        6.7830   42.2480   24.3290 C.3   111  LEU111      0.0001
     55  CD2        4.6860   40.9490   24.0160 C.3   111  LEU111      0.0001
     56  N          4.8600   43.6680   19.3020 N.am  112  VAL112     -0.1980
     57  CA         4.3050   44.6930   18.4250 C.3   112  VAL112      0.1595
     58  C          3.2190   44.1010   17.5420 C.2   112  VAL112      0.2287
     59  O          2.1460   44.6880   17.3830 O.2   112  VAL112     -0.2864
     60  CB         5.4050   45.4070   17.6210 C.3   112  VAL112      0.0276
     61  CG1        4.7690   46.3100   16.5570 C.3   112  VAL112      0.0022
     62  CG2        6.2670   46.2200   18.5620 C.3   112  VAL112      0.0022
     63  N         -0.0220   43.5590   19.5450 N.3   115  HIS115     -0.1226
     64  CA        -0.7290   44.8250   19.7200 C.3   115  HIS115      0.1752
     65  C         -1.4100   45.2550   18.4250 C.2   115  HIS115      0.2595
     66  O         -2.5880   45.6360   18.4180 O.2   115  HIS115     -0.2718
     67  CB         0.2930   45.8730   20.1790 C.3   115  HIS115      0.0759
     68  CG        -0.2690   47.2500   20.3660 C.ar  115  HIS115      0.0818
     69  ND1       -0.6210   47.7460   21.6050 N.ar  115  HIS115     -0.2268
     70  CD2       -0.5010   48.2500   19.4820 C.ar  115  HIS115      0.1154
     71  CE1       -1.0630   48.9850   21.4710 C.ar  115  HIS115      0.1986
     72  NE2       -0.9910   49.3200   20.1960 N.ar  115  HIS115     -0.2212
     73  N         -0.6840   45.1920   17.3050 N.am  116  GLN116     -0.1979
     74  CA        -1.2610   45.5810   16.0220 C.3   116  GLN116      0.1601
     75  C         -2.4270   44.6910   15.6270 C.2   116  GLN116      0.2287
     76  O         -3.4330   45.1760   15.0960 O.2   116  GLN116     -0.2864
     77  CB        -0.1920   45.5490   14.9330 C.3   116  GLN116      0.0394
     78  CG         0.8970   46.5900   15.0980 C.3   116  GLN116      0.0908
     79  CD         0.3330   47.9760   15.3410 C.2   116  GLN116      0.2608
     80  OE1       -0.6600   48.3730   14.7310 O.2   116  GLN116     -0.2717
     81  NE2        0.9580   48.7180   16.2510 N.am  116  GLN116     -0.0878
     82  N         -5.5630   45.8910   17.1660 N.3   119  HIS119     -0.1241
     83  CA        -6.1710   46.9570   16.3690 C.3   119  HIS119      0.1621
     84  C         -6.8560   46.4020   15.1210 C.2   119  HIS119      0.2264
     85  O         -7.9490   46.8500   14.7490 O.2   119  HIS119     -0.2867
     86  CB        -5.0990   47.9570   15.9290 C.3   119  HIS119      0.0745
     87  CG        -4.5990   48.8700   17.0070 C.ar  119  HIS119      0.0817
     88  ND1       -5.4230   49.5070   17.9130 N.ar  119  HIS119     -0.2268
     89  CD2       -3.3400   49.2860   17.2860 C.ar  119  HIS119      0.1154
     90  CE1       -4.6910   50.2760   18.7000 C.ar  119  HIS119      0.1986
     91  NE2       -3.4240   50.1580   18.3420 N.ar  119  HIS119     -0.2212
     92  N         -7.1600   51.6240   22.2280 N.3   125  HIS125     -0.1241
     93  CA        -6.1710   51.5450   23.2960 C.3   125  HIS125      0.1621
     94  C         -6.8100   51.3670   24.6700 C.2   125  HIS125      0.2264
     95  O         -7.9200   51.8460   24.9480 O.2   125  HIS125     -0.2867
     96  CB        -5.2490   52.7660   23.2890 C.3   125  HIS125      0.0745
     97  CG        -4.2250   52.7120   22.2030 C.ar  125  HIS125      0.0817
     98  ND1       -3.8240   53.8200   21.4920 N.ar  125  HIS125     -0.2268
     99  CD2       -3.5420   51.6630   21.6860 C.ar  125  HIS125      0.1154
    100  CE1       -2.9230   53.4590   20.5940 C.ar  125  HIS125      0.1986
    101  NE2       -2.7440   52.1520   20.6820 N.ar  125  HIS125     -0.2212
    102  N         -1.7160   46.5000   30.1900 N.3   131  ALA131     -0.1231
    103  CA        -2.4310   45.8020   29.1260 C.3   131  ALA131      0.1694
    104  C         -1.6440   45.8240   27.8200 C.2   131  ALA131      0.2591
    105  O         -0.9100   46.7710   27.5250 O.2   131  ALA131     -0.2718
    106  CB        -3.7980   46.4420   28.8960 C.3   131  ALA131      0.0304
    107  N         -1.8080   44.7580   27.0310 N.am  132  LEU132     -0.1980
    108  CA        -1.1840   44.7160   25.7120 C.3   132  LEU132      0.1596
    109  C         -1.6120   45.8920   24.8460 C.2   132  LEU132      0.2287
    110  O         -0.8190   46.3810   24.0330 O.2   132  LEU132     -0.2864
    111  CB        -1.5190   43.3940   25.0210 C.3   132  LEU132      0.0297
    112  CG        -1.0450   43.2460   23.5750 C.3   132  LEU132      0.0022
    113  CD1        0.4690   43.3490   23.4590 C.3   132  LEU132      0.0001
    114  CD2       -1.5400   41.9130   23.0530 C.3   132  LEU132      0.0001
    115  N         -2.2580   48.9400   25.7640 N.3   134  TYR134     -0.1228
    116  CA        -1.8350   50.2640   26.2120 C.3   134  TYR134      0.1721
    117  C         -1.0740   50.9630   25.0820 C.2   134  TYR134      0.2437
    118  O         -0.4430   50.3010   24.2540 O.2   134  TYR134     -0.2733
    119  CB        -0.9390   50.1350   27.4430 C.3   134  TYR134      0.0547
    120  CG        -0.9430   51.3730   28.3220 C.ar  134  TYR134     -0.0200
    121  CD1       -2.1300   51.8370   28.8900 C.ar  134  TYR134     -0.0009
    122  CD2        0.2250   52.0820   28.5730 C.ar  134  TYR134     -0.0009
    123  CE1       -2.1470   52.9680   29.6950 C.ar  134  TYR134      0.0417
    124  CE2        0.2160   53.2180   29.3800 C.ar  134  TYR134      0.0417
    125  CZ        -0.9820   53.6510   29.9320 C.ar  134  TYR134      0.1957
    126  OH        -1.0290   54.7730   30.7350 O.3   134  TYR134     -0.2866
    127  N         -1.1120   52.3010   25.0110 N.am  135  PRO135     -0.2718
    128  CA        -0.4910   52.9790   23.8570 C.3   135  PRO135      0.1535
    129  C          1.0280   52.9110   23.8130 C.2   135  PRO135      0.2598
    130  O          1.6000   53.1640   22.7430 O.2   135  PRO135     -0.2715
    131  CB        -0.9740   54.4330   23.9910 C.3   135  PRO135      0.0310
    132  CG        -2.1940   54.3600   24.8430 C.3   135  PRO135      0.0237
    133  CD        -1.9470   53.2330   25.7960 C.3   135  PRO135      0.0939
    134  N          1.6970   52.5920   24.9100 N.am  136  MET136     -0.1964
    135  CA         3.1470   52.6960   24.9960 C.3   136  MET136      0.1736
    136  C          3.7810   51.3120   24.9340 C.2   136  MET136      0.2616
    137  O          3.4050   50.4150   25.6950 O.2   136  MET136     -0.2715
    138  CB         3.5450   53.4130   26.2870 C.3   136  MET136      0.0427
    139  CG         3.0150   54.8410   26.3500 C.3   136  MET136      0.0599
    140  SD         3.1840   55.6120   27.9690 S.3   136  MET136     -0.1393
    141  CE         4.9650   55.7300   28.1180 C.3   136  MET136      0.0692
    142  N          4.7410   51.1450   24.0250 N.am  137  TYR137     -0.1960
    143  CA         5.4630   49.8860   23.9180 C.3   137  TYR137      0.1771
    144  C          6.1480   49.5500   25.2310 C.2   137  TYR137      0.2619
    145  O          6.7120   50.4190   25.9030 O.2   137  TYR137     -0.2715
    146  CB         6.5150   49.9600   22.8050 C.3   137  TYR137      0.0574
    147  CG         7.3960   48.7340   22.7500 C.ar  137  TYR137     -0.0198
    148  CD1        7.0090   47.6060   22.0310 C.ar  137  TYR137     -0.0009
    149  CD2        8.6070   48.6900   23.4330 C.ar  137  TYR137     -0.0009
    150  CE1        7.8060   46.4800   21.9860 C.ar  137  TYR137      0.0417
    151  CE2        9.4040   47.5690   23.4000 C.ar  137  TYR137      0.0417
    152  CZ         9.0000   46.4580   22.6720 C.ar  137  TYR137      0.1957
    153  OH         9.7850   45.3280   22.6060 O.3   137  TYR137     -0.2866
    154  N          6.1230   48.2650   25.5680 N.am  138  ARG138     -0.1977
    155  CA         6.7230   47.7480   26.7840 C.3   138  ARG138      0.1597
    156  C          7.2310   46.3530   26.4530 C.2   138  ARG138      0.2287
    157  O          6.4840   45.5480   25.8930 O.2   138  ARG138     -0.2864
    158  CB         5.6250   47.6760   27.8600 C.3   138  ARG138      0.0334
    159  CG         6.0440   47.1560   29.2050 C.3   138  ARG138      0.0492
    160  CD         4.9110   47.3060   30.2150 C.3   138  ARG138      0.2205
    161  NE         3.8720   46.2900   30.0610 N.pl3 138  ARG138     -0.0865
    162  CZ         3.9210   45.0930   30.6340 C.cat 138  ARG138      0.5346
    163  NH1        2.9390   44.2220   30.4550 N.pl3 138  ARG138      0.1354
    164  NH2        4.9630   44.7630   31.3820 N.pl3 138  ARG138      0.1354
    165  N          8.1560   42.6450   27.5960 N.3   140  THR140     -0.1218
    166  CA         7.8980   41.7050   28.6790 C.3   140  THR140      0.1862
    167  C          8.1190   40.2860   28.1700 C.2   140  THR140      0.2287
    168  O          7.8800   39.9860   26.9980 O.2   140  THR140     -0.2866
    169  CB         6.4750   41.8700   29.2260 C.3   140  THR140      0.1770
    170  OG1        6.2730   40.9630   30.3180 O.3   140  THR140     -0.2211
    171  CG2        5.4310   41.5920   28.1440 C.3   140  THR140      0.0375
    172  N          1.2950   38.4760   27.9190 N.3   144  PRO144     -0.2116
    173  CA         0.9560   39.8380   27.4810 C.3   144  PRO144      0.1372
    174  C         -0.4770   40.2740   27.7510 C.2   144  PRO144      0.2244
    175  O         -0.7210   41.4710   27.9170 O.2   144  PRO144     -0.2868
    176  CB         1.2270   39.7970   25.9700 C.3   144  PRO144      0.0268
    177  CG         2.0980   38.6110   25.7500 C.3   144  PRO144      0.0207
    178  CD         1.6970   37.6180   26.7910 C.3   144  PRO144      0.0892
@<TRIPOS>BOND
     1     1     2    1
     2    10     8   ar
     3    10    11   ar
     4     8     6   ar
     5     2     3    1
     6     2     5    1
     7     3     4    2
     8    12    11    1
     9    11     9   ar
    10     6     5    1
    11     6     7   ar
    12     9     7   ar
    13    47    46   ar
    14    47    45   ar
    15    46    44   ar
    16    45    43   ar
    17    44    43   ar
    18    43    42    1
    19    41    40    2
    20    40    39    1
    21    42    39    1
    22    38    39    1
    23    38    35   am
    24    23    22    1
    25    34    35    1
    26    34    37    1
    27    34    33    1
    28    35    36    2
    29    28    27    2
    30    33    27   am
    31    21    22    1
    32    21    18    1
    33    27    26    1
    34    22    24    1
    35    20    19    2
    36    80    79    2
    37    85    84    2
    38    77    78    1
    39    77    74    1
    40    19    18    1
    41    19    25   am
    42    76    75    2
    43    78    79    1
    44    84    83    1
    45    79    81   am
    46    26    25    1
    47    26    29    1
    48    18    17    1
    49    75    74    1
    50    86    83    1
    51    86    87    1
    52    74    73    1
    53    17    15   am
    54    83    82    1
    55    61    60    1
    56    29    30    1
    57    87    89   ar
    58    87    88   ar
    59    15    14    1
    60    15    16    2
    61    89    91   ar
    62    73    65   am
    63    59    58    2
    64    58    57    1
    65    32    30    1
    66    60    57    1
    67    60    62    1
    68    14    13    1
    69    30    31    1
    70    88    90   ar
    71    91    90   ar
    72    66    65    2
    73    65    64    1
    74    57    56    1
    75    56    50   am
    76    70    72   ar
    77    70    68   ar
    78    63    64    1
    79    64    67    1
    80    67    68    1
    81    72    71   ar
    82    50    51    2
    83    50    49    1
    84    48    49    1
    85    68    69   ar
    86   100   101   ar
    87   100    98   ar
    88   101    99   ar
    89    49    52    1
    90    71    69   ar
    91    98    97   ar
    92    99    97   ar
    93   150   148   ar
    94   150   152   ar
    95   148   147   ar
    96    97    96    1
    97    92    93    1
    98    52    53    1
    99   153   152    1
   100   152   151   ar
   101   130   129    2
   102   147   146    1
   103   147   149   ar
   104   146   143    1
   105   114   112    1
   106    96    93    1
   107    93    94    1
   108    53    55    1
   109    53    54    1
   110   151   149   ar
   111   113   112    1
   112   112   111    1
   113   129   128    1
   114   129   134   am
   115   128   131    1
   116   128   127    1
   117   143   142    1
   118   143   144    1
   119   131   132    1
   120   142   136   am
   121   110   109    2
   122   118   117    2
   123    94    95    2
   124   132   133    1
   125   109   108    1
   126   134   135    1
   127   136   135    1
   128   136   137    2
   129   135   138    1
   130   127   117   am
   131   127   133    1
   132   111   108    1
   133   117   116    1
   134   144   154   am
   135   144   145    2
   136   154   155    1
   137   108   107    1
   138   177   176    1
   139   177   178    1
   140   115   116    1
   141   157   156    2
   142   176   173    1
   143   116   119    1
   144   138   139    1
   145   139   140    1
   146   156   155    1
   147   155   158    1
   148   178   172    1
   149   168   167    2
   150   107   104   am
   151   119   120    1
   152   173   174    1
   153   173   172    1
   154   105   104    2
   155   165   166    1
   156   174   175    2
   157   104   103    1
   158   158   159    1
   159   140   141    1
   160   171   169    1
   161   167   166    1
   162   120   122   ar
   163   120   121   ar
   164   122   124   ar
   165   166   169    1
   166   121   123   ar
   167   106   103    1
   168   103   102    1
   169   159   160    1
   170   169   170    1
   171   124   125   ar
   172   123   125   ar
   173   125   126    1
   174   161   160    1
   175   161   162    2
   176   163   162    1
   177   162   164    1
