@<TRIPOS>MOLECULE
tmp/6esnA00.pdb
 208 200 0 0 0
SMALL
GASTEIGER

@<TRIPOS>ATOM
      1  N        -19.9980   -8.4050  -15.9540 N.3    28  CYS28      -0.1221
      2  CA       -21.2010   -7.7250  -16.4740 C.3    28  CYS28       0.1808
      3  C        -21.9700   -6.8760  -15.4390 C.2    28  CYS28       0.2601
      4  O        -22.9250   -6.1960  -15.8390 O.2    28  CYS28      -0.2717
      5  CB       -22.1340   -8.7030  -17.1850 C.3    28  CYS28       0.0970
      6  SG       -22.9710   -9.8710  -16.0810 S.3    28  CYS28      -0.0800
      7  N        -21.5690   -6.9290  -14.1410 N.am   29  GLN29      -0.1965
      8  CA       -22.0970   -6.1940  -12.9620 C.3    29  GLN29       0.1733
      9  C        -23.4910   -6.6860  -12.5180 C.2    29  GLN29       0.2616
     10  O        -23.6140   -7.2090  -11.4100 O.2    29  GLN29      -0.2715
     11  CB       -22.0560   -4.6670  -13.1600 C.3    29  GLN29       0.0408
     12  CG       -22.5640   -3.8490  -11.9780 C.3    29  GLN29       0.0908
     13  CD       -22.5040   -2.3520  -12.2330 C.2    29  GLN29       0.2608
     14  OE1      -22.2200   -1.8690  -13.3360 O.2    29  GLN29      -0.2717
     15  NE2      -22.8100   -1.5720  -11.2200 N.am   29  GLN29      -0.0878
     16  N        -24.5240   -6.4880  -13.3420 N.am   30  LEU30      -0.1977
     17  CA       -25.8570   -7.0000  -13.0500 C.3    30  LEU30       0.1596
     18  C        -26.1850   -8.0520  -14.1180 C.2    30  LEU30       0.2287
     19  O        -25.9110   -7.8270  -15.2960 O.2    30  LEU30      -0.2864
     20  CB       -26.8950   -5.8580  -13.0470 C.3    30  LEU30       0.0297
     21  CG       -27.4020   -5.3150  -11.7020 C.3    30  LEU30       0.0022
     22  CD1      -26.2840   -5.1010  -10.6970 C.3    30  LEU30       0.0001
     23  CD2      -28.1330   -3.9880  -11.9030 C.3    30  LEU30       0.0001
     24  N        -32.1620   -7.8840  -14.2630 N.3    35  LEU35      -0.1245
     25  CA       -32.6190   -6.6340  -14.8680 C.3    35  LEU35       0.1561
     26  C        -33.9700   -6.8400  -15.5640 C.2    35  LEU35       0.2260
     27  O        -34.8700   -6.0390  -15.3650 O.2    35  LEU35      -0.2867
     28  CB       -31.5650   -6.0620  -15.8310 C.3    35  LEU35       0.0270
     29  CG       -30.3510   -5.3910  -15.1780 C.3    35  LEU35       0.0019
     30  CD1      -29.1780   -5.3110  -16.1540 C.3    35  LEU35       0.0001
     31  CD2      -30.6970   -4.0080  -14.6530 C.3    35  LEU35       0.0001
     32  N        -25.4830   10.0090   -8.9250 N.3    63  CYS63      -0.1235
     33  CA       -25.2030    9.5340  -10.2800 C.3    63  CYS63       0.1677
     34  C        -23.7280    9.2820  -10.5110 C.2    63  CYS63       0.2270
     35  O        -23.3990    8.2400  -11.0610 O.2    63  CYS63      -0.2867
     36  CB       -25.8080   10.4530  -11.3360 C.3    63  CYS63       0.0956
     37  SG       -27.6170   10.5140  -11.2700 S.3    63  CYS63      -0.0801
     38  N        -22.8430    5.9090   -8.7380 N.3    66  HIS66      -0.1226
     39  CA       -23.3780    4.7890   -9.5320 C.3    66  HIS66       0.1752
     40  C        -22.5800    4.6030  -10.8120 C.2    66  HIS66       0.2595
     41  O        -22.2040    3.4720  -11.1430 O.2    66  HIS66      -0.2718
     42  CB       -24.8580    5.0030   -9.8540 C.3    66  HIS66       0.0759
     43  CG       -25.7190    4.9950   -8.6460 C.ar   66  HIS66       0.0818
     44  ND1      -25.6760    3.9580   -7.7380 N.ar   66  HIS66      -0.2268
     45  CD2      -26.6280    5.9000   -8.2320 C.ar   66  HIS66       0.1154
     46  CE1      -26.5480    4.2680   -6.8010 C.ar   66  HIS66       0.1986
     47  NE2      -27.1310    5.4350   -7.0550 N.ar   66  HIS66      -0.2212
     48  N        -22.2440    5.7230  -11.4970 N.am   67  LEU67      -0.1980
     49  CA       -21.4010    5.6400  -12.6970 C.3    67  LEU67       0.1596
     50  C        -20.0170    5.1090  -12.3670 C.2    67  LEU67       0.2287
     51  O        -19.5210    4.2660  -13.1110 O.2    67  LEU67      -0.2864
     52  CB       -21.3490    6.9600  -13.4860 C.3    67  LEU67       0.0297
     53  CG       -22.6140    7.2620  -14.3170 C.3    67  LEU67       0.0022
     54  CD1      -22.7060    8.7380  -14.6620 C.3    67  LEU67       0.0001
     55  CD2      -22.6780    6.4350  -15.6180 C.3    67  LEU67       0.0001
     56  N        -20.1770    1.3110  -11.9730 N.3    70  ALA70      -0.1245
     57  CA       -20.2420    0.6780  -13.3020 C.3    70  ALA70       0.1562
     58  C        -18.8700    0.6830  -13.9950 C.2    70  ALA70       0.2260
     59  O        -18.4750   -0.3320  -14.5460 O.2    70  ALA70      -0.2867
     60  CB       -21.2790    1.3760  -14.1620 C.3    70  ALA70       0.0290
     61  N        -19.8160    1.7460  -20.5360 N.3   104  VAL104     -0.1245
     62  CA       -20.9380    1.8980  -19.5920 C.3   104  VAL104      0.1561
     63  C        -22.2220    2.2870  -20.3560 C.2   104  VAL104      0.2260
     64  O        -23.2710    1.6640  -20.1440 O.2   104  VAL104     -0.2867
     65  CB       -20.6190    2.8840  -18.4420 C.3   104  VAL104      0.0252
     66  CG1      -21.8780    3.2140  -17.6270 C.3   104  VAL104      0.0019
     67  CG2      -19.5220    2.3380  -17.5470 C.3   104  VAL104      0.0019
     68  N        -23.4730   -0.7900  -22.2180 N.3   107  ARG107     -0.1231
     69  CA       -23.9570   -1.7670  -21.2330 C.3   107  ARG107      0.1694
     70  C        -25.3520   -1.3760  -20.7010 C.2   107  ARG107      0.2591
     71  O        -26.2100   -2.2370  -20.5610 O.2   107  ARG107     -0.2718
     72  CB       -22.9500   -1.8640  -20.0710 C.3   107  ARG107      0.0321
     73  CG       -21.7370   -2.7490  -20.3340 C.3   107  ARG107      0.0489
     74  CD       -20.7650   -2.7080  -19.1650 C.3   107  ARG107      0.2205
     75  NE       -19.8080   -3.8080  -19.2760 N.pl3 107  ARG107     -0.0865
     76  CZ       -19.3290   -4.5430  -18.2740 C.cat 107  ARG107      0.5346
     77  NH1      -19.6490   -4.2560  -17.0170 N.pl3 107  ARG107      0.1354
     78  NH2      -18.4980   -5.5530  -18.5220 N.pl3 107  ARG107      0.1354
     79  N        -25.5770   -0.0680  -20.4570 N.am  108  MET108     -0.1979
     80  CA       -26.8260    0.5140  -19.9380 C.3   108  MET108      0.1605
     81  C        -28.0740    0.1060  -20.7420 C.2   108  MET108      0.2287
     82  O        -29.1420    0.0180  -20.1540 O.2   108  MET108     -0.2864
     83  CB       -26.6990    2.0540  -19.8510 C.3   108  MET108      0.0413
     84  CG       -27.7450    2.7360  -18.9450 C.3   108  MET108      0.0598
     85  SD       -27.8860    2.0980  -17.2430 S.3   108  MET108     -0.1393
     86  CE       -26.2950    2.5620  -16.5810 C.3   108  MET108      0.0692
     87  N        -29.0320   -2.7350  -21.6070 N.3   110  ARG110     -0.1231
     88  CA       -29.5660   -3.9460  -20.9180 C.3   110  ARG110      0.1694
     89  C        -30.5410   -3.5310  -19.7880 C.2   110  ARG110      0.2592
     90  O        -31.5220   -4.2380  -19.4970 O.2   110  ARG110     -0.2718
     91  CB       -28.4260   -4.7460  -20.2400 C.3   110  ARG110      0.0321
     92  CG       -27.3290   -5.2170  -21.1580 C.3   110  ARG110      0.0489
     93  CD       -26.0830   -5.5210  -20.3560 C.3   110  ARG110      0.2205
     94  NE       -26.1120   -6.8580  -19.7430 N.pl3 110  ARG110     -0.0865
     95  CZ       -26.1200   -7.0920  -18.4370 C.cat 110  ARG110      0.5346
     96  NH1      -26.1110   -6.0860  -17.5760 N.pl3 110  ARG110      0.1354
     97  NH2      -26.1040   -8.3370  -17.9810 N.pl3 110  ARG110      0.1354
     98  N        -30.2590   -2.3800  -19.1510 N.am  111  ALA111     -0.1966
     99  CA       -31.0430   -1.8530  -18.0380 C.3   111  ALA111      0.1728
    100  C        -32.1580   -0.9330  -18.4840 C.2   111  ALA111      0.2616
    101  O        -32.8970   -0.3850  -17.6640 O.2   111  ALA111     -0.2715
    102  CB       -30.1200   -1.1320  -17.0790 C.3   111  ALA111      0.0334
    103  N        -32.2930   -0.7630  -19.7980 N.am  112  TYR112     -0.1974
    104  CA       -33.2910    0.1160  -20.3470 C.3   112  TYR112      0.1639
    105  C        -34.4740   -0.6790  -20.9030 C.2   112  TYR112      0.2290
    106  O        -34.2930   -1.6320  -21.6430 O.2   112  TYR112     -0.2864
    107  CB       -32.6660    1.0220  -21.4080 C.3   112  TYR112      0.0560
    108  CG       -33.6500    1.9230  -22.1110 C.ar  112  TYR112     -0.0198
    109  CD1      -33.9840    3.1650  -21.5830 C.ar  112  TYR112     -0.0009
    110  CD2      -34.2260    1.5490  -23.3290 C.ar  112  TYR112     -0.0009
    111  CE1      -34.8780    4.0090  -22.2310 C.ar  112  TYR112      0.0417
    112  CE2      -35.1340    2.3830  -23.9810 C.ar  112  TYR112      0.0417
    113  CZ       -35.4460    3.6190  -23.4330 C.ar  112  TYR112      0.1957
    114  OH       -36.3050    4.4850  -24.0570 O.3   112  TYR112     -0.2866
    115  N        -35.4340    3.2510  -17.1570 N.3   119  VAL119     -0.1231
    116  CA       -34.1220    2.6850  -16.8840 C.3   119  VAL119      0.1692
    117  C        -34.0320    2.2280  -15.3940 C.2   119  VAL119      0.2592
    118  O        -34.6110    2.8620  -14.4930 O.2   119  VAL119     -0.2718
    119  CB       -32.9910    3.6850  -17.2730 C.3   119  VAL119      0.0266
    120  CG1      -32.8890    4.8490  -16.2930 C.3   119  VAL119      0.0020
    121  CG2      -31.6370    2.9790  -17.4680 C.3   119  VAL119      0.0020
    122  N        -33.2160    1.1990  -15.1420 N.am  120  PHE120     -0.1962
    123  CA       -32.9680    0.7020  -13.7980 C.3   120  PHE120      0.1771
    124  C        -32.0380    1.6540  -13.0400 C.2   120  PHE120      0.2620
    125  O        -30.8600    1.8300  -13.3950 O.2   120  PHE120     -0.2715
    126  CB       -32.4300   -0.7330  -13.8160 C.3   120  PHE120      0.0574
    127  CG       -32.3330   -1.3450  -12.4490 C.ar  120  PHE120     -0.0200
    128  CD1      -33.4810   -1.7480  -11.7650 C.ar  120  PHE120     -0.0042
    129  CD2      -31.1010   -1.4940  -11.8230 C.ar  120  PHE120     -0.0042
    130  CE1      -33.3950   -2.3060  -10.4840 C.ar  120  PHE120     -0.0003
    131  CE2      -31.0170   -2.0220  -10.5240 C.ar  120  PHE120     -0.0003
    132  CZ       -32.1650   -2.4270   -9.8670 C.ar  120  PHE120     -0.0000
    133  N        -32.5890    2.2800  -11.9930 N.am  121  PHE121     -0.1960
    134  CA       -31.8440    3.2080  -11.1690 C.3   121  PHE121      0.1771
    135  C        -32.2950    3.0480   -9.7280 C.2   121  PHE121      0.2619
    136  O        -33.4870    3.1570   -9.4300 O.2   121  PHE121     -0.2715
    137  CB       -32.0240    4.6600  -11.6650 C.3   121  PHE121      0.0574
    138  CG       -31.3080    5.7170  -10.8590 C.ar  121  PHE121     -0.0200
    139  CD1      -29.9820    6.0430  -11.1290 C.ar  121  PHE121     -0.0042
    140  CD2      -31.9690    6.4190   -9.8530 C.ar  121  PHE121     -0.0042
    141  CE1      -29.3290    7.0420  -10.4040 C.ar  121  PHE121     -0.0003
    142  CE2      -31.3130    7.4150   -9.1270 C.ar  121  PHE121     -0.0003
    143  CZ       -30.0020    7.7250   -9.4090 C.ar  121  PHE121     -0.0000
    144  N        -31.3250    2.7860   -8.8490 N.am  122  GLU122     -0.1963
    145  CA       -31.5000    2.6330   -7.4050 C.3   122  GLU122      0.1733
    146  C        -32.6680    1.7210   -6.9990 C.2   122  GLU122      0.2616
    147  O        -33.5180    2.1290   -6.2170 O.2   122  GLU122     -0.2715
    148  CB       -31.6110    4.0150   -6.7240 C.3   122  GLU122      0.0429
    149  CG       -30.3280    4.8240   -6.8210 C.3   122  GLU122      0.1163
    150  CD       -30.2710    6.1240   -6.0460 C.2   122  GLU122      0.3649
    151  OE1      -31.3330    6.6100   -5.6100 O.co2 122  GLU122     -0.2457
    152  OE2      -29.1550    6.6450   -5.8380 O.co2 122  GLU122     -0.2457
    153  N        -32.7170    0.5280   -7.5760 N.am  123  GLY123     -0.1955
    154  CA       -33.6830   -0.4970   -7.1850 C.3   123  GLY123      0.1869
    155  C        -34.9570   -0.6260   -7.9840 C.2   123  GLY123      0.2309
    156  O        -35.6160   -1.6620   -7.8950 O.2   123  GLY123     -0.2863
    157  N        -34.6370   12.2200  -13.3060 N.3   131  PHE131     -0.1241
    158  CA       -33.3780   12.9610  -13.2420 C.3   131  PHE131      0.1605
    159  C        -33.5190   14.4890  -13.4380 C.2   131  PHE131      0.2264
    160  O        -32.5130   15.1720  -13.6050 O.2   131  PHE131     -0.2867
    161  CB       -32.3860   12.3400  -14.2510 C.3   131  PHE131      0.0534
    162  CG       -32.1390   10.8590  -14.0470 C.ar  131  PHE131     -0.0203
    163  CD1      -32.7060    9.9190  -14.9010 C.ar  131  PHE131     -0.0042
    164  CD2      -31.3460   10.4080  -12.9980 C.ar  131  PHE131     -0.0042
    165  CE1      -32.4710    8.5490  -14.7220 C.ar  131  PHE131     -0.0003
    166  CE2      -31.1340    9.0350  -12.7980 C.ar  131  PHE131     -0.0003
    167  CZ       -31.7050    8.1120  -13.6570 C.ar  131  PHE131     -0.0000
    168  N        -31.1000   17.2290  -11.8300 N.3   134  LEU134     -0.1245
    169  CA       -29.7460   17.3460  -12.4050 C.3   134  LEU134      0.1561
    170  C        -29.5200   18.6150  -13.2060 C.2   134  LEU134      0.2260
    171  O        -28.4280   19.1750  -13.1330 O.2   134  LEU134     -0.2867
    172  CB       -29.3480   16.1170  -13.2480 C.3   134  LEU134      0.0270
    173  CG       -29.1100   14.8260  -12.4730 C.3   134  LEU134      0.0019
    174  CD1      -28.9130   13.6490  -13.4120 C.3   134  LEU134      0.0001
    175  CD2      -27.8830   14.9390  -11.6210 C.3   134  LEU134      0.0001
    176  N        -29.4530   13.8960  -20.5190 N.3   140  ILE140     -0.1245
    177  CA       -30.3000   12.7750  -20.0400 C.3   140  ILE140      0.1561
    178  C        -31.1290   12.2140  -21.2140 C.2   140  ILE140      0.2260
    179  O        -31.0520   11.0250  -21.4850 O.2   140  ILE140     -0.2867
    180  CB       -31.2000   13.1300  -18.7970 C.3   140  ILE140      0.0252
    181  CG1      -30.4270   13.8010  -17.6160 C.3   140  ILE140      0.0019
    182  CG2      -31.9940   11.9260  -18.2900 C.3   140  ILE140      0.0019
    183  CD1      -29.0940   13.1830  -17.1590 C.3   140  ILE140      0.0001
    184  N        -29.0410   10.4060  -23.6700 N.3   143  ILE143     -0.1231
    185  CA       -28.6130    9.0820  -23.2080 C.3   143  ILE143      0.1692
    186  C        -29.7890    8.1030  -23.3250 C.2   143  ILE143      0.2592
    187  O        -29.5950    6.9890  -23.8070 O.2   143  ILE143     -0.2718
    188  CB       -27.9500    9.0770  -21.8100 C.3   143  ILE143      0.0266
    189  CG1      -26.6420    9.9280  -21.8270 C.3   143  ILE143      0.0019
    190  CG2      -27.6540    7.6150  -21.3730 C.3   143  ILE143      0.0020
    191  CD1      -26.0940   10.2850  -20.4270 C.3   143  ILE143      0.0001
    192  N        -31.0030    8.5520  -22.9690 N.am  144  PHE144     -0.1976
    193  CA       -32.2380    7.7640  -23.0870 C.3   144  PHE144      0.1639
    194  C        -32.5010    7.3440  -24.5500 C.2   144  PHE144      0.2290
    195  O        -32.7880    6.1730  -24.8160 O.2   144  PHE144     -0.2864
    196  CB       -33.4270    8.5410  -22.4770 C.3   144  PHE144      0.0560
    197  CG       -33.6500    8.2330  -21.0060 C.ar  144  PHE144     -0.0200
    198  CD1      -32.8230    8.7790  -20.0270 C.ar  144  PHE144     -0.0042
    199  CD2      -34.6500    7.3580  -20.6060 C.ar  144  PHE144     -0.0042
    200  CE1      -33.0280    8.4930  -18.6770 C.ar  144  PHE144     -0.0003
    201  CE2      -34.8550    7.0810  -19.2490 C.ar  144  PHE144     -0.0003
    202  CZ       -34.0190    7.6200  -18.3020 C.ar  144  PHE144     -0.0000
    203  N        -29.9280    4.6500  -25.5680 N.3   147  SER147     -0.1217
    204  CA       -30.3590    3.3790  -24.9840 C.3   147  SER147      0.1889
    205  C        -31.5550    2.8680  -25.7550 C.2   147  SER147      0.2288
    206  O        -31.6660    1.6640  -25.9620 O.2   147  SER147     -0.2866
    207  CB       -30.7040    3.5350  -23.5050 C.3   147  SER147      0.2089
    208  OG       -29.5180    3.6310  -22.7340 O.3   147  SER147     -0.2183
@<TRIPOS>BOND
     1   206   205    2
     2   205   204    1
     3   203   204    1
     4   204   207    1
     5   195   194    2
     6   194   193    1
     7   114   113    1
     8   112   113   ar
     9   112   110   ar
    10   187   186    2
    11   184   185    1
    12   207   208    1
    13   113   111   ar
    14   110   108   ar
    15   186   185    1
    16   186   192   am
    17   185   188    1
    18   193   192    1
    19   193   196    1
    20   196   197    1
    21   111   109   ar
    22    68    69    1
    23   108   109   ar
    24   108   107    1
    25   189   188    1
    26   189   191    1
    27   188   190    1
    28   106   105    2
    29    87    88    1
    30   179   178    2
    31   107   104    1
    32    69    70    1
    33    69    72    1
    34   178   177    1
    35    92    93    1
    36    92    91    1
    37   197   199   ar
    38   197   198   ar
    39    88    91    1
    40    88    89    1
    41   105   104    1
    42    81    82    2
    43    81    80    1
    44    70    71    2
    45    70    79   am
    46   199   201   ar
    47    61    62    1
    48   176   177    1
    49    79    80    1
    50    93    94    1
    51    63    64    2
    52    63    62    1
    53   104   103    1
    54    73    72    1
    55    73    74    1
    56   177   180    1
    57   198   200   ar
    58    80    83    1
    59    83    84    1
    60   103   100   am
    61    89    90    2
    62    89    98   am
    63    94    95    2
    64    62    65    1
    65    75    74    1
    66    75    76    2
    67   201   202   ar
    68    98    99    1
    69    84    85    1
    70   180   182    1
    71   180   181    1
    72   200   202   ar
    73    78    76    1
    74   100    99    1
    75   100   101    2
    76    65    66    1
    77    65    67    1
    78    95    97    1
    79    95    96    1
    80    76    77    1
    81    99   102    1
    82   181   183    1
    83   121   119    1
    84   119   116    1
    85   119   120    1
    86    85    86    1
    87     5     2    1
    88     5     6    1
    89   115   116    1
    90   116   117    1
    91     2     1    1
    92     2     3    1
    93    30    29    1
    94     4     3    2
    95    28    29    1
    96    28    25    1
    97    55    53    1
    98    26    27    2
    99    26    25    1
   100     3     7   am
   101   117   122   am
   102   117   118    2
   103    19    18    2
   104    29    31    1
   105   122   123    1
   106   163   165   ar
   107   163   162   ar
   108    25    24    1
   109   165   167   ar
   110    54    53    1
   111    59    58    2
   112    53    52    1
   113   161   162    1
   114   161   158    1
   115    60    57    1
   116     7     8    1
   117    18    17    1
   118   162   164   ar
   119    58    57    1
   120   126   123    1
   121   126   127    1
   122   123   124    1
   123   167   166   ar
   124   160   159    2
   125    52    49    1
   126   159   158    1
   127   174   173    1
   128   125   124    2
   129    16    17    1
   130    16     9   am
   131    14    13    2
   132   157   158    1
   133    57    56    1
   134   172   173    1
   135   172   169    1
   136   170   171    2
   137   170   169    1
   138    11     8    1
   139    11    12    1
   140    51    50    2
   141    17    20    1
   142    20    21    1
   143   124   133   am
   144   164   166   ar
   145     8     9    1
   146    49    50    1
   147    49    48    1
   148     9    10    2
   149   173   175    1
   150   127   129   ar
   151   127   128   ar
   152   169   168    1
   153    13    12    1
   154    13    15   am
   155   133   134    1
   156    23    21    1
   157   129   131   ar
   158   128   130   ar
   159    21    22    1
   160   137   134    1
   161   137   138    1
   162    48    40   am
   163    36    37    1
   164    36    33    1
   165   134   135    1
   166    41    40    2
   167   139   138   ar
   168   139   141   ar
   169    35    34    2
   170   138   140   ar
   171    40    39    1
   172   131   132   ar
   173    34    33    1
   174   130   132   ar
   175   141   143   ar
   176    33    32    1
   177    42    39    1
   178    42    43    1
   179   140   142   ar
   180   135   136    2
   181   135   144   am
   182    39    38    1
   183   143   142   ar
   184   144   145    1
   185    43    45   ar
   186    43    44   ar
   187    45    47   ar
   188   155   156    2
   189   155   154    1
   190    44    46   ar
   191   153   154    1
   192   153   146   am
   193   145   146    1
   194   145   148    1
   195    47    46   ar
   196   146   147    2
   197   149   148    1
   198   149   150    1
   199   150   152   ar
   200   150   151   ar
