@<TRIPOS>MOLECULE
tmp/6esqB00.pdb
 128 121 0 0 0
SMALL
GASTEIGER

@<TRIPOS>ATOM
      1  N         86.2720   47.4080   90.8780 N.3    16  GLU16      -0.1245
      2  CA        86.3420   46.3880   89.8290 C.3    16  GLU16       0.1567
      3  C         87.4500   45.4300   90.1690 C.2    16  GLU16       0.2260
      4  O         88.6220   45.7720   90.0300 O.2    16  GLU16      -0.2867
      5  CB        86.6140   47.0220   88.4550 C.3    16  GLU16       0.0388
      6  CG        85.5310   47.9730   87.9920 C.3    16  GLU16       0.1160
      7  CD        85.9110   48.8040   86.7860 C.2    16  GLU16       0.3649
      8  OE1       85.1570   49.7490   86.4650 O.co2  16  GLU16      -0.2457
      9  OE2       87.0350   48.6150   86.2650 O.co2  16  GLU16      -0.2457
     10  N         73.2490   46.7570   83.3050 N.3   122  THR122     -0.1218
     11  CA        72.0640   47.6060   83.2970 C.3   122  THR122      0.1862
     12  C         70.8290   46.7680   83.6000 C.2   122  THR122      0.2287
     13  O         70.0120   47.1480   84.4300 O.2   122  THR122     -0.2866
     14  CB        71.9280   48.2920   81.9310 C.3   122  THR122      0.1770
     15  OG1       71.9100   47.2910   80.9130 O.3   122  THR122     -0.2211
     16  CG2       73.0510   49.2770   81.6580 C.3   122  THR122      0.0375
     17  N         70.3850   46.0620   87.5840 N.3   125  ILE125     -0.1245
     18  CA        69.9370   47.1860   88.3950 C.3   125  ILE125      0.1561
     19  C         68.4870   47.5320   88.0740 C.2   125  ILE125      0.2260
     20  O         67.7640   48.0090   88.9460 O.2   125  ILE125     -0.2867
     21  CB        70.8640   48.4090   88.2190 C.3   125  ILE125      0.0252
     22  CG1       70.9200   48.8670   86.7330 C.3   125  ILE125      0.0019
     23  CG2       72.2470   48.0730   88.7370 C.3   125  ILE125      0.0019
     24  CD1       71.6660   50.2740   86.4540 C.3   125  ILE125      0.0001
     25  N         68.8430   55.1990   86.2590 N.3   142  PRO142     -0.2116
     26  CA        69.2290   56.5990   86.4350 C.3   142  PRO142      0.1372
     27  C         68.1430   57.5490   85.9630 C.2   142  PRO142      0.2244
     28  O         68.0390   58.6570   86.4780 O.2   142  PRO142     -0.2868
     29  CB        70.4940   56.7270   85.5770 C.3   142  PRO142      0.0268
     30  CG        70.9850   55.3500   85.4200 C.3   142  PRO142      0.0207
     31  CD        69.7730   54.5100   85.3540 C.3   142  PRO142      0.0892
     32  N         86.8040   55.2140   94.3920 N.3   182  PHE182     -0.1241
     33  CA        87.4340   56.4340   93.8740 C.3   182  PHE182      0.1605
     34  C         88.1440   57.2370   94.9620 C.2   182  PHE182      0.2264
     35  O         87.4800   57.9360   95.7230 O.2   182  PHE182     -0.2867
     36  CB        86.3780   57.3270   93.2120 C.3   182  PHE182      0.0534
     37  CG        85.5950   56.6260   92.1310 C.ar  182  PHE182     -0.0203
     38  CD1       86.2380   56.0710   91.0340 C.ar  182  PHE182     -0.0042
     39  CD2       84.2290   56.4480   92.2510 C.ar  182  PHE182     -0.0042
     40  CE1       85.5190   55.4190   90.0420 C.ar  182  PHE182     -0.0003
     41  CE2       83.5110   55.7900   91.2610 C.ar  182  PHE182     -0.0003
     42  CZ        84.1610   55.2620   90.1700 C.ar  182  PHE182     -0.0000
     43  N         89.9030   60.1800   94.3920 N.3   184  PHE184     -0.1241
     44  CA        90.2970   61.4530   93.7940 C.3   184  PHE184      0.1605
     45  C         89.3340   62.5690   94.1670 C.2   184  PHE184      0.2264
     46  O         88.1880   62.3120   94.5430 O.2   184  PHE184     -0.2867
     47  CB        90.3950   61.3330   92.2670 C.3   184  PHE184      0.0534
     48  CG        89.0980   60.9890   91.5800 C.ar  184  PHE184     -0.0203
     49  CD1       88.7760   59.6700   91.2910 C.ar  184  PHE184     -0.0042
     50  CD2       88.2780   61.9880   91.0750 C.ar  184  PHE184     -0.0042
     51  CE1       87.6480   59.3580   90.5380 C.ar  184  PHE184     -0.0003
     52  CE2       87.1250   61.6710   90.3620 C.ar  184  PHE184     -0.0003
     53  CZ        86.8160   60.3560   90.1010 C.ar  184  PHE184     -0.0000
     54  N         80.0210   63.4700   81.4640 N.3   195  SER195     -0.1217
     55  CA        79.1600   62.9040   80.4280 C.3   195  SER195      0.1889
     56  C         77.7680   62.6070   80.9820 C.2   195  SER195      0.2288
     57  O         77.6450   61.9810   82.0350 O.2   195  SER195     -0.2866
     58  CB        79.7760   61.6300   79.8590 C.3   195  SER195      0.2089
     59  OG        80.1470   60.7360   80.8950 O.3   195  SER195     -0.2183
     60  N         74.2330   60.9190   81.7530 N.3   197  VAL197     -0.1245
     61  CA        73.5830   59.6160   81.6890 C.3   197  VAL197      0.1561
     62  C         72.0900   59.8190   81.4460 C.2   197  VAL197      0.2260
     63  O         71.5350   59.2550   80.5050 O.2   197  VAL197     -0.2867
     64  CB        73.8370   58.8180   82.9880 C.3   197  VAL197      0.0252
     65  CG1       73.2490   57.4120   82.8900 C.3   197  VAL197      0.0019
     66  CG2       75.3270   58.7610   83.3130 C.3   197  VAL197      0.0019
     67  N         77.3430   61.5860   84.7230 N.3   203  LEU203     -0.1231
     68  CA        78.0990   60.4460   85.2180 C.3   203  LEU203      0.1693
     69  C         78.5730   60.6950   86.6600 C.2   203  LEU203      0.2591
     70  O         78.5540   59.7800   87.4860 O.2   203  LEU203     -0.2718
     71  CB        79.3000   60.1990   84.2960 C.3   203  LEU203      0.0284
     72  CG        80.1360   58.9550   84.5820 C.3   203  LEU203      0.0019
     73  CD1       80.4140   58.1790   83.3040 C.3   203  LEU203      0.0001
     74  CD2       81.4480   59.3370   85.2460 C.3   203  LEU203      0.0001
     75  N         78.8790   61.9600   86.9860 N.am  204  MET204     -0.1979
     76  CA        79.3820   62.3110   88.3060 C.3   204  MET204      0.1605
     77  C         78.2650   62.5350   89.3210 C.2   204  MET204      0.2287
     78  O         78.5420   62.9930   90.4200 O.2   204  MET204     -0.2864
     79  CB        80.2620   63.5620   88.2200 C.3   204  MET204      0.0413
     80  CG        81.6640   63.2750   87.7690 C.3   204  MET204      0.0598
     81  SD        82.6830   62.6100   89.1060 S.3   204  MET204     -0.1393
     82  CE        84.1630   62.2590   88.2050 C.3   204  MET204      0.0692
     83  N         76.1280   59.8070   89.5750 N.3   206  CYS206     -0.1221
     84  CA        75.7500   58.4050   89.7170 C.3   206  CYS206      0.1808
     85  C         76.8210   57.6290   90.4390 C.2   206  CYS206      0.2602
     86  O         77.9820   57.6700   90.0440 O.2   206  CYS206     -0.2717
     87  CB        75.4510   57.7810   88.3560 C.3   206  CYS206      0.0970
     88  SG        74.3860   58.7850   87.3020 S.3   206  CYS206     -0.0800
     89  N         76.3860   56.7130   91.3030 N.am  207  SER207     -0.1938
     90  CA        77.2730   55.7110   91.8710 C.3   207  SER207      0.2040
     91  C         77.6160   54.6830   90.8000 C.2   207  SER207      0.2485
     92  O         76.8440   54.4800   89.8600 O.2   207  SER207     -0.2729
     93  CB        76.6090   55.0220   93.0560 C.3   207  SER207      0.2129
     94  OG        75.3470   54.4780   92.7010 O.3   207  SER207     -0.2179
     95  N         78.8070   54.0780   90.8770 N.am  208  PRO208     -0.2715
     96  CA        79.2060   53.1390   89.8230 C.3   208  PRO208      0.1536
     97  C         78.7470   51.7240   90.1060 C.2   208  PRO208      0.2598
     98  O         78.5630   51.3460   91.2670 O.2   208  PRO208     -0.2715
     99  CB        80.7240   53.2220   89.8580 C.3   208  PRO208      0.0310
    100  CG        81.0270   53.4500   91.3050 C.3   208  PRO208      0.0237
    101  CD        79.9040   54.3040   91.8390 C.3   208  PRO208      0.0939
    102  N         78.8360   50.8860   89.0880 N.am  209  VAL209     -0.1978
    103  CA        78.6750   49.4580   89.2980 C.3   209  VAL209      0.1596
    104  C         79.9630   48.8840   89.8660 C.2   209  VAL209      0.2287
    105  O         81.0610   49.2470   89.4330 O.2   209  VAL209     -0.2864
    106  CB        78.2720   48.7500   88.0090 C.3   209  VAL209      0.0276
    107  CG1       78.0280   47.2820   88.2850 C.3   209  VAL209      0.0022
    108  CG2       77.0290   49.4030   87.4160 C.3   209  VAL209      0.0022
    109  N         72.4070   58.2790   93.6870 N.3   287  PHE287     -0.1241
    110  CA        72.2170   59.2960   92.6600 C.3   287  PHE287      0.1605
    111  C         72.1540   60.7050   93.2230 C.2   287  PHE287      0.2264
    112  O         71.6460   61.5920   92.5330 O.2   287  PHE287     -0.2867
    113  CB        70.9410   59.0200   91.8630 C.3   287  PHE287      0.0534
    114  CG        71.0720   57.8600   90.9170 C.ar  287  PHE287     -0.0203
    115  CD1       71.7300   58.0030   89.7060 C.ar  287  PHE287     -0.0042
    116  CD2       70.5840   56.6110   91.2580 C.ar  287  PHE287     -0.0042
    117  CE1       71.9370   56.9090   88.8790 C.ar  287  PHE287     -0.0003
    118  CE2       70.7510   55.5290   90.4110 C.ar  287  PHE287     -0.0003
    119  CZ        71.4260   55.6820   89.2230 C.ar  287  PHE287     -0.0000
    120  N         78.4620   56.9800   96.1450 N.3   332  LYS332     -0.1245
    121  CA        78.9560   57.6970   94.9770 C.3   332  LYS332      0.1561
    122  C         80.4380   57.4360   94.7630 C.2   332  LYS332      0.2260
    123  O         80.8610   57.1120   93.6520 O.2   332  LYS332     -0.2867
    124  CB        78.7100   59.1990   95.1520 C.3   332  LYS332      0.0271
    125  CG        79.2020   60.0360   93.9930 C.3   332  LYS332      0.0035
    126  CD        78.6640   59.5420   92.6590 C.3   332  LYS332      0.0206
    127  CE        79.2210   60.3440   91.5200 C.3   332  LYS332      0.1093
    128  NZ        80.6750   60.2410   91.3210 N.3   332  LYS332     -0.1314
@<TRIPOS>BOND
     1    58    55    1
     2    58    59    1
     3    55    56    1
     4    55    54    1
     5    63    62    2
     6    15    14    1
     7    56    57    2
     8    62    61    1
     9    16    14    1
    10    61    60    1
    11    61    64    1
    12    14    11    1
    13    65    64    1
    14    64    66    1
    15    11    10    1
    16    11    12    1
    17    73    72    1
    18    12    13    2
    19    71    72    1
    20    71    68    1
    21    72    74    1
    22    67    68    1
    23    68    69    1
    24    31    30    1
    25    31    25    1
    26    30    29    1
    27    29    26    1
    28    27    26    1
    29    27    28    2
    30    25    26    1
    31     9     7   ar
    32    24    22    1
    33     8     7   ar
    34    69    75   am
    35    69    70    2
    36    22    21    1
    37     7     6    1
    38    75    76    1
    39    88    87    1
    40   108   106    1
    41    17    18    1
    42    80    79    1
    43    80    81    1
    44     6     5    1
    45   106   107    1
    46   106   103    1
    47    19    18    1
    48    19    20    2
    49    82    81    1
    50    21    18    1
    51    21    23    1
    52    79    76    1
    53    76    77    1
    54    87    84    1
    55     5     2    1
    56   117   119   ar
    57   117   115   ar
    58   102   103    1
    59   102    97   am
    60   119   118   ar
    61   103   104    1
    62    77    78    2
    63   105   104    2
    64    83    84    1
    65   115   114   ar
    66    84    85    1
    67    96    99    1
    68    96    97    1
    69    96    95    1
    70     2     3    1
    71     2     1    1
    72    99   100    1
    73    92    91    2
    74     4     3    2
    75    40    42   ar
    76    40    38   ar
    77    86    85    2
    78    53    52   ar
    79    53    51   ar
    80    97    98    2
    81    42    41   ar
    82    52    50   ar
    83   118   116   ar
    84    85    89   am
    85    51    49   ar
    86    91    95   am
    87    91    90    1
    88    95   101    1
    89   114   116   ar
    90   114   113    1
    91    38    37   ar
    92    50    48   ar
    93    41    39   ar
    94    49    48   ar
    95    89    90    1
    96   100   101    1
    97   128   127    1
    98   127   126    1
    99    48    47    1
   100   113   110    1
   101    90    93    1
   102    37    39   ar
   103    37    36    1
   104    47    44    1
   105   112   111    2
   106   126   125    1
   107   110   111    1
   108   110   109    1
   109    94    93    1
   110    36    33    1
   111   123   122    2
   112    44    45    1
   113    44    43    1
   114    33    32    1
   115    33    34    1
   116   125   124    1
   117    45    46    2
   118   122   121    1
   119    34    35    2
   120   121   124    1
   121   121   120    1
