@<TRIPOS>MOLECULE
tmp/6essA00.pdb
 180 170 0 0 0
SMALL
GASTEIGER

@<TRIPOS>ATOM
      1  N          9.5980   32.8300   -4.7150 N.3    11  ASN11      -0.1240
      2  CA        10.8580   33.5110   -4.3890 C.3    11  ASN11       0.1653
      3  C         10.9490   34.8070   -5.1670 C.2    11  ASN11       0.2266
      4  O         10.0870   35.0950   -5.9650 O.2    11  ASN11      -0.2867
      5  CB        12.0860   32.5940   -4.5390 C.3    11  ASN11       0.1155
      6  CG        12.4620   32.3050   -5.9900 C.2    11  ASN11       0.2627
      7  OD1       11.9120   32.8780   -6.9280 O.2    11  ASN11      -0.2716
      8  ND2       13.4080   31.3960   -6.1680 N.am   11  ASN11      -0.0877
      9  N         12.5690   35.6480   -7.6220 N.3    13  LEU13      -0.1245
     10  CA        12.7120   35.5000   -9.0730 C.3    13  LEU13       0.1561
     11  C         11.3720   35.1100   -9.7180 C.2    13  LEU13       0.2260
     12  O         11.3150   34.9140  -10.9250 O.2    13  LEU13      -0.2867
     13  CB        13.7390   34.4020   -9.3940 C.3    13  LEU13       0.0270
     14  CG        15.1990   34.5360   -8.9750 C.3    13  LEU13       0.0019
     15  CD1       15.8970   33.1770   -9.0830 C.3    13  LEU13       0.0001
     16  CD2       15.9310   35.5570   -9.8310 C.3    13  LEU13       0.0001
     17  N          9.8930   32.2010   -8.9500 N.3    15  SER15      -0.1217
     18  CA         9.7490   30.7460   -8.8970 C.3    15  SER15       0.1889
     19  C          8.7300   30.2830   -7.9030 C.2    15  SER15       0.2288
     20  O          8.4610   30.9440   -6.9350 O.2    15  SER15      -0.2866
     21  CB        11.1070   30.0770   -8.5800 C.3    15  SER15       0.2089
     22  OG        11.9860   30.2070   -9.6790 O.3    15  SER15      -0.2183
     23  N          8.9290   21.9380   -7.6590 N.3    31  TYR31      -0.1241
     24  CA         9.5440   23.2430   -7.8570 C.3    31  TYR31       0.1605
     25  C          9.4760   23.6350   -9.3250 C.2    31  TYR31       0.2264
     26  O          9.6920   22.8000  -10.1750 O.2    31  TYR31      -0.2867
     27  CB        11.0440   23.1690   -7.4730 C.3    31  TYR31       0.0534
     28  CG        11.6640   24.5200   -7.0760 C.ar   31  TYR31      -0.0201
     29  CD1       12.2200   25.3470   -8.0300 C.ar   31  TYR31      -0.0009
     30  CD2       11.6910   24.9470   -5.7420 C.ar   31  TYR31      -0.0009
     31  CE1       12.7500   26.5790   -7.6750 C.ar   31  TYR31       0.0417
     32  CE2       12.2310   26.1730   -5.3890 C.ar   31  TYR31       0.0417
     33  CZ        12.7600   26.9810   -6.3630 C.ar   31  TYR31       0.1957
     34  OH        13.3270   28.1800   -6.0740 O.3    31  TYR31      -0.2866
     35  N         11.2630   26.6550  -11.5990 N.3    33  SER33      -0.1217
     36  CA        12.1450   27.7960  -11.7260 C.3    33  SER33       0.1889
     37  C         11.7190   28.7530  -12.8260 C.2    33  SER33       0.2288
     38  O         11.5640   28.3450  -13.9710 O.2    33  SER33      -0.2866
     39  CB        13.6170   27.3470  -11.9830 C.3    33  SER33       0.2089
     40  OG        14.4810   28.4670  -12.0750 O.3    33  SER33      -0.2183
     41  N         13.8940   30.7770  -13.9430 N.3    35  VAL35      -0.1231
     42  CA        15.1260   31.1110  -14.6070 C.3    35  VAL35       0.1692
     43  C         15.8760   29.8350  -14.8310 C.2    35  VAL35       0.2593
     44  O         15.5350   28.7790  -14.3210 O.2    35  VAL35      -0.2718
     45  CB        16.0290   32.0960  -13.8360 C.3    35  VAL35       0.0266
     46  CG1       15.4440   33.5070  -13.8140 C.3    35  VAL35       0.0020
     47  CG2       16.3190   31.6220  -12.3890 C.3    35  VAL35       0.0020
     48  N         16.8520   29.9530  -15.7080 N.am   36  GLY36      -0.1942
     49  CA        17.7780   28.8910  -16.0260 C.3    36  GLY36       0.2014
     50  C         17.2630   27.8470  -16.9660 C.2    36  GLY36       0.2639
     51  O         16.2260   27.9890  -17.5890 O.2    36  GLY36      -0.2714
     52  N         18.0320   26.7800  -17.0520 N.am   37  ASN37      -0.1958
     53  CA        17.7090   25.6760  -17.8770 C.3    37  ASN37       0.1819
     54  C         16.6400   24.7690  -17.3120 C.2    37  ASN37       0.2621
     55  O         16.9150   23.6440  -16.8960 O.2    37  ASN37      -0.2715
     56  CB        18.9620   24.9310  -18.2730 C.3    37  ASN37       0.1195
     57  CG        18.7140   24.0390  -19.4550 C.2    37  ASN37       0.2630
     58  OD1       17.5960   24.0440  -20.0190 O.2    37  ASN37      -0.2716
     59  ND2       19.6990   23.2150  -19.7840 N.am   37  ASN37      -0.0877
     60  N         15.3900   25.2370  -17.4220 N.am   38  ALA38      -0.1977
     61  CA        14.2950   24.5930  -16.7250 C.3    38  ALA38       0.1597
     62  C         12.9540   24.9270  -17.2910 C.2    38  ALA38       0.2287
     63  O         12.6960   26.0330  -17.6730 O.2    38  ALA38      -0.2864
     64  CB        14.3220   25.0260  -15.2600 C.3    38  ALA38       0.0319
     65  N         17.4960   18.6740  -11.6940 N.3    67  TRP67      -0.1241
     66  CA        16.8970   19.4320  -12.8080 C.3    67  TRP67       0.1605
     67  C         16.6350   18.5620  -14.0530 C.2    67  TRP67       0.2264
     68  O         16.9430   18.9470  -15.1790 O.2    67  TRP67      -0.2867
     69  CB        17.7350   20.7010  -13.1290 C.3    67  TRP67       0.0550
     70  CG        17.7700   21.6270  -11.9820 C.ar   67  TRP67       0.0003
     71  CD1       18.8300   21.8570  -11.0990 C.ar   67  TRP67       0.0946
     72  CD2       16.7000   22.4440  -11.5280 C.ar   67  TRP67       0.0152
     73  NE1       18.4530   22.7660  -10.1310 N.ar   67  TRP67      -0.2442
     74  CE2       17.1590   23.1390  -10.3620 C.ar   67  TRP67       0.0810
     75  CE3       15.3720   22.6100  -11.9430 C.ar   67  TRP67       0.0012
     76  CZ2       16.3620   24.0030   -9.6590 C.ar   67  TRP67       0.0191
     77  CZ3       14.5760   23.4860  -11.2630 C.ar   67  TRP67       0.0001
     78  CH2       15.0830   24.1930  -10.1140 C.ar   67  TRP67       0.0015
     79  N         18.9700   19.3220  -17.2420 N.3    74  ALA74      -0.1245
     80  CA        20.0640   20.2800  -17.1010 C.3    74  ALA74       0.1562
     81  C         21.2860   19.7350  -16.3740 C.2    74  ALA74       0.2260
     82  O         22.1480   20.5420  -15.9410 O.2    74  ALA74      -0.2867
     83  CB        19.5640   21.5210  -16.3430 C.3    74  ALA74       0.0290
     84  N         22.0980   18.7520  -13.4250 N.3    76  SER76      -0.1217
     85  CA        22.3990   19.5510  -12.2920 C.3    76  SER76       0.1889
     86  C         21.3770   19.3590  -11.1670 C.2    76  SER76       0.2288
     87  O         20.3170   18.7760  -11.3760 O.2    76  SER76      -0.2866
     88  CB        22.5280   20.9940  -12.7390 C.3    76  SER76       0.2089
     89  OG        21.3980   21.3940  -13.4830 O.3    76  SER76      -0.2183
     90  N         20.0280   21.5000   -7.3400 N.3    78  THR78      -0.1218
     91  CA        20.1440   22.5230   -6.3730 C.3    78  THR78       0.1862
     92  C         19.6770   22.0360   -5.0050 C.2    78  THR78       0.2287
     93  O         18.6740   21.3820   -4.9040 O.2    78  THR78      -0.2866
     94  CB        19.3640   23.7730   -6.8010 C.3    78  THR78       0.1770
     95  OG1       19.8890   24.2440   -8.0320 O.3    78  THR78      -0.2211
     96  CG2       19.5340   24.8490   -5.7590 C.3    78  THR78       0.0375
     97  N         18.6270   23.7850   -1.2820 N.3    80  TRP80      -0.1241
     98  CA        18.4390   25.0160   -0.5690 C.3    80  TRP80       0.1605
     99  C         18.5370   24.6580    0.8990 C.2    80  TRP80       0.2264
    100  O         17.9080   23.7000    1.3550 O.2    80  TRP80      -0.2867
    101  CB        17.0260   25.5720   -0.7820 C.3    80  TRP80       0.0550
    102  CG        16.7850   26.2010   -2.0580 C.ar   80  TRP80       0.0003
    103  CD1       16.7450   27.5360   -2.2890 C.ar   80  TRP80       0.0946
    104  CD2       16.5080   25.5590   -3.2930 C.ar   80  TRP80       0.0152
    105  NE1       16.4590   27.7640   -3.5790 N.ar   80  TRP80      -0.2442
    106  CE2       16.3030   26.5700   -4.2370 C.ar   80  TRP80       0.0810
    107  CE3       16.4020   24.2380   -3.6850 C.ar   80  TRP80       0.0012
    108  CZ2       16.0120   26.3140   -5.6160 C.ar   80  TRP80       0.0191
    109  CZ3       16.1190   23.9590   -5.0310 C.ar   80  TRP80       0.0001
    110  CH2       15.9430   25.0210   -5.9880 C.ar   80  TRP80       0.0015
    111  N         21.7190   28.6530   -1.3250 N.3    96  TRP96      -0.1241
    112  CA        21.6620   27.4370   -2.1800 C.3    96  TRP96       0.1605
    113  C         22.9690   27.1170   -2.9220 C.2    96  TRP96       0.2264
    114  O         23.7220   28.0110   -3.2060 O.2    96  TRP96      -0.2867
    115  CB        20.4800   27.4750   -3.1520 C.3    96  TRP96       0.0550
    116  CG        20.4390   28.6090   -4.0640 C.ar   96  TRP96       0.0003
    117  CD1       19.5550   29.6860   -3.9970 C.ar   96  TRP96       0.0946
    118  CD2       21.2380   28.8530   -5.2340 C.ar   96  TRP96       0.0152
    119  NE1       19.7870   30.5640   -4.9950 N.ar   96  TRP96      -0.2442
    120  CE2       20.8050   30.1160   -5.7750 C.ar   96  TRP96       0.0810
    121  CE3       22.3140   28.1890   -5.8550 C.ar   96  TRP96       0.0012
    122  CZ2       21.3710   30.6770   -6.9170 C.ar   96  TRP96       0.0191
    123  CZ3       22.8660   28.7600   -6.9990 C.ar   96  TRP96       0.0001
    124  CH2       22.3970   29.9820   -7.5070 C.ar   96  TRP96       0.0015
    125  N         24.1300   25.0440   -6.2490 N.3    98  LEU98      -0.1245
    126  CA        23.7780   24.3330   -7.4720 C.3    98  LEU98       0.1561
    127  C         25.0360   23.6360   -7.9820 C.2    98  LEU98       0.2260
    128  O         25.9990   24.2750   -8.3320 O.2    98  LEU98      -0.2867
    129  CB        23.1940   25.3210   -8.4760 C.3    98  LEU98       0.0270
    130  CG        22.6760   24.7880   -9.8060 C.3    98  LEU98       0.0019
    131  CD1       21.9000   25.8870  -10.5360 C.3    98  LEU98       0.0001
    132  CD2       23.8100   24.2600  -10.6830 C.3    98  LEU98       0.0001
    133  N         26.6510   21.2750  -10.9940 N.3   100  ALA100     -0.1245
    134  CA        26.3540   20.8240  -12.3900 C.3   100  ALA100      0.1562
    135  C         27.2890   19.6910  -12.7460 C.2   100  ALA100      0.2260
    136  O         28.4910   19.8660  -12.6920 O.2   100  ALA100     -0.2867
    137  CB        26.5380   21.9500  -13.3690 C.3   100  ALA100      0.0290
    138  N         29.8390   17.4180  -14.4690 N.3   102  THR102     -0.1218
    139  CA        30.9640   17.8520  -15.3260 C.3   102  THR102      0.1862
    140  C         32.0340   16.7760  -15.4430 C.2   102  THR102      0.2287
    141  O         32.0250   15.7890  -14.7270 O.2   102  THR102     -0.2866
    142  CB        31.7250   19.1000  -14.7600 C.3   102  THR102      0.1770
    143  OG1       32.0960   18.8860  -13.3830 O.3   102  THR102     -0.2211
    144  CG2       30.9180   20.3830  -14.9050 C.3   102  THR102      0.0375
    145  N         35.0020   24.5710  -11.0360 N.3   109  ALA109     -0.1231
    146  CA        33.9310   25.5350  -11.3810 C.3   109  ALA109      0.1694
    147  C         32.5370   24.8830  -11.4420 C.2   109  ALA109      0.2595
    148  O         31.6970   25.2670  -12.2300 O.2   109  ALA109     -0.2718
    149  CB        34.2630   26.1370  -12.7320 C.3   109  ALA109      0.0304
    150  N         32.3210   23.9170  -10.5670 N.am  110  MET110     -0.1920
    151  CA        31.2320   22.9340  -10.6210 C.3   110  MET110      0.1952
    152  C         29.9570   23.4680   -9.8890 C.2   110  MET110      0.2660
    153  O         28.8670   23.0780  -10.2430 O.2   110  MET110     -0.2711
    154  CB        31.8150   21.6010  -10.0450 C.2   110  MET110      0.0110
    155  CG        30.9890   20.6490   -9.1770 C.2   110  MET110      0.0285
    156  SD        31.8720   19.2980   -8.2660 S.3   110  MET110     -0.1125
    157  CE        31.9450   19.8220   -6.5430 C.3   110  MET110      0.0742
    158  N         30.1280   24.3760   -8.9080 N.am  111  THR111     -0.1934
    159  CA        29.0950   24.7470   -7.9760 C.3   111  THR111      0.2028
    160  C         28.8840   26.2960   -7.8780 C.2   111  THR111      0.2642
    161  O         29.8310   27.0850   -7.6490 O.2   111  THR111     -0.2714
    162  CB        29.3890   24.1390   -6.5940 C.3   111  THR111      0.1808
    163  OG1       29.6330   22.7230   -6.7300 O.3   111  THR111     -0.2208
    164  CG2       28.2460   24.3850   -5.6340 C.3   111  THR111      0.0379
    165  N         27.6260   26.6940   -8.1310 N.am  112  LEU112     -0.1977
    166  CA        27.1540   28.0380   -7.9520 C.3   112  LEU112      0.1596
    167  C         26.5860   28.1390   -6.5390 C.2   112  LEU112      0.2287
    168  O         26.0860   27.1580   -6.0150 O.2   112  LEU112     -0.2864
    169  CB        26.0320   28.2930   -8.9520 C.3   112  LEU112      0.0297
    170  CG        26.5450   28.4070  -10.3920 C.3   112  LEU112      0.0022
    171  CD1       25.4020   28.4620  -11.4110 C.3   112  LEU112      0.0001
    172  CD2       27.3740   29.6780  -10.4950 C.3   112  LEU112      0.0001
    173  N         17.8650   32.7030   -1.8620 N.3   116  ASP116     -0.1239
    174  CA        16.4500   32.8590   -2.2230 C.3   116  ASP116      0.1674
    175  C         15.6810   33.1490   -0.9730 C.2   116  ASP116      0.2266
    176  O         15.9410   32.5180    0.0600 O.2   116  ASP116     -0.2867
    177  CB        15.8490   31.5960   -2.8090 C.3   116  ASP116      0.1410
    178  CG        16.2530   31.3430   -4.2500 C.2   116  ASP116      0.3668
    179  OD1       16.7570   32.2410   -4.8310 O.co2 116  ASP116     -0.2456
    180  OD2       16.1100   30.2370   -4.8090 O.co2 116  ASP116     -0.2456
@<TRIPOS>BOND
     1    58    57    2
     2    59    57   am
     3    57    56    1
     4    56    53    1
     5    53    54    1
     6    53    52    1
     7    63    62    2
     8    51    50    2
     9    60    54   am
    10    60    61    1
    11    54    55    2
    12    62    61    1
    13    79    80    1
    14    80    81    1
    15    80    83    1
    16    52    50   am
    17    50    49    1
    18    61    64    1
    19    81    82    2
    20    49    48    1
    21    48    43   am
    22   140   139    1
    23   140   141    2
    24   139   142    1
    25   139   138    1
    26    68    67    2
    27   144   142    1
    28    43    42    1
    29    43    44    2
    30   142   143    1
    31    42    41    1
    32    42    45    1
    33    67    66    1
    34    38    37    2
    35    45    46    1
    36    45    47    1
    37    89    88    1
    38    84    85    1
    39   137   134    1
    40    69    66    1
    41    69    70    1
    42    37    36    1
    43    66    65    1
    44   135   136    2
    45   135   134    1
    46    88    85    1
    47   149   146    1
    48   134   133    1
    49    85    86    1
    50   148   147    2
    51    40    39    1
    52    39    36    1
    53    70    72   ar
    54    70    71   ar
    55    75    72   ar
    56    75    77   ar
    57    36    35    1
    58    72    74   ar
    59   147   146    1
    60   147   150   am
    61   171   170    1
    62   146   145    1
    63    87    86    2
    64    77    78   ar
    65    71    73   ar
    66    12    11    2
    67   132   130    1
    68   151   150    1
    69   151   154    1
    70   151   152    1
    71   131   130    1
    72   172   170    1
    73   170   169    1
    74    74    73   ar
    75    74    76   ar
    76   153   152    2
    77    26    25    2
    78    78    76   ar
    79   154   155    2
    80   152   158   am
    81    16    14    1
    82   130   129    1
    83    11    10    1
    84    22    21    1
    85    13    10    1
    86    13    14    1
    87    25    24    1
    88   155   156    1
    89    15    14    1
    90    10     9    1
    91   169   166    1
    92    17    18    1
    93   158   159    1
    94    18    21    1
    95    18    19    1
    96   129   126    1
    97   128   127    2
    98   156   157    1
    99   165   166    1
   100   165   160   am
   101    95    94    1
   102    29    31   ar
   103    29    28   ar
   104   127   126    1
   105   159   160    1
   106   159   162    1
   107   166   167    1
   108    19    20    2
   109   160   161    2
   110    24    23    1
   111    24    27    1
   112    31    33   ar
   113   124   123   ar
   114   124   122   ar
   115    27    28    1
   116   126   125    1
   117    90    91    1
   118    28    30   ar
   119   123   121   ar
   120     7     6    2
   121   122   120   ar
   122    94    91    1
   123    94    96    1
   124   163   162    1
   125   162   164    1
   126   167   168    2
   127    91    92    1
   128    33    34    1
   129    33    32   ar
   130     8     6   am
   131     6     5    1
   132   110   108   ar
   133   110   109   ar
   134     4     3    2
   135   121   118   ar
   136   120   118   ar
   137   120   119   ar
   138    30    32   ar
   139   108   106   ar
   140   118   116   ar
   141     3     2    1
   142   109   107   ar
   143    92    93    2
   144   119   117   ar
   145   179   178   ar
   146   180   178   ar
   147     1     2    1
   148     5     2    1
   149   178   177    1
   150   106   105   ar
   151   106   104   ar
   152   116   117   ar
   153   116   115    1
   154   107   104   ar
   155   105   103   ar
   156   104   102   ar
   157   114   113    2
   158   115   112    1
   159   113   112    1
   160   177   174    1
   161   103   102   ar
   162   174   173    1
   163   174   175    1
   164   112   111    1
   165   102   101    1
   166    97    98    1
   167   175   176    2
   168   101    98    1
   169    98    99    1
   170    99   100    2
