@<TRIPOS>MOLECULE
tmp/6esyB06.pdb
 143 141 0 0 0
SMALL
GASTEIGER

@<TRIPOS>ATOM
      1  N         14.9270  -17.7450  -80.1090 N.3    67  ASP67      -0.1239
      2  CA        13.6740  -17.3780  -79.4570 C.3    67  ASP67       0.1674
      3  C         12.5650  -17.2750  -80.4960 C.2    67  ASP67       0.2266
      4  O         12.5210  -16.3200  -81.2780 O.2    67  ASP67      -0.2867
      5  CB        13.8520  -16.0570  -78.7130 C.3    67  ASP67       0.1410
      6  CG        12.6030  -15.6260  -77.9660 C.2    67  ASP67       0.3668
      7  OD1       12.5520  -14.4560  -77.5320 O.co2  67  ASP67      -0.2456
      8  OD2       11.6760  -16.4480  -77.8060 O.co2  67  ASP67      -0.2456
      9  N          9.1840  -17.8900  -79.3720 N.3    69  SER69      -0.1217
     10  CA         7.9670  -17.9390  -78.5690 C.3    69  SER69       0.1889
     11  C          6.8830  -17.0480  -79.1590 C.2    69  SER69       0.2288
     12  O          5.6930  -17.3770  -79.0900 O.2    69  SER69      -0.2866
     13  CB         8.2720  -17.5240  -77.1300 C.3    69  SER69       0.2089
     14  OG         9.4820  -18.1030  -76.6740 O.3    69  SER69      -0.2183
     15  N         16.4300   -9.9330  -80.7080 N.3    79  TRP79      -0.1241
     16  CA        17.5680  -10.5360  -80.0310 C.3    79  TRP79       0.1605
     17  C         18.0790  -11.7850  -80.7320 C.2    79  TRP79       0.2264
     18  O         19.1490  -12.2870  -80.3700 O.2    79  TRP79      -0.2867
     19  CB        17.2000  -10.8710  -78.5820 C.3    79  TRP79       0.0550
     20  CG        16.6520   -9.6940  -77.8500 C.ar   79  TRP79       0.0003
     21  CD1       15.3460   -9.4600  -77.5330 C.ar   79  TRP79       0.0946
     22  CD2       17.3920   -8.5740  -77.3560 C.ar   79  TRP79       0.0152
     23  NE1       15.2280   -8.2660  -76.8650 N.ar   79  TRP79      -0.2442
     24  CE2       16.4710   -7.7010  -76.7440 C.ar   79  TRP79       0.0810
     25  CE3       18.7460   -8.2250  -77.3690 C.ar   79  TRP79       0.0012
     26  CZ2       16.8600   -6.5030  -76.1490 C.ar   79  TRP79       0.0191
     27  CZ3       19.1300   -7.0340  -76.7780 C.ar   79  TRP79       0.0001
     28  CH2       18.1910   -6.1880  -76.1760 C.ar   79  TRP79       0.0015
     29  N         25.3690  -10.3010  -74.0300 N.3   112  GLY112     -0.1210
     30  CA        24.6930  -11.2390  -73.1640 C.3   112  GLY112      0.1956
     31  C         23.7940  -12.1840  -73.9410 C.2   112  GLY112      0.2612
     32  O         23.8550  -12.2920  -75.1670 O.2   112  GLY112     -0.2717
     33  N         22.9330  -12.8720  -73.1990 N.am  113  GLY113     -0.1956
     34  CA        22.0840  -13.8930  -73.7770 C.3   113  GLY113      0.1869
     35  C         22.0800  -15.1500  -72.9330 C.2   113  GLY113      0.2309
     36  O         21.9040  -16.2580  -73.4480 O.2   113  GLY113     -0.2863
     37  N         22.7030  -17.6970  -75.8810 N.3   117  THR117     -0.1218
     38  CA        22.4570  -17.0720  -77.1720 C.3   117  THR117      0.1862
     39  C         23.3180  -15.8220  -77.2820 C.2   117  THR117      0.2287
     40  O         24.1580  -15.5380  -76.4220 O.2   117  THR117     -0.2866
     41  CB        20.9820  -16.6950  -77.3400 C.3   117  THR117      0.1770
     42  OG1       20.6760  -15.6430  -76.4190 O.3   117  THR117     -0.2211
     43  CG2       20.0710  -17.8950  -77.1030 C.3   117  THR117      0.0375
     44  N         26.6890   -6.6880  -71.0430 N.3   194  GLU194     -0.1245
     45  CA        25.3690   -6.6590  -70.4430 C.3   194  GLU194      0.1567
     46  C         24.9260   -8.0870  -70.1690 C.2   194  GLU194      0.2260
     47  O         25.2790   -9.0110  -70.9060 O.2   194  GLU194     -0.2867
     48  CB        24.3720   -5.9360  -71.3530 C.3   194  GLU194      0.0388
     49  CG        23.0480   -5.6290  -70.7060 C.3   194  GLU194      0.1160
     50  CD        22.0260   -6.7010  -70.9870 C.2   194  GLU194      0.3649
     51  OE1       20.9140   -6.6220  -70.4280 O.co2 194  GLU194     -0.2457
     52  OE2       22.3400   -7.6230  -71.7690 O.co2 194  GLU194     -0.2457
     53  N         12.7810  -19.8850  -65.9880 N.3   282  PRO282     -0.2102
     54  CA        13.0640  -19.0020  -67.1320 C.3   282  PRO282      0.1504
     55  C         14.4940  -18.4830  -67.1460 C.2   282  PRO282      0.2575
     56  O         15.1370  -18.4820  -68.2010 O.2   282  PRO282     -0.2718
     57  CB        12.0360  -17.8790  -66.9580 C.3   282  PRO282      0.0282
     58  CG        10.8750  -18.5630  -66.3230 C.3   282  PRO282      0.0208
     59  CD        11.4650  -19.5900  -65.3870 C.3   282  PRO282      0.0893
     60  N         15.0300  -18.0890  -65.9950 N.am  283  LEU283     -0.1980
     61  CA        16.3950  -17.5840  -65.9150 C.3   283  LEU283      0.1596
     62  C         17.4470  -18.6890  -65.8760 C.2   283  LEU283      0.2287
     63  O         18.6140  -18.3930  -65.5980 O.2   283  LEU283     -0.2864
     64  CB        16.5510  -16.6890  -64.6820 C.3   283  LEU283      0.0297
     65  CG        15.6530  -15.4530  -64.6210 C.3   283  LEU283      0.0022
     66  CD1       14.7930  -15.4870  -63.3730 C.3   283  LEU283      0.0001
     67  CD2       16.4850  -14.1860  -64.6560 C.3   283  LEU283      0.0001
     68  N         10.9710   -9.0410  -67.9020 N.3   325  ALA325     -0.1231
     69  CA        11.1810   -9.7130  -69.1800 C.3   325  ALA325      0.1694
     70  C         11.0550  -11.2260  -69.0840 C.2   325  ALA325      0.2592
     71  O         10.9620  -11.8890  -70.1210 O.2   325  ALA325     -0.2718
     72  CB        12.5580   -9.3700  -69.7460 C.3   325  ALA325      0.0304
     73  N         11.0690  -11.7890  -67.8760 N.am  326  PHE326     -0.1976
     74  CA        11.0500  -13.2360  -67.7130 C.3   326  PHE326      0.1639
     75  C          9.6890  -13.7870  -67.3060 C.2   326  PHE326      0.2290
     76  O          9.4570  -14.9900  -67.4650 O.2   326  PHE326     -0.2864
     77  CB        12.0990  -13.6630  -66.6780 C.3   326  PHE326      0.0560
     78  CG        13.4710  -13.1160  -66.9510 C.ar  326  PHE326     -0.0200
     79  CD1       14.3420  -13.7870  -67.7890 C.ar  326  PHE326     -0.0042
     80  CD2       13.8870  -11.9260  -66.3780 C.ar  326  PHE326     -0.0042
     81  CE1       15.6020  -13.2890  -68.0520 C.ar  326  PHE326     -0.0003
     82  CE2       15.1490  -11.4220  -66.6370 C.ar  326  PHE326     -0.0003
     83  CZ        16.0060  -12.1050  -67.4750 C.ar  326  PHE326     -0.0000
     84  N          7.6330  -15.7830  -69.8940 N.3   329  TYR329     -0.1241
     85  CA         8.0930  -17.1050  -70.3300 C.3   329  TYR329      0.1605
     86  C          7.8080  -18.1800  -69.2850 C.2   329  TYR329      0.2264
     87  O          8.6980  -18.9400  -68.9040 O.2   329  TYR329     -0.2867
     88  CB         9.5830  -17.0640  -70.6660 C.3   329  TYR329      0.0534
     89  CG         9.9320  -16.2310  -71.8850 C.ar  329  TYR329     -0.0201
     90  CD1       10.3230  -14.9060  -71.7590 C.ar  329  TYR329     -0.0009
     91  CD2        9.8740  -16.7730  -73.1620 C.ar  329  TYR329     -0.0009
     92  CE1       10.6380  -14.1390  -72.8680 C.ar  329  TYR329      0.0417
     93  CE2       10.1910  -16.0120  -74.2800 C.ar  329  TYR329      0.0417
     94  CZ        10.5720  -14.6950  -74.1230 C.ar  329  TYR329      0.1957
     95  OH        10.8890  -13.9240  -75.2190 O.3   329  TYR329     -0.2866
     96  N          7.3460   -4.1440  -76.1750 N.3   427  TRP427     -0.1241
     97  CA         6.6400   -4.8510  -75.1220 C.3   427  TRP427      0.1605
     98  C          5.6180   -3.9320  -74.4580 C.2   427  TRP427      0.2264
     99  O          5.7300   -2.7050  -74.5360 O.2   427  TRP427     -0.2867
    100  CB         7.6310   -5.3760  -74.0890 C.3   427  TRP427      0.0550
    101  CG         8.6540   -6.3250  -74.6420 C.ar  427  TRP427      0.0003
    102  CD1        9.8850   -6.0030  -75.1370 C.ar  427  TRP427      0.0946
    103  CD2        8.5440   -7.7520  -74.7400 C.ar  427  TRP427      0.0152
    104  NE1       10.5460   -7.1390  -75.5390 N.ar  427  TRP427     -0.2442
    105  CE2        9.7440   -8.2250  -75.3080 C.ar  427  TRP427      0.0810
    106  CE3        7.5450   -8.6740  -74.4080 C.ar  427  TRP427      0.0012
    107  CZ2        9.9730   -9.5780  -75.5490 C.ar  427  TRP427      0.0191
    108  CZ3        7.7760  -10.0190  -74.6480 C.ar  427  TRP427      0.0001
    109  CH2        8.9800  -10.4570  -75.2130 C.ar  427  TRP427      0.0015
    110  N         12.6540   -2.4910  -69.1720 N.3   434  MET434     -0.1230
    111  CA        12.9620   -3.9080  -69.2100 C.3   434  MET434      0.1702
    112  C         14.4610   -4.1690  -69.2430 C.2   434  MET434      0.2592
    113  O         15.2700   -3.3040  -69.5880 O.2   434  MET434     -0.2718
    114  CB        12.3090   -4.5640  -70.4200 C.3   434  MET434      0.0401
    115  CG        10.8530   -4.8790  -70.2300 C.3   434  MET434      0.0596
    116  SD        10.2140   -5.5090  -71.7790 S.3   434  MET434     -0.1393
    117  CE        11.4110   -6.7940  -72.1280 C.3   434  MET434      0.0692
    118  N         14.8110   -5.3940  -68.8620 N.am  435  HIS435     -0.1962
    119  CA        16.1620   -5.9140  -69.0120 C.3   435  HIS435      0.1787
    120  C         16.6590   -5.7170  -70.4380 C.2   435  HIS435      0.2621
    121  O         15.9770   -6.0750  -71.4020 O.2   435  HIS435     -0.2715
    122  CB        16.1570   -7.4000  -68.6420 C.3   435  HIS435      0.0785
    123  CG        17.5070   -8.0440  -68.6390 C.ar  435  HIS435      0.0821
    124  ND1       18.4720   -7.7520  -67.6990 N.ar  435  HIS435     -0.2267
    125  CD2       18.0420   -8.9900  -69.4460 C.ar  435  HIS435      0.1154
    126  CE1       19.5490   -8.4800  -67.9370 C.ar  435  HIS435      0.1986
    127  NE2       19.3140   -9.2400  -68.9910 N.ar  435  HIS435     -0.2212
    128  N         17.8430   -5.1190  -70.5680 N.am  436  GLY436     -0.1940
    129  CA        18.5220   -5.0220  -71.8420 C.3   436  GLY436      0.2014
    130  C         18.1590   -3.8330  -72.7080 C.2   436  GLY436      0.2638
    131  O         18.7960   -3.6360  -73.7510 O.2   436  GLY436     -0.2714
    132  N         17.1680   -3.0270  -72.3230 N.am  437  TYR437     -0.1973
    133  CA        16.7150   -1.9260  -73.1660 C.3   437  TYR437      0.1639
    134  C         17.3040   -0.5860  -72.7400 C.2   437  TYR437      0.2290
    135  O         16.7010    0.4690  -72.9630 O.2   437  TYR437     -0.2864
    136  CB        15.1890   -1.8860  -73.2070 C.3   437  TYR437      0.0560
    137  CG        14.6470   -2.9840  -74.0870 C.ar  437  TYR437     -0.0198
    138  CD1       14.1090   -4.1390  -73.5370 C.ar  437  TYR437     -0.0009
    139  CD2       14.7140   -2.8860  -75.4690 C.ar  437  TYR437     -0.0009
    140  CE1       13.6300   -5.1500  -74.3400 C.ar  437  TYR437      0.0417
    141  CE2       14.2410   -3.8940  -76.2780 C.ar  437  TYR437      0.0417
    142  CZ        13.7020   -5.0230  -75.7080 C.ar  437  TYR437      0.1957
    143  OH        13.2280   -6.0310  -76.5100 O.3   437  TYR437     -0.2866
@<TRIPOS>BOND
     1     4     3    2
     2    17    18    2
     3    17    16    1
     4    15    16    1
     5     3     2    1
     6     1     2    1
     7    16    19    1
     8     2     5    1
     9     9    10    1
    10    11    12    2
    11    11    10    1
    12     5     6    1
    13    19    20    1
    14    10    13    1
    15     6     8   ar
    16     6     7   ar
    17    20    21   ar
    18    20    22   ar
    19    21    23   ar
    20    25    22   ar
    21    25    27   ar
    22    22    24   ar
    23    41    38    1
    24    41    43    1
    25    41    42    1
    26    39    38    1
    27    39    40    2
    28    38    37    1
    29    13    14    1
    30    23    24   ar
    31    27    28   ar
    32    24    26   ar
    33   143   142    1
    34   141   142   ar
    35   141   139   ar
    36    28    26   ar
    37    96    97    1
    38   142   140   ar
    39   107   105   ar
    40   107   109   ar
    41   104   105   ar
    42   104   102   ar
    43   139   137   ar
    44   105   103   ar
    45    95    94    1
    46   109   108   ar
    47    32    31    2
    48   102   101   ar
    49    97    98    1
    50    97   100    1
    51   103   101   ar
    52   103   106   ar
    53   108   106   ar
    54   101   100    1
    55    99    98    2
    56   140   138   ar
    57    93    94   ar
    58    93    91   ar
    59    94    92   ar
    60   137   138   ar
    61   137   136    1
    62    29    30    1
    63    31    33   am
    64    31    30    1
    65    34    33    1
    66    34    35    1
    67   131   130    2
    68    36    35    2
    69   136   133    1
    70   133   134    1
    71   133   132    1
    72    91    89   ar
    73   135   134    2
    74    92    90   ar
    75   130   132   am
    76   130   129    1
    77   117   116    1
    78    89    90   ar
    79    89    88    1
    80   129   128    1
    81   116   115    1
    82    52    50   ar
    83   121   120    2
    84    48    49    1
    85    48    45    1
    86    44    45    1
    87    50    49    1
    88    50    51   ar
    89    47    46    2
    90    88    85    1
    91   128   120   am
    92    45    46    1
    93   120   119    1
    94   114   115    1
    95   114   111    1
    96    85    84    1
    97    85    86    1
    98    71    70    2
    99    72    69    1
   100   113   112    2
   101   125   127   ar
   102   125   123   ar
   103    86    87    2
   104   112   111    1
   105   112   118   am
   106   111   110    1
   107    69    70    1
   108    69    68    1
   109    70    73   am
   110   119   118    1
   111   119   122    1
   112   127   126   ar
   113   122   123    1
   114   123   124   ar
   115    56    55    2
   116    81    79   ar
   117    81    83   ar
   118   126   124   ar
   119    73    74    1
   120    79    78   ar
   121    74    75    1
   122    74    77    1
   123    83    82   ar
   124    76    75    2
   125    55    54    1
   126    55    60   am
   127    54    57    1
   128    54    53    1
   129    57    58    1
   130    78    77    1
   131    78    80   ar
   132    82    80   ar
   133    58    59    1
   134    60    61    1
   135    53    59    1
   136    61    62    1
   137    61    64    1
   138    62    63    2
   139    64    65    1
   140    67    65    1
   141    65    66    1
