@<TRIPOS>MOLECULE
tmp/6esyB05.pdb
 160 157 0 0 0
SMALL
GASTEIGER

@<TRIPOS>ATOM
      1  N         20.2380  -21.8410  -79.8350 N.3    65  ASN65      -0.1225
      2  CA        18.7960  -21.9010  -80.0020 C.3    65  ASN65       0.1785
      3  C         18.2440  -20.4930  -80.2060 C.2    65  ASN65       0.2597
      4  O         18.8700  -19.4930  -79.8430 O.2    65  ASN65      -0.2718
      5  CB        18.1410  -22.5740  -78.7960 C.3    65  ASN65       0.1169
      6  CG        18.3440  -24.0780  -78.7880 C.2    65  ASN65       0.2627
      7  OD1       17.8540  -24.7870  -79.6680 O.2    65  ASN65      -0.2716
      8  ND2       19.0710  -24.5720  -77.7920 N.am   65  ASN65      -0.0877
      9  N         17.0580  -20.4190  -80.8040 N.am   66  ILE66      -0.1966
     10  CA        16.5030  -19.1590  -81.2840 C.3    66  ILE66       0.1727
     11  C         15.1320  -18.9400  -80.6600 C.2    66  ILE66       0.2616
     12  O         14.2780  -19.8350  -80.6860 O.2    66  ILE66      -0.2715
     13  CB        16.4260  -19.1340  -82.8200 C.3    66  ILE66       0.0290
     14  CG1       17.8340  -19.2230  -83.4120 C.3    66  ILE66       0.0022
     15  CG2       15.7270  -17.8770  -83.3010 C.3    66  ILE66       0.0023
     16  CD1       17.8690  -19.1970  -84.9190 C.3    66  ILE66       0.0001
     17  N         14.9270  -17.7450  -80.1090 N.am   67  ASP67      -0.1971
     18  CA        13.6740  -17.3780  -79.4570 C.3    67  ASP67       0.1709
     19  C         12.5650  -17.2750  -80.4960 C.2    67  ASP67       0.2293
     20  O         12.5210  -16.3200  -81.2780 O.2    67  ASP67      -0.2864
     21  CB        13.8520  -16.0570  -78.7130 C.3    67  ASP67       0.1436
     22  CG        12.6030  -15.6260  -77.9660 C.2    67  ASP67       0.3671
     23  OD1       12.5520  -14.4560  -77.5320 O.co2  67  ASP67      -0.2456
     24  OD2       11.6760  -16.4480  -77.8060 O.co2  67  ASP67      -0.2456
     25  N         16.4300   -9.9330  -80.7080 N.3    79  TRP79      -0.1241
     26  CA        17.5680  -10.5360  -80.0310 C.3    79  TRP79       0.1605
     27  C         18.0790  -11.7850  -80.7320 C.2    79  TRP79       0.2264
     28  O         19.1490  -12.2870  -80.3700 O.2    79  TRP79      -0.2867
     29  CB        17.2000  -10.8710  -78.5820 C.3    79  TRP79       0.0550
     30  CG        16.6520   -9.6940  -77.8500 C.ar   79  TRP79       0.0003
     31  CD1       15.3460   -9.4600  -77.5330 C.ar   79  TRP79       0.0946
     32  CD2       17.3920   -8.5740  -77.3560 C.ar   79  TRP79       0.0152
     33  NE1       15.2280   -8.2660  -76.8650 N.ar   79  TRP79      -0.2442
     34  CE2       16.4710   -7.7010  -76.7440 C.ar   79  TRP79       0.0810
     35  CE3       18.7460   -8.2250  -77.3690 C.ar   79  TRP79       0.0012
     36  CZ2       16.8600   -6.5030  -76.1490 C.ar   79  TRP79       0.0191
     37  CZ3       19.1300   -7.0340  -76.7780 C.ar   79  TRP79       0.0001
     38  CH2       18.1910   -6.1880  -76.1760 C.ar   79  TRP79       0.0015
     39  N         22.9330  -12.8720  -73.1990 N.3   113  GLY113     -0.1210
     40  CA        22.0840  -13.8930  -73.7770 C.3   113  GLY113      0.1956
     41  C         22.0800  -15.1500  -72.9330 C.2   113  GLY113      0.2612
     42  O         21.9040  -16.2580  -73.4480 O.2   113  GLY113     -0.2717
     43  N         22.2900  -14.9780  -71.6280 N.am  114  GLY114     -0.1956
     44  CA        22.2520  -16.0800  -70.6850 C.3   114  GLY114      0.1869
     45  C         23.2950  -17.1440  -70.9070 C.2   114  GLY114      0.2309
     46  O         23.1030  -18.2820  -70.4700 O.2   114  GLY114     -0.2863
     47  N         23.6190  -18.6400  -73.4080 N.3   116  GLN116     -0.1231
     48  CA        22.9490  -19.5560  -74.3170 C.3   116  GLN116      0.1698
     49  C         22.8230  -19.0130  -75.7290 C.2   116  GLN116      0.2592
     50  O         22.8090  -19.7960  -76.6810 O.2   116  GLN116     -0.2718
     51  CB        21.5390  -19.8790  -73.8040 C.3   116  GLN116      0.0381
     52  CG        21.4370  -20.4380  -72.3850 C.3   116  GLN116      0.0905
     53  CD        22.6300  -21.2810  -71.9690 C.2   116  GLN116      0.2608
     54  OE1       23.6180  -20.7700  -71.4480 O.2   116  GLN116     -0.2717
     55  NE2       22.5360  -22.5850  -72.1920 N.am  116  GLN116     -0.0878
     56  N         22.7030  -17.6970  -75.8810 N.am  117  THR117     -0.1953
     57  CA        22.4570  -17.0720  -77.1720 C.3   117  THR117      0.1897
     58  C         23.3180  -15.8220  -77.2820 C.2   117  THR117      0.2313
     59  O         24.1580  -15.5380  -76.4220 O.2   117  THR117     -0.2863
     60  CB        20.9820  -16.6950  -77.3400 C.3   117  THR117      0.1794
     61  OG1       20.6760  -15.6430  -76.4190 O.3   117  THR117     -0.2208
     62  CG2       20.0710  -17.8950  -77.1030 C.3   117  THR117      0.0378
     63  N         24.1640   -8.2570  -69.0880 N.3   195  SER195     -0.1202
     64  CA        23.6260   -9.5580  -68.7100 C.3   195  SER195      0.2020
     65  C         24.7490  -10.5800  -68.5690 C.2   195  SER195      0.2618
     66  O         25.6430  -10.4070  -67.7340 O.2   195  SER195     -0.2717
     67  CB        22.5850  -10.0120  -69.7350 C.3   195  SER195      0.2103
     68  OG        21.6960  -10.9590  -69.1780 O.3   195  SER195     -0.2182
     69  N         24.7260  -11.6420  -69.3830 N.am  196  ALA196     -0.1979
     70  CA        25.8220  -12.6060  -69.3590 C.3   196  ALA196      0.1597
     71  C         27.1420  -11.9540  -69.7490 C.2   196  ALA196      0.2287
     72  O         28.2080  -12.3950  -69.3030 O.2   196  ALA196     -0.2864
     73  CB        25.5140  -13.7870  -70.2810 C.3   196  ALA196      0.0319
     74  N         22.4260  -16.9450  -61.2240 N.3   228  TRP228     -0.1241
     75  CA        22.4280  -17.6720  -62.4870 C.3   228  TRP228      0.1605
     76  C         23.7890  -17.6990  -63.1720 C.2   228  TRP228      0.2264
     77  O         23.9250  -18.3470  -64.2150 O.2   228  TRP228     -0.2867
     78  CB        21.4040  -17.0480  -63.4410 C.3   228  TRP228      0.0550
     79  CG        21.5050  -15.5480  -63.5060 C.ar  228  TRP228      0.0003
     80  CD1       20.7700  -14.6460  -62.7920 C.ar  228  TRP228      0.0946
     81  CD2       22.4020  -14.7780  -64.3190 C.ar  228  TRP228      0.0152
     82  NE1       21.1490  -13.3650  -63.1120 N.ar  228  TRP228     -0.2442
     83  CE2       22.1490  -13.4180  -64.0470 C.ar  228  TRP228      0.0810
     84  CE3       23.3910  -15.1060  -65.2510 C.ar  228  TRP228      0.0012
     85  CZ2       22.8490  -12.3880  -64.6740 C.ar  228  TRP228      0.0191
     86  CZ3       24.0860  -14.0810  -65.8710 C.ar  228  TRP228      0.0001
     87  CH2       23.8110  -12.7390  -65.5800 C.ar  228  TRP228      0.0015
     88  N         17.8490  -28.0760  -73.2880 N.3   274  ALA274     -0.1245
     89  CA        16.7380  -27.6600  -72.4360 C.3   274  ALA274      0.1562
     90  C         16.4120  -28.6950  -71.3670 C.2   274  ALA274      0.2260
     91  O         15.8740  -28.3430  -70.3110 O.2   274  ALA274     -0.2867
     92  CB        15.5020  -27.3850  -73.2930 C.3   274  ALA274      0.0290
     93  N         12.7810  -19.8850  -65.9880 N.3   282  PRO282     -0.2102
     94  CA        13.0640  -19.0020  -67.1320 C.3   282  PRO282      0.1504
     95  C         14.4940  -18.4830  -67.1460 C.2   282  PRO282      0.2576
     96  O         15.1370  -18.4820  -68.2010 O.2   282  PRO282     -0.2718
     97  CB        12.0360  -17.8790  -66.9580 C.3   282  PRO282      0.0282
     98  CG        10.8750  -18.5630  -66.3230 C.3   282  PRO282      0.0208
     99  CD        11.4650  -19.5900  -65.3870 C.3   282  PRO282      0.0893
    100  N         15.0300  -18.0890  -65.9950 N.am  283  LEU283     -0.1966
    101  CA        16.3950  -17.5840  -65.9150 C.3   283  LEU283      0.1728
    102  C         17.4470  -18.6890  -65.8760 C.2   283  LEU283      0.2617
    103  O         18.6140  -18.3930  -65.5980 O.2   283  LEU283     -0.2715
    104  CB        16.5510  -16.6890  -64.6820 C.3   283  LEU283      0.0311
    105  CG        15.6530  -15.4530  -64.6210 C.3   283  LEU283      0.0022
    106  CD1       14.7930  -15.4870  -63.3730 C.3   283  LEU283      0.0001
    107  CD2       16.4850  -14.1860  -64.6560 C.3   283  LEU283      0.0001
    108  N         17.0770  -19.9380  -66.1530 N.am  284  SER284     -0.1936
    109  CA        18.0130  -21.0450  -65.9940 C.3   284  SER284      0.2055
    110  C         19.0960  -21.0050  -67.0660 C.2   284  SER284      0.2643
    111  O         18.8030  -20.9160  -68.2630 O.2   284  SER284     -0.2714
    112  CB        17.2740  -22.3810  -66.0460 C.3   284  SER284      0.2130
    113  OG        16.9050  -22.8070  -64.7450 O.3   284  SER284     -0.2179
    114  N         20.3480  -21.0750  -66.6270 N.am  285  VAL285     -0.1963
    115  CA        21.5040  -21.1500  -67.5130 C.3   285  VAL285      0.1727
    116  C         21.9510  -22.6080  -67.5180 C.2   285  VAL285      0.2616
    117  O         22.5830  -23.0800  -66.5690 O.2   285  VAL285     -0.2715
    118  CB        22.6270  -20.2120  -67.0620 C.3   285  VAL285      0.0290
    119  CG1       23.8480  -20.3740  -67.9550 C.3   285  VAL285      0.0023
    120  CG2       22.1440  -18.7680  -67.0630 C.3   285  VAL285      0.0023
    121  N         21.6180  -23.3270  -68.5930 N.am  286  ASN286     -0.1972
    122  CA        21.8880  -24.7620  -68.6420 C.3   286  ASN286      0.1688
    123  C         23.3860  -25.0460  -68.6170 C.2   286  ASN286      0.2292
    124  O         23.8570  -25.8890  -67.8460 O.2   286  ASN286     -0.2864
    125  CB        21.2390  -25.3730  -69.8840 C.3   286  ASN286      0.1181
    126  CG        19.7570  -25.0690  -69.9730 C.2   286  ASN286      0.2629
    127  OD1       18.9740  -25.4760  -69.1140 O.2   286  ASN286     -0.2716
    128  ND2       19.3630  -24.3490  -71.0180 N.am  286  ASN286     -0.0877
    129  N         11.0690  -11.7890  -67.8760 N.3   326  PHE326     -0.1241
    130  CA        11.0500  -13.2360  -67.7130 C.3   326  PHE326      0.1605
    131  C          9.6890  -13.7870  -67.3060 C.2   326  PHE326      0.2264
    132  O          9.4570  -14.9900  -67.4650 O.2   326  PHE326     -0.2867
    133  CB        12.0990  -13.6630  -66.6780 C.3   326  PHE326      0.0534
    134  CG        13.4710  -13.1160  -66.9510 C.ar  326  PHE326     -0.0203
    135  CD1       14.3420  -13.7870  -67.7890 C.ar  326  PHE326     -0.0042
    136  CD2       13.8870  -11.9260  -66.3780 C.ar  326  PHE326     -0.0042
    137  CE1       15.6020  -13.2890  -68.0520 C.ar  326  PHE326     -0.0003
    138  CE2       15.1490  -11.4220  -66.6370 C.ar  326  PHE326     -0.0003
    139  CZ        16.0060  -12.1050  -67.4750 C.ar  326  PHE326     -0.0000
    140  N         19.3220   -9.8130  -60.3090 N.3   395  PHE395     -0.1241
    141  CA        20.1410   -8.7760  -60.9260 C.3   395  PHE395      0.1605
    142  C         20.5230   -7.6620  -59.9580 C.2   395  PHE395      0.2264
    143  O         21.7110   -7.4200  -59.7230 O.2   395  PHE395     -0.2867
    144  CB        19.4110   -8.1800  -62.1320 C.3   395  PHE395      0.0534
    145  CG        19.1160   -9.1770  -63.2130 C.ar  395  PHE395     -0.0203
    146  CD1       20.0910   -9.5310  -64.1310 C.ar  395  PHE395     -0.0042
    147  CD2       17.8650   -9.7640  -63.3100 C.ar  395  PHE395     -0.0042
    148  CE1       19.8230  -10.4520  -65.1270 C.ar  395  PHE395     -0.0003
    149  CE2       17.5920  -10.6860  -64.3030 C.ar  395  PHE395     -0.0003
    150  CZ        18.5720  -11.0300  -65.2130 C.ar  395  PHE395     -0.0000
    151  N         14.8110   -5.3940  -68.8620 N.3   435  HIS435     -0.1241
    152  CA        16.1620   -5.9140  -69.0120 C.3   435  HIS435      0.1621
    153  C         16.6590   -5.7170  -70.4380 C.2   435  HIS435      0.2264
    154  O         15.9770   -6.0750  -71.4020 O.2   435  HIS435     -0.2867
    155  CB        16.1570   -7.4000  -68.6420 C.3   435  HIS435      0.0745
    156  CG        17.5070   -8.0440  -68.6390 C.ar  435  HIS435      0.0817
    157  ND1       18.4720   -7.7520  -67.6990 N.ar  435  HIS435     -0.2268
    158  CD2       18.0420   -8.9900  -69.4460 C.ar  435  HIS435      0.1154
    159  CE1       19.5490   -8.4800  -67.9370 C.ar  435  HIS435      0.1986
    160  NE2       19.3140   -9.2400  -68.9910 N.ar  435  HIS435     -0.2212
@<TRIPOS>BOND
     1    16    14    1
     2    14    13    1
     3    15    13    1
     4    13    10    1
     5    10     9    1
     6    10    11    1
     7    20    19    2
     8     9     3   am
     9    27    28    2
    10    27    26    1
    11    25    26    1
    12    12    11    2
    13    11    17   am
    14    19    18    1
    15     3     2    1
    16     3     4    2
    17    17    18    1
    18    26    29    1
    19     2     1    1
    20     2     5    1
    21     7     6    2
    22    18    21    1
    23     5     6    1
    24     6     8   am
    25    21    22    1
    26    29    30    1
    27    22    24   ar
    28    22    23   ar
    29    30    31   ar
    30    30    32   ar
    31    31    33   ar
    32    35    32   ar
    33    35    37   ar
    34    32    34   ar
    35    60    57    1
    36    60    62    1
    37    60    61    1
    38    58    57    1
    39    58    59    2
    40    57    56    1
    41    33    34   ar
    42    37    38   ar
    43    34    36   ar
    44    50    49    2
    45    38    36   ar
    46    56    49   am
    47    49    48    1
    48    48    51    1
    49    48    47    1
    50    51    52    1
    51    40    39    1
    52    40    41    1
    53    42    41    2
    54    92    89    1
    55    88    89    1
    56    41    43   am
    57    89    90    1
    58    52    53    1
    59    55    53   am
    60    53    54    2
    61    43    44    1
    62   154   153    2
    63    90    91    2
    64   128   126   am
    65    45    44    1
    66    45    46    2
    67   153   152    1
    68    73    70    1
    69   126   125    1
    70   126   127    2
    71   125   122    1
    72    71    70    1
    73    71    72    2
    74    67    68    1
    75    67    64    1
    76   158   160   ar
    77   158   156   ar
    78    69    70    1
    79    69    65   am
    80    63    64    1
    81   152   151    1
    82   152   155    1
    83   160   159   ar
    84    64    65    1
    85   155   156    1
    86   122   123    1
    87   122   121    1
    88   156   157   ar
    89   123   124    2
    90   121   116   am
    91    65    66    2
    92   111   110    2
    93    96    95    2
    94   137   135   ar
    95   137   139   ar
    96   119   118    1
    97   159   157   ar
    98   129   130    1
    99   135   134   ar
   100   130   131    1
   101   130   133    1
   102   116   115    1
   103   116   117    2
   104   115   118    1
   105   115   114    1
   106   139   138   ar
   107   132   131    2
   108    95    94    1
   109    95   100   am
   110    94    97    1
   111    94    93    1
   112   110   114   am
   113   110   109    1
   114   120   118    1
   115    97    98    1
   116   134   133    1
   117   134   136   ar
   118   138   136   ar
   119    98    99    1
   120   108   109    1
   121   108   102   am
   122   112   109    1
   123   112   113    1
   124   100   101    1
   125    93    99    1
   126   101   102    1
   127   101   104    1
   128   102   103    2
   129    86    87   ar
   130    86    84   ar
   131    87    85   ar
   132    84    81   ar
   133   150   148   ar
   134   150   149   ar
   135   148   146   ar
   136   104   105    1
   137    85    83   ar
   138   107   105    1
   139   105   106    1
   140    81    83   ar
   141    81    79   ar
   142   149   147   ar
   143    77    76    2
   144   146   145   ar
   145    83    82   ar
   146    79    78    1
   147    79    80   ar
   148    78    75    1
   149   147   145   ar
   150   145   144    1
   151    76    75    1
   152    82    80   ar
   153    75    74    1
   154   144   141    1
   155   141   140    1
   156   141   142    1
   157   142   143    2
