@<TRIPOS>MOLECULE
tmp/6eszC02.pdb
 108 107 0 0 0
SMALL
GASTEIGER

@<TRIPOS>ATOM
      1  N         29.4740    7.3950  -14.1100 N.3    22  ARG22      -0.1245
      2  CA        30.3040    8.4250  -14.7100 C.3    22  ARG22       0.1563
      3  C         29.8790    9.8130  -14.2510 C.2    22  ARG22       0.2260
      4  O         28.6950   10.0660  -13.9940 O.2    22  ARG22      -0.2867
      5  CB        30.2490    8.3590  -16.2410 C.3    22  ARG22       0.0307
      6  CG        31.0270    7.2140  -16.8470 C.3    22  ARG22       0.0489
      7  CD        30.8570    7.1710  -18.3650 C.3    22  ARG22       0.2205
      8  NE        31.3180    8.3980  -19.0120 N.pl3  22  ARG22      -0.0865
      9  CZ        31.0990    8.6970  -20.2920 C.cat  22  ARG22       0.5346
     10  NH1       30.4200    7.8610  -21.0670 N.pl3  22  ARG22       0.1354
     11  NH2       31.5570    9.8350  -20.7980 N.pl3  22  ARG22       0.1354
     12  N         30.4950   14.0240  -15.3130 N.3    24  TYR24      -0.1241
     13  CA        30.8370   14.9100  -16.4220 C.3    24  TYR24       0.1605
     14  C         31.3000   16.2340  -15.8300 C.2    24  TYR24       0.2264
     15  O         30.5760   16.8580  -15.0430 O.2    24  TYR24      -0.2867
     16  CB        29.6430   15.0930  -17.3680 C.3    24  TYR24       0.0534
     17  CG        29.2460   13.7860  -17.9950 C.ar   24  TYR24      -0.0201
     18  CD1       29.5110   13.5260  -19.3220 C.ar   24  TYR24      -0.0009
     19  CD2       28.6450   12.7820  -17.2370 C.ar   24  TYR24      -0.0009
     20  CE1       29.1760   12.3240  -19.8970 C.ar   24  TYR24       0.0417
     21  CE2       28.3210   11.5740  -17.7950 C.ar   24  TYR24       0.0417
     22  CZ        28.5920   11.3440  -19.1270 C.ar   24  TYR24       0.1957
     23  OH        28.2640   10.1350  -19.7030 O.3    24  TYR24      -0.2866
     24  N         30.1010   17.3920  -23.6790 N.3    30  VAL30      -0.1245
     25  CA        28.6480   17.4070  -23.7580 C.3    30  VAL30       0.1561
     26  C         28.1180   18.8320  -23.7630 C.2    30  VAL30       0.2260
     27  O         27.0000   19.0750  -24.2330 O.2    30  VAL30      -0.2867
     28  CB        28.0350   16.5910  -22.6020 C.3    30  VAL30       0.0252
     29  CG1       26.5290   16.7340  -22.5960 C.3    30  VAL30       0.0019
     30  CG2       28.4190   15.1240  -22.7260 C.3    30  VAL30       0.0019
     31  N         25.1130   11.5790  -15.4130 N.3    52  TYR52      -0.1227
     32  CA        24.0060   11.2140  -16.2820 C.3    52  TYR52       0.1736
     33  C         23.9990    9.7040  -16.4560 C.2    52  TYR52       0.2595
     34  O         25.0620    9.0960  -16.6610 O.2    52  TYR52      -0.2718
     35  CB        24.1250   11.8690  -17.6700 C.3    52  TYR52       0.0548
     36  CG        24.3290   13.3620  -17.6770 C.ar   52  TYR52      -0.0200
     37  CD1       23.5120   14.2130  -16.9380 C.ar   52  TYR52      -0.0009
     38  CD2       25.3290   13.9290  -18.4650 C.ar   52  TYR52      -0.0009
     39  CE1       23.6880   15.5820  -16.9750 C.ar   52  TYR52       0.0417
     40  CE2       25.5300   15.2940  -18.5030 C.ar   52  TYR52       0.0417
     41  CZ        24.7050   16.1230  -17.7600 C.ar   52  TYR52       0.1957
     42  OH        24.8990   17.4900  -17.7990 O.3    52  TYR52      -0.2866
     43  N         22.8140    9.0970  -16.3890 N.am   53  PHE53      -0.1962
     44  CA        22.6980    7.6680  -16.6520 C.3    53  PHE53       0.1771
     45  C         23.2820    7.3490  -18.0260 C.2    53  PHE53       0.2620
     46  O         23.1050    8.1090  -18.9880 O.2    53  PHE53      -0.2715
     47  CB        21.2430    7.2110  -16.6200 C.3    53  PHE53       0.0574
     48  CG        20.5750    7.3150  -15.2660 C.ar   53  PHE53      -0.0200
     49  CD1       21.2880    7.1490  -14.1010 C.ar   53  PHE53      -0.0042
     50  CD2       19.2140    7.5760  -15.1870 C.ar   53  PHE53      -0.0042
     51  CE1       20.6640    7.2570  -12.8620 C.ar   53  PHE53      -0.0003
     52  CE2       18.5830    7.6740  -13.9580 C.ar   53  PHE53      -0.0003
     53  CZ        19.2970    7.5080  -12.8050 C.ar   53  PHE53      -0.0000
     54  N         23.9900    6.2170  -18.1110 N.am   54  ASP54      -0.1958
     55  CA        24.5590    5.7030  -19.3510 C.3    54  ASP54       0.1825
     56  C         23.8660    4.4050  -19.7380 C.2    54  ASP54       0.2464
     57  O         24.2360    3.3280  -19.2580 O.2    54  ASP54      -0.2730
     58  CB        26.0700    5.4750  -19.1830 C.3    54  ASP54       0.1450
     59  CG        26.7350    5.0490  -20.4640 C.2    54  ASP54       0.3671
     60  OD1       26.0320    4.9220  -21.4970 O.co2  54  ASP54      -0.2456
     61  OD2       27.9780    4.8690  -20.4380 O.co2  54  ASP54      -0.2456
     62  N         22.8360    4.4460  -20.5870 N.am   55  PRO55      -0.2715
     63  CA        22.1590    3.1870  -20.9500 C.3    55  PRO55       0.1536
     64  C         23.0710    2.2060  -21.6720 C.2    55  PRO55       0.2598
     65  O         22.8340    0.9980  -21.5880 O.2    55  PRO55      -0.2715
     66  CB        20.9860    3.6450  -21.8310 C.3    55  PRO55       0.0310
     67  CG        21.3380    5.0330  -22.2740 C.3    55  PRO55       0.0237
     68  CD        22.1890    5.6280  -21.1860 C.3    55  PRO55       0.0939
     69  N         24.1290    2.6740  -22.3350 N.am   56  ARG56      -0.1978
     70  CA        25.1130    1.7500  -22.8850 C.3    56  ARG56       0.1597
     71  C         25.7520    0.9090  -21.7850 C.2    56  ARG56       0.2287
     72  O         26.1670   -0.2280  -22.0310 O.2    56  ARG56      -0.2864
     73  CB        26.1910    2.5050  -23.6610 C.3    56  ARG56       0.0334
     74  CG        25.6960    3.1810  -24.9250 C.3    56  ARG56       0.0492
     75  CD        26.8560    3.7860  -25.7230 C.3    56  ARG56       0.2205
     76  NE        27.3350    5.0470  -25.1570 N.pl3  56  ARG56      -0.0865
     77  CZ        28.3930    5.1680  -24.3550 C.cat  56  ARG56       0.5346
     78  NH1       29.1100    4.1050  -24.0090 N.pl3  56  ARG56       0.1354
     79  NH2       28.7380    6.3650  -23.8980 N.pl3  56  ARG56       0.1354
     80  N         15.6830   10.5600  -14.0710 N.3   163  TYR163     -0.1241
     81  CA        16.3460   10.4850  -15.3810 C.3   163  TYR163      0.1605
     82  C         16.1260   11.7900  -16.1320 C.2   163  TYR163      0.2264
     83  O         15.6470   11.8170  -17.2670 O.2   163  TYR163     -0.2867
     84  CB        15.7840    9.3000  -16.1660 C.3   163  TYR163      0.0534
     85  CG        16.6210    8.8000  -17.3290 C.ar  163  TYR163     -0.0201
     86  CD1       17.6730    9.5480  -17.8440 C.ar  163  TYR163     -0.0009
     87  CD2       16.3520    7.5710  -17.9080 C.ar  163  TYR163     -0.0009
     88  CE1       18.4350    9.0750  -18.9090 C.ar  163  TYR163      0.0417
     89  CE2       17.1090    7.0940  -18.9730 C.ar  163  TYR163      0.0417
     90  CZ        18.1310    7.8440  -19.4710 C.ar  163  TYR163      0.1957
     91  OH        18.8880    7.3730  -20.5400 O.3   163  TYR163     -0.2866
     92  N         18.1520   13.8230  -17.3780 N.3   165  SER165     -0.1217
     93  CA        19.0110   14.0630  -18.5240 C.3   165  SER165      0.1889
     94  C         18.3280   13.7220  -19.8440 C.2   165  SER165      0.2288
     95  O         18.7400   14.2560  -20.8810 O.2   165  SER165     -0.2866
     96  CB        20.3200   13.2730  -18.4200 C.3   165  SER165      0.2089
     97  OG        20.0760   11.8820  -18.3950 O.3   165  SER165     -0.2183
     98  N         20.8600   20.2470  -24.5990 N.3   170  PHE170     -0.1241
     99  CA        22.2720   20.5930  -24.4830 C.3   170  PHE170      0.1605
    100  C         22.7140   21.6350  -25.5040 C.2   170  PHE170      0.2264
    101  O         23.9180   21.8860  -25.6230 O.2   170  PHE170     -0.2867
    102  CB        23.1260   19.3290  -24.5890 C.3   170  PHE170      0.0534
    103  CG        23.0440   18.4600  -23.3580 C.ar  170  PHE170     -0.0203
    104  CD1       23.8510   18.7170  -22.2640 C.ar  170  PHE170     -0.0042
    105  CD2       22.1500   17.4050  -23.2890 C.ar  170  PHE170     -0.0042
    106  CE1       23.7720   17.9300  -21.1290 C.ar  170  PHE170     -0.0003
    107  CE2       22.0710   16.6160  -22.1600 C.ar  170  PHE170     -0.0003
    108  CZ        22.8880   16.8910  -21.0730 C.ar  170  PHE170     -0.0000
@<TRIPOS>BOND
     1    75    76    1
     2    75    74    1
     3   101   100    2
     4   100    99    1
     5    76    77    2
     6    74    73    1
     7    98    99    1
     8   102    99    1
     9   102   103    1
    10    77    78    1
    11    77    79    1
    12    27    26    2
    13    26    25    1
    14    25    24    1
    15    25    28    1
    16    73    70    1
    17   103   105   ar
    18   103   104   ar
    19   105   107   ar
    20    70    69    1
    21    70    71    1
    22    30    28    1
    23    28    29    1
    24    69    64   am
    25    67    66    1
    26    67    68    1
    27   104   106   ar
    28   107   108   ar
    29    72    71    2
    30    66    63    1
    31    64    65    2
    32    64    63    1
    33    60    59   ar
    34    68    62    1
    35   106   108   ar
    36    10     9    1
    37    63    62    1
    38    95    94    2
    39    11     9    1
    40    62    56   am
    41    91    90    1
    42    59    61   ar
    43    59    58    1
    44     9     8    2
    45    20    18   ar
    46    20    22   ar
    47    94    93    1
    48    56    55    1
    49    56    57    2
    50    23    22    1
    51    90    89   ar
    52    90    88   ar
    53    55    58    1
    54    55    54    1
    55    18    17   ar
    56    22    21   ar
    57     8     7    1
    58    46    45    2
    59    89    87   ar
    60    88    86   ar
    61    93    96    1
    62    93    92    1
    63    40    38   ar
    64    40    41   ar
    65    38    36   ar
    66    96    97    1
    67     7     6    1
    68    54    45   am
    69    45    44    1
    70    17    16    1
    71    17    19   ar
    72    87    85   ar
    73    86    85   ar
    74    42    41    1
    75    21    19   ar
    76    41    39   ar
    77    36    35    1
    78    36    37   ar
    79    35    32    1
    80    16    13    1
    81    85    84    1
    82    83    82    2
    83    39    37   ar
    84     6     5    1
    85    34    33    2
    86    44    47    1
    87    44    43    1
    88    47    48    1
    89    33    43   am
    90    33    32    1
    91    13    14    1
    92    13    12    1
    93    32    31    1
    94     5     2    1
    95    84    81    1
    96    82    81    1
    97    14    15    2
    98    81    80    1
    99    48    50   ar
   100    48    49   ar
   101    50    52   ar
   102     2     3    1
   103     2     1    1
   104     3     4    2
   105    49    51   ar
   106    52    53   ar
   107    51    53   ar
