@<TRIPOS>MOLECULE
tmp/6eszC01.pdb
 105 100 0 0 0
SMALL
GASTEIGER

@<TRIPOS>ATOM
      1  N         21.0920   20.2960  -13.9030 N.3   178  PHE178     -0.1241
      2  CA        20.2990   19.1320  -13.5290 C.3   178  PHE178      0.1605
      3  C         21.0600   17.8440  -13.8310 C.2   178  PHE178      0.2264
      4  O         21.8650   17.7690  -14.7740 O.2   178  PHE178     -0.2867
      5  CB        18.9610   19.1110  -14.2760 C.3   178  PHE178      0.0534
      6  CG        17.9860   20.1780  -13.8490 C.ar  178  PHE178     -0.0203
      7  CD1       18.0920   20.8090  -12.6190 C.ar  178  PHE178     -0.0042
      8  CD2       16.9270   20.5170  -14.6780 C.ar  178  PHE178     -0.0042
      9  CE1       17.1760   21.7740  -12.2290 C.ar  178  PHE178     -0.0003
     10  CE2       15.9960   21.4780  -14.2910 C.ar  178  PHE178     -0.0003
     11  CZ        16.1240   22.1060  -13.0650 C.ar  178  PHE178     -0.0000
     12  N          8.9050   27.2180  -15.4310 N.3   212  ALA212     -0.1245
     13  CA         9.7190   26.0060  -15.5180 C.3   212  ALA212      0.1562
     14  C          8.8190   24.8420  -15.9020 C.2   212  ALA212      0.2260
     15  O          7.9920   24.4040  -15.0950 O.2   212  ALA212     -0.2867
     16  CB        10.4290   25.7210  -14.1920 C.3   212  ALA212      0.0290
     17  N         13.0290   20.0930  -20.8700 N.3   232  PHE232     -0.1241
     18  CA        12.9620   21.0820  -19.8140 C.3   232  PHE232      0.1605
     19  C         13.1050   22.4700  -20.4310 C.2   232  PHE232      0.2264
     20  O         14.0160   22.7150  -21.2260 O.2   232  PHE232     -0.2867
     21  CB        14.0580   20.8580  -18.7790 C.3   232  PHE232      0.0534
     22  CG        14.1510   21.9600  -17.7770 C.ar  232  PHE232     -0.0203
     23  CD1       13.0850   22.2220  -16.9270 C.ar  232  PHE232     -0.0042
     24  CD2       15.2750   22.7360  -17.6880 C.ar  232  PHE232     -0.0042
     25  CE1       13.1760   23.2470  -15.9890 C.ar  232  PHE232     -0.0003
     26  CE2       15.3580   23.7640  -16.7660 C.ar  232  PHE232     -0.0003
     27  CZ        14.2990   24.0100  -15.9200 C.ar  232  PHE232     -0.0000
     28  N         12.8310   26.7530  -19.6300 N.3   234  LEU234     -0.1245
     29  CA        12.8550   27.8230  -18.6440 C.3   234  LEU234      0.1561
     30  C         12.4900   29.1240  -19.3400 C.2   234  LEU234      0.2260
     31  O         13.1910   29.5520  -20.2630 O.2   234  LEU234     -0.2867
     32  CB        14.2280   27.9190  -17.9860 C.3   234  LEU234      0.0270
     33  CG        14.3210   28.7540  -16.7160 C.3   234  LEU234      0.0019
     34  CD1       13.5590   28.0990  -15.5710 C.3   234  LEU234      0.0001
     35  CD2       15.7870   28.9650  -16.3490 C.3   234  LEU234      0.0001
     36  N         10.7980   31.9660   -4.4360 N.3   246  VAL246     -0.1245
     37  CA        11.3360   30.7150   -3.9080 C.3   246  VAL246      0.1561
     38  C         12.1120   30.9540   -2.6110 C.2   246  VAL246      0.2260
     39  O         12.0170   30.1350   -1.6820 O.2   246  VAL246     -0.2867
     40  CB        12.2160   30.0130   -4.9570 C.3   246  VAL246      0.0252
     41  CG1       12.9040   28.8060   -4.3570 C.3   246  VAL246      0.0019
     42  CG2       11.3670   29.5760   -6.1590 C.3   246  VAL246      0.0019
     43  N         16.7790   20.9570   -0.0950 N.3   274  HIS274     -0.1241
     44  CA        16.9310   20.7810   -1.5420 C.3   274  HIS274      0.1621
     45  C         18.1520   21.5860   -1.9730 C.2   274  HIS274      0.2264
     46  O         18.5600   22.5280   -1.2830 O.2   274  HIS274     -0.2867
     47  CB        15.6550   21.2120   -2.2760 C.3   274  HIS274      0.0745
     48  CG        15.7160   21.0040   -3.7630 C.ar  274  HIS274      0.0817
     49  ND1       16.2190   19.8560   -4.3340 N.ar  274  HIS274     -0.2268
     50  CD2       15.3560   21.8060   -4.7930 C.ar  274  HIS274      0.1154
     51  CE1       16.1670   19.9560   -5.6510 C.ar  274  HIS274      0.1986
     52  NE2       15.6480   21.1320   -5.9600 N.ar  274  HIS274     -0.2212
     53  N         19.2640   23.3870   -5.0630 N.3   276  PRO276     -0.2116
     54  CA        19.1820   23.9890   -6.4050 C.3   276  PRO276      0.1372
     55  C         20.3440   24.9170   -6.7100 C.2   276  PRO276      0.2244
     56  O         20.7720   25.0360   -7.8680 O.2   276  PRO276     -0.2868
     57  CB        17.8490   24.7430   -6.3760 C.3   276  PRO276      0.0268
     58  CG        17.6660   25.0970   -4.9250 C.3   276  PRO276      0.0207
     59  CD        18.2510   23.9450   -4.1440 C.3   276  PRO276      0.0892
     60  N         20.3590   29.8770   -2.9110 N.3   280  LEU280     -0.1245
     61  CA        19.0150   29.5320   -2.4690 C.3   280  LEU280      0.1561
     62  C         19.0440   28.7700   -1.1470 C.2   280  LEU280      0.2260
     63  O         18.2490   29.0580   -0.2430 O.2   280  LEU280     -0.2867
     64  CB        18.2890   28.7100   -3.5330 C.3   280  LEU280      0.0270
     65  CG        17.6890   29.4630   -4.7230 C.3   280  LEU280      0.0019
     66  CD1       17.0280   28.4950   -5.7080 C.3   280  LEU280      0.0001
     67  CD2       16.6710   30.5060   -4.2610 C.3   280  LEU280      0.0001
     68  N         22.2540   18.9070   -9.5760 N.3   304  VAL304     -0.1245
     69  CA        20.9460   19.0760   -8.9550 C.3   304  VAL304      0.1561
     70  C         20.0640   17.9130   -9.3960 C.2   304  VAL304      0.2260
     71  O         19.5620   17.8820  -10.5220 O.2   304  VAL304     -0.2867
     72  CB        20.3290   20.4310   -9.3190 C.3   304  VAL304      0.0252
     73  CG1       18.9940   20.6090   -8.6010 C.3   304  VAL304      0.0019
     74  CG2       21.3100   21.5640   -9.0050 C.3   304  VAL304      0.0019
     75  N         11.8120   23.2320   -2.3050 N.3   334  ALA334     -0.1231
     76  CA        10.8970   23.8250   -3.2570 C.3   334  ALA334      0.1694
     77  C         10.7980   22.9170   -4.4780 C.2   334  ALA334      0.2592
     78  O         11.6020   22.0060   -4.6610 O.2   334  ALA334     -0.2718
     79  CB        11.3620   25.2200   -3.6880 C.3   334  ALA334      0.0304
     80  N          9.7730   23.1500   -5.2910 N.am  335  ALA335     -0.1966
     81  CA         9.5600   22.3660   -6.5020 C.3   335  ALA335      0.1728
     82  C          8.8860   23.2420   -7.5400 C.2   335  ALA335      0.2616
     83  O          8.1270   24.1470   -7.2000 O.2   335  ALA335     -0.2715
     84  CB         8.7000   21.1270   -6.1990 C.3   335  ALA335      0.0334
     85  N          9.1700   22.9690   -8.8160 N.am  336  THR336     -0.1951
     86  CA         8.4380   23.6270   -9.8870 C.3   336  THR336      0.1897
     87  C          6.9480   23.2840   -9.7810 C.2   336  THR336      0.2313
     88  O          6.5400   22.3620   -9.0570 O.2   336  THR336     -0.2863
     89  CB         9.0000   23.2140  -11.2460 C.3   336  THR336      0.1794
     90  OG1        8.8650   21.8070  -11.3900 O.3   336  THR336     -0.2208
     91  CG2       10.4780   23.5740  -11.3440 C.3   336  THR336      0.0378
     92  N          4.2270   25.8290   -8.7150 N.3   338  TRP338     -0.1241
     93  CA         5.2970   25.4490   -7.8010 C.3   338  TRP338      0.1605
     94  C          4.7730   24.8830   -6.4860 C.2   338  TRP338      0.2264
     95  O          3.6220   25.1080   -6.1130 O.2   338  TRP338     -0.2867
     96  CB         6.1890   26.6850   -7.5140 C.3   338  TRP338      0.0550
     97  CG         6.8970   27.1790   -8.7390 C.ar  338  TRP338      0.0003
     98  CD1        6.3190   27.6750   -9.8800 C.ar  338  TRP338      0.0946
     99  CD2        8.3180   27.2140   -8.9660 C.ar  338  TRP338      0.0152
    100  NE1        7.2910   28.0050  -10.7970 N.ar  338  TRP338     -0.2442
    101  CE2        8.5220   27.7310  -10.2630 C.ar  338  TRP338      0.0810
    102  CE3        9.4290   26.8430   -8.2010 C.ar  338  TRP338      0.0012
    103  CZ2        9.8020   27.8980  -10.8150 C.ar  338  TRP338      0.0191
    104  CZ3       10.6910   27.0120   -8.7380 C.ar  338  TRP338      0.0001
    105  CH2       10.8690   27.5370  -10.0380 C.ar  338  TRP338      0.0015
@<TRIPOS>BOND
     1    20    19    2
     2    17    18    1
     3    19    18    1
     4    31    30    2
     5    18    21    1
     6    28    29    1
     7    30    29    1
     8    21    22    1
     9    29    32    1
    10    32    33    1
    11    22    24   ar
    12    22    23   ar
    13    24    26   ar
    14    23    25   ar
    15    26    27   ar
    16    33    35    1
    17    33    34    1
    18    25    27   ar
    19    14    13    1
    20    14    15    2
    21    13    12    1
    22    13    16    1
    23     4     3    2
    24     8    10   ar
    25     8     6   ar
    26    10    11   ar
    27     5     6    1
    28     5     2    1
    29     1     2    1
    30     6     7   ar
    31     3     2    1
    32    11     9   ar
    33     7     9   ar
    34    90    89    1
    35    91    89    1
    36    89    86    1
    37   103   101   ar
    38   103   105   ar
    39   100   101   ar
    40   100    98   ar
    41    71    70    2
    42   101    99   ar
    43   105   104   ar
    44    86    87    1
    45    86    85    1
    46    98    97   ar
    47    87    88    2
    48    68    69    1
    49    70    69    1
    50    72    74    1
    51    72    69    1
    52    72    73    1
    53    99    97   ar
    54    99   102   ar
    55    85    82   am
    56    97    96    1
    57   104   102   ar
    58    92    93    1
    59    56    55    2
    60    93    96    1
    61    93    94    1
    62    82    83    2
    63    82    81    1
    64    55    54    1
    65    81    84    1
    66    81    80    1
    67    94    95    2
    68    54    57    1
    69    54    53    1
    70    57    58    1
    71    42    40    1
    72    52    51   ar
    73    52    50   ar
    74    66    65    1
    75    51    49   ar
    76    80    77   am
    77    53    59    1
    78    40    41    1
    79    40    37    1
    80    58    59    1
    81    50    48   ar
    82    65    67    1
    83    65    64    1
    84    78    77    2
    85    77    76    1
    86    36    37    1
    87    49    48   ar
    88    37    38    1
    89    48    47    1
    90    79    76    1
    91    64    61    1
    92    76    75    1
    93    60    61    1
    94    38    39    2
    95    61    62    1
    96    47    44    1
    97    45    44    1
    98    45    46    2
    99    44    43    1
   100    62    63    2
