@<TRIPOS>MOLECULE
tmp/6eszC00.pdb
 100 92 0 0 0
SMALL
GASTEIGER

@<TRIPOS>ATOM
      1  N         10.4730   12.2910  -12.0450 N.3    91  SER91      -0.1217
      2  CA        10.0010   13.5610  -12.5840 C.3    91  SER91       0.1889
      3  C          9.9870   13.5790  -14.1150 C.2    91  SER91       0.2288
      4  O          9.1420   14.2620  -14.7100 O.2    91  SER91      -0.2866
      5  CB        10.8490   14.7040  -12.0490 C.3    91  SER91       0.2089
      6  OG        10.6520   14.8310  -10.6360 O.3    91  SER91      -0.2183
      7  N          8.7950   12.4940  -17.5680 N.3    93  PRO93      -0.2116
      8  CA         7.7030   11.6460  -18.1040 C.3    93  PRO93       0.1372
      9  C          8.1900   10.4580  -18.9270 C.2    93  PRO93       0.2244
     10  O          7.4120    9.5270  -19.1500 O.2    93  PRO93      -0.2868
     11  CB         6.8770   12.6200  -18.9580 C.3    93  PRO93       0.0268
     12  CG         7.1330   13.9650  -18.3460 C.3    93  PRO93       0.0207
     13  CD         8.6200   13.9050  -17.9420 C.3    93  PRO93       0.0892
     14  N          3.8000   12.4520   -7.9760 N.3   132  GLN132     -0.1245
     15  CA         4.6640   13.4680   -8.5880 C.3   132  GLN132      0.1566
     16  C          4.4330   14.8060   -7.9040 C.2   132  GLN132      0.2260
     17  O          3.3170   15.3420   -7.9040 O.2   132  GLN132     -0.2867
     18  CB         4.4160   13.5850  -10.0870 C.3   132  GLN132      0.0367
     19  CG         5.3220   14.6210  -10.7540 C.3   132  GLN132      0.0905
     20  CD         5.8620   14.1640  -12.1070 C.2   132  GLN132      0.2608
     21  OE1        5.8820   12.9700  -12.4210 O.2   132  GLN132     -0.2717
     22  NE2        6.3190   15.1210  -12.9070 N.am  132  GLN132     -0.0878
     23  N          7.4200   16.9100   -8.3500 N.3   134  GLU134     -0.1245
     24  CA         8.6960   17.3910   -8.8810 C.3   134  GLU134      0.1567
     25  C          9.8440   17.3050   -7.8550 C.2   134  GLU134      0.2260
     26  O         10.0270   16.2280   -7.2680 O.2   134  GLU134     -0.2867
     27  CB         8.5100   18.8000   -9.4490 C.3   134  GLU134      0.0388
     28  CG         8.3750   18.8030  -10.9830 C.3   134  GLU134      0.1160
     29  CD         7.0860   18.1740  -11.5110 C.2   134  GLU134      0.3649
     30  OE1        6.1410   17.9480  -10.7260 O.co2 134  GLU134     -0.2457
     31  OE2        7.0240   17.9150  -12.7400 O.co2 134  GLU134     -0.2457
     32  N         16.4350   12.9060  -15.4660 N.3   164  ILE164     -0.1245
     33  CA        16.1470   14.2260  -16.0220 C.3   164  ILE164      0.1561
     34  C         17.0020   14.4960  -17.2490 C.2   164  ILE164      0.2260
     35  O         16.6120   15.3000  -18.1140 O.2   164  ILE164     -0.2867
     36  CB        16.3460   15.2970  -14.9360 C.3   164  ILE164      0.0252
     37  CG1       15.7800   16.6410  -15.3810 C.3   164  ILE164      0.0019
     38  CG2       17.8300   15.4600  -14.6010 C.3   164  ILE164      0.0019
     39  CD1       14.2610   16.6370  -15.5250 C.3   164  ILE164      0.0001
     40  N         15.5870   14.7790  -20.7270 N.3   167  LEU167     -0.1245
     41  CA        14.8310   15.9640  -21.0860 C.3   167  LEU167      0.1561
     42  C         15.6770   17.2170  -21.2870 C.2   167  LEU167      0.2260
     43  O         15.1080   18.3000  -21.4920 O.2   167  LEU167     -0.2867
     44  CB        13.7910   16.2910  -19.9920 C.3   167  LEU167      0.0270
     45  CG        12.8360   15.1980  -19.5490 C.3   167  LEU167      0.0019
     46  CD1       11.8090   15.7840  -18.6110 C.3   167  LEU167      0.0001
     47  CD2       12.1870   14.5710  -20.7690 C.3   167  LEU167      0.0001
     48  N         21.0920   20.2960  -13.9030 N.3   178  PHE178     -0.1241
     49  CA        20.2990   19.1320  -13.5290 C.3   178  PHE178      0.1605
     50  C         21.0600   17.8440  -13.8310 C.2   178  PHE178      0.2264
     51  O         21.8650   17.7690  -14.7740 O.2   178  PHE178     -0.2867
     52  CB        18.9610   19.1110  -14.2760 C.3   178  PHE178      0.0534
     53  CG        17.9860   20.1780  -13.8490 C.ar  178  PHE178     -0.0203
     54  CD1       18.0920   20.8090  -12.6190 C.ar  178  PHE178     -0.0042
     55  CD2       16.9270   20.5170  -14.6780 C.ar  178  PHE178     -0.0042
     56  CE1       17.1760   21.7740  -12.2290 C.ar  178  PHE178     -0.0003
     57  CE2       15.9960   21.4780  -14.2910 C.ar  178  PHE178     -0.0003
     58  CZ        16.1240   22.1060  -13.0650 C.ar  178  PHE178     -0.0000
     59  N          8.9050   27.2180  -15.4310 N.3   212  ALA212     -0.1231
     60  CA         9.7190   26.0060  -15.5180 C.3   212  ALA212      0.1694
     61  C          8.8190   24.8420  -15.9020 C.2   212  ALA212      0.2593
     62  O          7.9920   24.4040  -15.0950 O.2   212  ALA212     -0.2718
     63  CB        10.4290   25.7210  -14.1920 C.3   212  ALA212      0.0304
     64  N          8.9750   24.3440  -17.1320 N.am  213  THR213     -0.1939
     65  CA         8.0510   23.3610  -17.6660 C.3   213  THR213      0.2028
     66  C          8.7990   22.2900  -18.4520 C.2   213  THR213      0.2642
     67  O          9.9940   22.4240  -18.7790 O.2   213  THR213     -0.2714
     68  CB         6.9970   24.0140  -18.5830 C.3   213  THR213      0.1808
     69  OG1        7.6460   24.6010  -19.7160 O.3   213  THR213     -0.2208
     70  CG2        6.2120   25.0800  -17.8480 C.3   213  THR213      0.0379
     71  N          8.0720   21.2080  -18.7420 N.am  214  GLY214     -0.1954
     72  CA         8.4600   20.2600  -19.7520 C.3   214  GLY214      0.1869
     73  C          7.5590   20.4500  -20.9600 C.2   214  GLY214      0.2309
     74  O          6.3400   20.2700  -20.8550 O.2   214  GLY214     -0.2863
     75  N         13.0290   20.0930  -20.8700 N.3   232  PHE232     -0.1241
     76  CA        12.9620   21.0820  -19.8140 C.3   232  PHE232      0.1605
     77  C         13.1050   22.4700  -20.4310 C.2   232  PHE232      0.2264
     78  O         14.0160   22.7150  -21.2260 O.2   232  PHE232     -0.2867
     79  CB        14.0580   20.8580  -18.7790 C.3   232  PHE232      0.0534
     80  CG        14.1510   21.9600  -17.7770 C.ar  232  PHE232     -0.0203
     81  CD1       13.0850   22.2220  -16.9270 C.ar  232  PHE232     -0.0042
     82  CD2       15.2750   22.7360  -17.6880 C.ar  232  PHE232     -0.0042
     83  CE1       13.1760   23.2470  -15.9890 C.ar  232  PHE232     -0.0003
     84  CE2       15.3580   23.7640  -16.7660 C.ar  232  PHE232     -0.0003
     85  CZ        14.2990   24.0100  -15.9200 C.ar  232  PHE232     -0.0000
     86  N         17.0500   16.8380   -8.9220 N.3   306  ILE306     -0.1245
     87  CA        15.5960   16.9670   -8.8220 C.3   306  ILE306      0.1561
     88  C         15.1810   16.4320   -7.4480 C.2   306  ILE306      0.2260
     89  O         15.6640   16.9270   -6.4270 O.2   306  ILE306     -0.2867
     90  CB        14.8960   16.2480   -9.9900 C.3   306  ILE306      0.0252
     91  CG1       15.6000   16.5740  -11.3170 C.3   306  ILE306      0.0019
     92  CG2       13.4420   16.6650  -10.1030 C.3   306  ILE306      0.0019
     93  CD1       15.6920   18.0700  -11.6430 C.3   306  ILE306      0.0001
     94  N          9.1700   22.9690   -8.8160 N.3   336  THR336     -0.1218
     95  CA         8.4380   23.6270   -9.8870 C.3   336  THR336      0.1862
     96  C          6.9480   23.2840   -9.7810 C.2   336  THR336      0.2287
     97  O          6.5400   22.3620   -9.0570 O.2   336  THR336     -0.2866
     98  CB         9.0000   23.2140  -11.2460 C.3   336  THR336      0.1770
     99  OG1        8.8650   21.8070  -11.3900 O.3   336  THR336     -0.2211
    100  CG2       10.4780   23.5740  -11.3440 C.3   336  THR336      0.0375
@<TRIPOS>BOND
     1    43    42    2
     2    42    41    1
     3    78    77    2
     4    41    40    1
     5    41    44    1
     6    73    74    2
     7    73    72    1
     8    75    76    1
     9    47    45    1
    10    77    76    1
    11    44    45    1
    12    76    79    1
    13    72    71    1
    14    69    68    1
    15    45    46    1
    16    10     9    2
    17    11    12    1
    18    11     8    1
    19     9     8    1
    20    79    80    1
    21    67    66    2
    22    71    66   am
    23    68    70    1
    24    68    65    1
    25    66    65    1
    26    12    13    1
    27    35    34    2
    28     8     7    1
    29    13     7    1
    30    80    82   ar
    31    80    81   ar
    32    82    84   ar
    33    65    64    1
    34    34    33    1
    35    64    61   am
    36    81    83   ar
    37    84    85   ar
    38    33    32    1
    39    33    36    1
    40    83    85   ar
    41    61    60    1
    42    61    62    2
    43    39    37    1
    44    60    59    1
    45    60    63    1
    46    37    36    1
    47    36    38    1
    48    51    50    2
    49     4     3    2
    50    55    57   ar
    51    55    53   ar
    52    57    58   ar
    53    52    53    1
    54    52    49    1
    55     3     2    1
    56    48    49    1
    57    53    54   ar
    58    50    49    1
    59    58    56   ar
    60    22    20   am
    61    31    29   ar
    62    54    56   ar
    63     2     5    1
    64     2     1    1
    65    21    20    2
    66    20    19    1
    67     5     6    1
    68    93    91    1
    69    29    28    1
    70    29    30   ar
    71    99    98    1
    72   100    98    1
    73    91    90    1
    74    98    95    1
    75    28    27    1
    76    19    18    1
    77    92    90    1
    78    18    15    1
    79    90    87    1
    80    95    96    1
    81    95    94    1
    82    96    97    2
    83    27    24    1
    84    86    87    1
    85    24    23    1
    86    24    25    1
    87    87    88    1
    88    15    14    1
    89    15    16    1
    90    16    17    2
    91    25    26    2
    92    88    89    2
