@<TRIPOS>MOLECULE
tmp/6et2M00.pdb
 141 133 0 0 0
SMALL
GASTEIGER

@<TRIPOS>ATOM
      1  N        -64.1730   12.5670   31.4060 N.3    92  SER92      -0.1217
      2  CA       -63.0390   11.6560   31.5020 C.3    92  SER92       0.1889
      3  C        -63.4760   10.2040   31.6430 C.2    92  SER92       0.2288
      4  O        -62.7230    9.2970   31.2680 O.2    92  SER92      -0.2866
      5  CB       -62.1550   12.0530   32.6850 C.3    92  SER92       0.2089
      6  OG       -61.6570   13.3690   32.5230 O.3    92  SER92      -0.2183
      7  N        -65.2320    7.0710   30.3750 N.3    94  PRO94      -0.2116
      8  CA       -65.8630    6.5590   29.1490 C.3    94  PRO94       0.1372
      9  C        -67.2900    6.0850   29.3520 C.2    94  PRO94       0.2244
     10  O        -68.0000    5.8780   28.3600 O.2    94  PRO94      -0.2868
     11  CB       -64.9530    5.3910   28.7410 C.3    94  PRO94       0.0268
     12  CG       -63.6470    5.6780   29.3910 C.3    94  PRO94       0.0207
     13  CD       -63.9820    6.3540   30.6890 C.3    94  PRO94       0.0892
     14  N        -61.1680   15.1050   24.6510 N.3   133  GLN133     -0.1245
     15  CA       -60.6210   14.3140   25.7480 C.3   133  GLN133      0.1566
     16  C        -59.1700   14.7240   25.9480 C.2   133  GLN133      0.2260
     17  O        -58.3370   14.5170   25.0590 O.2   133  GLN133     -0.2867
     18  CB       -60.7350   12.8160   25.4640 C.3   133  GLN133      0.0367
     19  CG       -60.1230   11.9190   26.5300 C.3   133  GLN133      0.0905
     20  CD       -61.0750   11.6530   27.6760 C.2   133  GLN133      0.2608
     21  OE1      -62.1930   12.1700   27.6990 O.2   133  GLN133     -0.2717
     22  NE2      -60.6390   10.8450   28.6380 N.am  133  GLN133     -0.0878
     23  N        -58.2110   14.3970   29.6330 N.3   135  GLU135     -0.1231
     24  CA       -58.1650   13.9890   31.0330 C.3   135  GLU135      0.1699
     25  C        -58.2090   15.2810   31.8560 C.2   135  GLU135      0.2592
     26  O        -59.0980   16.1130   31.6320 O.2   135  GLU135     -0.2718
     27  CB       -56.9500   13.1110   31.2430 C.3   135  GLU135      0.0402
     28  CG       -56.9190   11.8370   30.3870 C.3   135  GLU135      0.1161
     29  CD       -56.4350   12.1230   28.9660 C.2   135  GLU135      0.3649
     30  OE1      -56.1220   13.2780   28.6640 O.co2 135  GLU135     -0.2457
     31  OE2      -56.2290   11.1610   28.1950 O.co2 135  GLU135     -0.2457
     32  N        -57.3190   15.4670   32.8270 N.am  136  ALA136     -0.1980
     33  CA       -57.3750   16.5990   33.7370 C.3   136  ALA136      0.1597
     34  C        -57.1970   17.9420   33.0620 C.2   136  ALA136      0.2287
     35  O        -57.4850   18.9800   33.6670 O.2   136  ALA136     -0.2864
     36  CB       -56.3800   16.3990   34.8630 C.3   136  ALA136      0.0319
     37  N        -66.1540   10.3170   37.6420 N.3   166  ILE166     -0.1245
     38  CA       -65.0380    9.3940   37.7990 C.3   166  ILE166      0.1561
     39  C        -65.3180    8.3090   38.8290 C.2   166  ILE166      0.2260
     40  O        -64.6660    7.2590   38.8000 O.2   166  ILE166     -0.2867
     41  CB       -63.7660   10.1820   38.1710 C.3   166  ILE166      0.0252
     42  CG1      -62.5240    9.2860   38.1400 C.3   166  ILE166      0.0019
     43  CG2      -63.9090   10.7970   39.5540 C.3   166  ILE166      0.0019
     44  CD1      -62.1390    8.8200   36.7560 C.3   166  ILE166      0.0001
     45  N        -65.5790    4.5670   37.9870 N.3   169  LEU169     -0.1245
     46  CA       -64.3890    3.8400   37.5730 C.3   169  LEU169      0.1561
     47  C        -63.4820    3.4900   38.7460 C.2   169  LEU169      0.2260
     48  O        -62.4400    2.8590   38.5420 O.2   169  LEU169     -0.2867
     49  CB       -63.5920    4.6600   36.5530 C.3   169  LEU169      0.0270
     50  CG       -64.3180    5.1280   35.2910 C.3   169  LEU169      0.0019
     51  CD1      -63.3300    5.8010   34.3390 C.3   169  LEU169      0.0001
     52  CD2      -65.0470    3.9820   34.6080 C.3   169  LEU169      0.0001
     53  N        -59.7080   10.6100   43.6730 N.3   180  PHE180     -0.1241
     54  CA       -60.5670   11.3020   42.7270 C.3   180  PHE180      0.1605
     55  C        -61.9660   11.5400   43.2950 C.2   180  PHE180      0.2264
     56  O        -62.3940   10.9180   44.2720 O.2   180  PHE180     -0.2867
     57  CB       -60.6590   10.5140   41.4210 C.3   180  PHE180      0.0534
     58  CG       -59.3460   10.3940   40.6990 C.ar  180  PHE180     -0.0203
     59  CD1      -58.3850   11.3880   40.8050 C.ar  180  PHE180     -0.0042
     60  CD2      -59.0750    9.2920   39.9100 C.ar  180  PHE180     -0.0042
     61  CE1      -57.1770   11.2780   40.1490 C.ar  180  PHE180     -0.0003
     62  CE2      -57.8720    9.1810   39.2450 C.ar  180  PHE180     -0.0003
     63  CZ       -56.9210   10.1760   39.3670 C.ar  180  PHE180     -0.0000
     64  N        -50.9490    5.4420   34.7550 N.3   214  ALA214     -0.1231
     65  CA       -52.3320    5.7120   35.1380 C.3   214  ALA214      0.1694
     66  C        -53.2230    5.4530   33.9310 C.2   214  ALA214      0.2593
     67  O        -53.1660    6.1910   32.9410 O.2   214  ALA214     -0.2718
     68  CB       -52.4930    7.1450   35.6440 C.3   214  ALA214      0.0304
     69  N        -54.0460    4.4110   34.0190 N.am  215  THR215     -0.1939
     70  CA       -54.8510    3.9670   32.8950 C.3   215  THR215      0.2028
     71  C        -56.2590    3.6310   33.3650 C.2   215  THR215      0.2642
     72  O        -56.5360    3.5350   34.5640 O.2   215  THR215     -0.2714
     73  CB       -54.2250    2.7400   32.2120 C.3   215  THR215      0.1808
     74  OG1      -54.1380    1.6540   33.1470 O.3   215  THR215     -0.2208
     75  CG2      -52.8350    3.0720   31.6850 C.3   215  THR215      0.0379
     76  N        -57.1560    3.4740   32.3910 N.am  216  GLY216     -0.1954
     77  CA       -58.4600    2.8850   32.6180 C.3   216  GLY216      0.1869
     78  C        -58.5290    1.5260   31.9520 C.2   216  GLY216      0.2309
     79  O        -58.5520    1.4380   30.7200 O.2   216  GLY216     -0.2863
     80  N        -60.2810    2.6310   37.1150 N.3   234  PHE234     -0.1241
     81  CA       -59.0610    3.4230   37.1420 C.3   234  PHE234      0.1605
     82  C        -57.9460    2.5850   37.7520 C.2   234  PHE234      0.2264
     83  O        -58.0860    2.0560   38.8580 O.2   234  PHE234     -0.2867
     84  CB       -59.2820    4.7040   37.9420 C.3   234  PHE234      0.0534
     85  CG       -58.0160    5.4390   38.2750 C.ar  234  PHE234     -0.0203
     86  CD1      -57.2510    6.0240   37.2790 C.ar  234  PHE234     -0.0042
     87  CD2      -57.5930    5.5510   39.5900 C.ar  234  PHE234     -0.0042
     88  CE1      -56.0820    6.7020   37.5890 C.ar  234  PHE234     -0.0003
     89  CE2      -56.4280    6.2280   39.9070 C.ar  234  PHE234     -0.0003
     90  CZ       -55.6710    6.8040   38.9060 C.ar  234  PHE234     -0.0000
     91  N        -54.1790   22.9720   38.3840 N.3   276  HIS276     -0.1241
     92  CA       -54.8420   21.7090   38.6820 C.3   276  HIS276      0.1621
     93  C        -54.4910   21.2790   40.1030 C.2   276  HIS276      0.2264
     94  O        -53.4460   21.6530   40.6470 O.2   276  HIS276     -0.2867
     95  CB       -54.4320   20.6360   37.6710 C.3   276  HIS276      0.0745
     96  CG       -55.0960   19.3130   37.8970 C.ar  276  HIS276      0.0817
     97  ND1      -56.4500   19.1880   38.1250 N.ar  276  HIS276     -0.2268
     98  CD2      -54.5930   18.0560   37.9280 C.ar  276  HIS276      0.1154
     99  CE1      -56.7500   17.9130   38.2960 C.ar  276  HIS276      0.1986
    100  NE2      -55.6420   17.2050   38.1800 N.ar  276  HIS276     -0.2212
    101  N        -59.9780   15.3890   44.0620 N.3   306  VAL306     -0.1245
    102  CA       -59.3550   15.6160   42.7610 C.3   306  VAL306      0.1561
    103  C        -60.4260   15.3590   41.7060 C.2   306  VAL306      0.2260
    104  O        -60.7740   14.2140   41.4170 O.2   306  VAL306     -0.2867
    105  CB       -58.1250   14.7300   42.5580 C.3   306  VAL306      0.0252
    106  CG1      -57.4330   15.0770   41.2450 C.3   306  VAL306      0.0019
    107  CG2      -57.1650   14.8860   43.7330 C.3   306  VAL306      0.0019
    108  N        -60.4410   15.7960   38.4640 N.3   308  ILE308     -0.1245
    109  CA       -59.9380   15.6410   37.1020 C.3   308  ILE308      0.1561
    110  C        -59.9810   16.9890   36.3860 C.2   308  ILE308      0.2260
    111  O        -59.3350   17.9470   36.8220 O.2   308  ILE308     -0.2867
    112  CB       -60.7310   14.5570   36.3470 C.3   308  ILE308      0.0252
    113  CG1      -60.9360   13.3210   37.2320 C.3   308  ILE308      0.0019
    114  CG2      -60.0040   14.1470   35.0730 C.3   308  ILE308      0.0019
    115  CD1      -59.6470   12.6720   37.6940 C.3   308  ILE308      0.0001
    116  N        -52.0910   16.0970   32.9850 N.3   337  ALA337     -0.1231
    117  CA       -53.1080   15.0910   32.7220 C.3   337  ALA337      0.1694
    118  C        -52.4300   13.7870   32.3250 C.2   337  ALA337      0.2592
    119  O        -51.3100   13.7860   31.8050 O.2   337  ALA337     -0.2718
    120  CB       -54.0740   15.5490   31.6230 C.3   337  ALA337      0.0304
    121  N        -53.1080   12.6730   32.5980 N.am  338  THR338     -0.1953
    122  CA       -52.5770   11.3710   32.2170 C.3   338  THR338      0.1897
    123  C        -52.4770   11.2740   30.6990 C.2   338  THR338      0.2313
    124  O        -53.2110   11.9370   29.9610 O.2   338  THR338     -0.2863
    125  CB       -53.4570   10.2460   32.7650 C.3   338  THR338      0.1794
    126  OG1      -54.8140   10.4390   32.3520 O.3   338  THR338     -0.2208
    127  CG2      -53.3810   10.2090   34.2840 C.3   338  THR338      0.0378
    128  N        -48.9170   11.2100   28.8710 N.3   340  TRP340     -0.1241
    129  CA       -49.2970   12.3750   29.6600 C.3   340  TRP340      0.1605
    130  C        -49.3000   13.6740   28.8600 C.2   340  TRP340      0.2264
    131  O        -48.6740   13.7780   27.8030 O.2   340  TRP340     -0.2867
    132  CB       -48.3410   12.5240   30.8580 C.3   340  TRP340      0.0550
    133  CG       -48.5050   11.4320   31.8680 C.ar  340  TRP340      0.0003
    134  CD1      -48.1810   10.1140   31.7180 C.ar  340  TRP340      0.0946
    135  CD2      -49.0490   11.5630   33.1870 C.ar  340  TRP340      0.0152
    136  NE1      -48.4880    9.4180   32.8620 N.ar  340  TRP340     -0.2442
    137  CE2      -49.0240   10.2860   33.7780 C.ar  340  TRP340      0.0810
    138  CE3      -49.5570   12.6380   33.9230 C.ar  340  TRP340      0.0012
    139  CZ2      -49.4840   10.0540   35.0710 C.ar  340  TRP340      0.0191
    140  CZ3      -50.0120   12.4060   35.2070 C.ar  340  TRP340      0.0001
    141  CH2      -49.9730   11.1250   35.7670 C.ar  340  TRP340      0.0015
@<TRIPOS>BOND
     1    14    15    1
     2    17    16    2
     3    18    15    1
     4    18    19    1
     5    15    16    1
     6    19    20    1
     7    20    21    2
     8    20    22   am
     9   131   130    2
    10    31    29   ar
    11    10     9    2
    12    30    29   ar
    13    11     8    1
    14    11    12    1
    15   130   129    1
    16   128   129    1
    17    29    28    1
    18     8     9    1
    19     8     7    1
    20    12    13    1
    21    23    24    1
    22   129   132    1
    23   124   123    2
    24     7    13    1
    25    28    27    1
    26   123   122    1
    27    79    78    2
    28   132   133    1
    29    24    27    1
    30    24    25    1
    31     4     3    2
    32     1     2    1
    33     2     3    1
    34     2     5    1
    35   120   117    1
    36    26    25    2
    37    75    73    1
    38   134   133   ar
    39   134   136   ar
    40   119   118    2
    41    25    32   am
    42   133   135   ar
    43    78    77    1
    44    73    70    1
    45    73    74    1
    46   122   121    1
    47   122   125    1
    48   118   121   am
    49   118   117    1
    50   126   125    1
    51    76    77    1
    52    76    71   am
    53     6     5    1
    54   117   116    1
    55   125   127    1
    56    32    33    1
    57   136   137   ar
    58    70    71    1
    59    70    69    1
    60    67    66    2
    61    34    35    2
    62    34    33    1
    63   135   137   ar
    64   135   138   ar
    65    71    72    2
    66    33    36    1
    67   137   139   ar
    68   138   140   ar
    69    66    69   am
    70    66    65    1
    71    51    50    1
    72    52    50    1
    73    64    65    1
    74   139   141   ar
    75   114   112    1
    76    65    68    1
    77   140   141   ar
    78    50    49    1
    79   112   109    1
    80   112   113    1
    81   110   111    2
    82   110   109    1
    83    49    46    1
    84    44    42    1
    85   109   108    1
    86    80    81    1
    87    81    82    1
    88    81    84    1
    89   113   115    1
    90    86    88   ar
    91    86    85   ar
    92    46    45    1
    93    46    47    1
    94    88    90   ar
    95    37    38    1
    96    95    96    1
    97    95    92    1
    98    82    83    2
    99    38    41    1
   100    38    39    1
   101    96    98   ar
   102    96    97   ar
   103    98   100   ar
   104    84    85    1
   105    97    99   ar
   106    42    41    1
   107    41    43    1
   108   100    99   ar
   109    85    87   ar
   110    91    92    1
   111    48    47    2
   112    92    93    1
   113    40    39    2
   114    90    89   ar
   115    62    63   ar
   116    62    60   ar
   117    63    61   ar
   118    87    89   ar
   119    60    58   ar
   120    93    94    2
   121    61    59   ar
   122    58    59   ar
   123    58    57    1
   124   106   105    1
   125   104   103    2
   126    57    54    1
   127   103   102    1
   128   105   102    1
   129   105   107    1
   130    54    55    1
   131    54    53    1
   132   102   101    1
   133    55    56    2
