@<TRIPOS>MOLECULE
tmp/6et4A02.pdb
 222 212 0 0 0
SMALL
GASTEIGER

@<TRIPOS>ATOM
      1  N         39.6910  102.3240   -7.4910 N.3     9  TYR9       -0.1241
      2  CA        39.9690  103.7300   -7.1240 C.3     9  TYR9        0.1605
      3  C         41.1990  104.2950   -7.7940 C.2     9  TYR9        0.2264
      4  O         41.1920  105.3890   -8.3570 O.2     9  TYR9       -0.2867
      5  CB        40.0190  103.9090   -5.5770 C.3     9  TYR9        0.0534
      6  CG        38.5850  104.1480   -4.9930 C.ar    9  TYR9       -0.0201
      7  CD1       37.6610  103.1020   -4.9110 C.ar    9  TYR9       -0.0009
      8  CD2       38.1860  105.4110   -4.4980 C.ar    9  TYR9       -0.0009
      9  CE1       36.3820  103.3090   -4.3970 C.ar    9  TYR9        0.0417
     10  CE2       36.8920  105.6360   -4.0010 C.ar    9  TYR9        0.0417
     11  CZ        35.9960  104.5530   -3.9430 C.ar    9  TYR9        0.1957
     12  OH        34.6970  104.7030   -3.4800 O.3     9  TYR9       -0.2866
     13  N         38.6340  105.4230  -10.9140 N.3    13  LEU13      -0.1231
     14  CA        37.7800  106.5190  -10.3120 C.3    13  LEU13       0.1693
     15  C         38.5500  107.7660  -10.0210 C.2    13  LEU13       0.2591
     16  O         38.1330  108.9050  -10.3790 O.2    13  LEU13      -0.2718
     17  CB        37.0720  106.0700   -9.0730 C.3    13  LEU13       0.0284
     18  CG        35.6950  106.4850   -8.6590 C.3    13  LEU13       0.0019
     19  CD1       35.6100  106.6080   -7.1880 C.3    13  LEU13       0.0001
     20  CD2       35.1730  107.7350   -9.3180 C.3    13  LEU13       0.0001
     21  N         39.6630  107.5880   -9.2920 N.am   14  MET14      -0.1979
     22  CA        40.4540  108.7660   -8.9280 C.3    14  MET14       0.1605
     23  C         41.0150  109.5730  -10.1020 C.2    14  MET14       0.2287
     24  O         40.8350  110.8040  -10.1380 O.2    14  MET14      -0.2864
     25  CB        41.5090  108.4500   -7.8800 C.3    14  MET14       0.0413
     26  CG        40.8650  107.8460   -6.5970 C.3    14  MET14       0.0598
     27  SD        39.8400  108.9780   -5.6320 S.3    14  MET14      -0.1393
     28  CE        41.0820  110.1210   -5.1440 C.3    14  MET14       0.0692
     29  N         38.1040  111.5810  -11.5970 N.3    17  LEU17      -0.1245
     30  CA        37.7110  112.7380  -10.7870 C.3    17  LEU17       0.1561
     31  C         38.7540  113.8410  -10.8530 C.2    17  LEU17       0.2260
     32  O         38.4100  115.0370  -10.8240 O.2    17  LEU17      -0.2867
     33  CB        37.5160  112.3330   -9.3560 C.3    17  LEU17       0.0270
     34  CG        36.3360  111.4340   -9.0750 C.3    17  LEU17       0.0019
     35  CD1       36.3550  110.9430   -7.5960 C.3    17  LEU17       0.0001
     36  CD2       35.0160  112.1210   -9.4730 C.3    17  LEU17       0.0001
     37  N         37.4990  117.7390  -11.7060 N.3    21  LEU21      -0.1245
     38  CA        37.3240  118.6850  -10.5830 C.3    21  LEU21       0.1561
     39  C         38.5880  119.4230  -10.3240 C.2    21  LEU21       0.2260
     40  O         39.6650  118.8060  -10.3120 O.2    21  LEU21      -0.2867
     41  CB        37.0340  117.8930   -9.3260 C.3    21  LEU21       0.0270
     42  CG        35.7540  117.0560   -9.3200 C.3    21  LEU21       0.0019
     43  CD1       35.6700  116.1510   -8.0680 C.3    21  LEU21       0.0001
     44  CD2       34.6420  118.0530   -9.3610 C.3    21  LEU21       0.0001
     45  N         41.1720  121.1300   -7.7150 N.2    23  PRO23      -0.2584
     46  CA        41.5350  120.4900   -6.4250 C.3    23  PRO23       0.1895
     47  C         40.7790  120.9860   -5.2040 C.2    23  PRO23       0.2359
     48  O         40.4520  120.1560   -4.3550 O.2    23  PRO23      -0.2858
     49  CB        43.0210  120.6850   -6.2950 C.2    23  PRO23       0.0071
     50  CG        43.4530  121.5330   -7.4120 C.2    23  PRO23       0.0180
     51  CD        42.3310  121.7220   -8.4070 C.2    23  PRO23       0.0937
     52  N         37.4190  119.2630   -5.3160 N.3    26  ALA26      -0.1231
     53  CA        37.6290  117.8710   -4.9480 C.3    26  ALA26       0.1694
     54  C         37.7450  117.7180   -3.4240 C.2    26  ALA26       0.2591
     55  O         37.1600  116.7890   -2.8490 O.2    26  ALA26      -0.2718
     56  CB        38.8440  117.3070   -5.6330 C.3    26  ALA26       0.0304
     57  N         38.4860  118.6260   -2.7910 N.am   27  HIS27      -0.1979
     58  CA        38.6170  118.6290   -1.3040 C.3    27  HIS27       0.1610
     59  C         37.2510  118.7620   -0.6340 C.2    27  HIS27       0.2287
     60  O         36.8470  117.9330    0.2440 O.2    27  HIS27      -0.2864
     61  CB        39.5410  119.7730   -0.9200 C.3    27  HIS27       0.0486
     62  CG        39.8520  119.8600    0.5500 C.3    27  HIS27       0.0939
     63  ND1       40.7010  120.8320    1.0680 N.3    27  HIS27      -0.1997
     64  CD2       39.6170  119.0160    1.5550 C.3    27  HIS27       0.1077
     65  CE1       40.7530  120.6980    2.3850 C.3    27  HIS27       0.1782
     66  NE2       40.0840  119.6110    2.7030 N.3    27  HIS27      -0.1983
     67  N         34.2720  118.1440   -1.9180 N.3    29  LEU29      -0.1231
     68  CA        33.4480  116.9690   -2.1620 C.3    29  LEU29       0.1693
     69  C         33.8720  115.7720   -1.3010 C.2    29  LEU29       0.2591
     70  O         33.0600  115.0330   -0.7700 O.2    29  LEU29      -0.2718
     71  CB        33.5340  116.5960   -3.6210 C.3    29  LEU29       0.0284
     72  CG        32.5910  115.6330   -4.2210 C.3    29  LEU29       0.0019
     73  CD1       31.1440  116.1980   -4.1440 C.3    29  LEU29       0.0001
     74  CD2       33.0230  115.4250   -5.7000 C.3    29  LEU29       0.0001
     75  N         35.1740  115.5990   -1.1330 N.am   30  ALA30      -0.1980
     76  CA        35.6710  114.5250   -0.3090 C.3    30  ALA30       0.1597
     77  C         35.2280  114.7220    1.1550 C.2    30  ALA30       0.2287
     78  O         34.8380  113.7310    1.8000 O.2    30  ALA30      -0.2864
     79  CB        37.2070  114.4330   -0.3670 C.3    30  ALA30       0.0319
     80  N         31.3310  113.9550    1.2190 N.3    33  PHE33      -0.1227
     81  CA        31.0110  112.5230    1.1840 C.3    33  PHE33       0.1736
     82  C         31.3980  111.8210    2.4710 C.2    33  PHE33       0.2596
     83  O         30.6980  110.9080    2.9420 O.2    33  PHE33      -0.2718
     84  CB        31.6680  111.8080    0.0020 C.3    33  PHE33       0.0547
     85  CG        30.8650  111.8770   -1.2580 C.ar   33  PHE33      -0.0202
     86  CD1       30.5410  113.0520   -1.8020 C.ar   33  PHE33      -0.0042
     87  CD2       30.3910  110.7050   -1.8290 C.ar   33  PHE33      -0.0042
     88  CE1       29.8380  113.1370   -2.9760 C.ar   33  PHE33      -0.0003
     89  CE2       29.6510  110.7510   -2.9630 C.ar   33  PHE33      -0.0003
     90  CZ        29.3900  111.9840   -3.5380 C.ar   33  PHE33      -0.0000
     91  N         32.5500  112.2170    3.0140 N.am   34  THR34      -0.1953
     92  CA        33.0510  111.5760    4.2060 C.3    34  THR34       0.1897
     93  C         32.1180  111.8790    5.3780 C.2    34  THR34       0.2313
     94  O         31.7820  110.9570    6.1600 O.2    34  THR34      -0.2863
     95  CB        34.5090  111.9840    4.4910 C.3    34  THR34       0.1794
     96  OG1       35.3520  111.5870    3.3880 O.3    34  THR34      -0.2208
     97  CG2       35.0110  111.2960    5.7750 C.3    34  THR34       0.0378
     98  N         29.4800  108.1800    3.2020 N.3    38  LEU38      -0.1231
     99  CA        29.2970  107.5880    1.8500 C.3    38  LEU38       0.1693
    100  C         30.6330  107.0680    1.3810 C.2    38  LEU38       0.2592
    101  O         31.3270  107.7400    0.5940 O.2    38  LEU38      -0.2718
    102  CB        28.8100  108.6370    0.8490 C.3    38  LEU38       0.0284
    103  CG        27.4250  109.1590    1.1860 C.3    38  LEU38       0.0019
    104  CD1       27.0780  110.3240    0.2570 C.3    38  LEU38       0.0001
    105  CD2       26.3920  108.0320    1.1230 C.3    38  LEU38       0.0001
    106  N         31.0020  105.9040    1.8810 N.am   39  LEU39      -0.1966
    107  CA        32.3490  105.4060    1.7550 C.3    39  LEU39       0.1713
    108  C         32.3870  103.9850    1.2690 C.2    39  LEU39       0.2458
    109  O         31.5060  103.2080    1.6400 O.2    39  LEU39      -0.2730
    110  CB        33.0430  105.4380    3.1410 C.3    39  LEU39       0.0310
    111  CG        33.2370  106.7870    3.7710 C.3    39  LEU39       0.0022
    112  CD1       33.7590  106.6220    5.1450 C.3    39  LEU39       0.0001
    113  CD2       34.2810  107.5090    2.9590 C.3    39  LEU39       0.0001
    114  N         33.4140  103.6360    0.4300 N.am   40  PRO40      -0.2727
    115  CA        33.5430  102.2180    0.1560 C.3    40  PRO40       0.1402
    116  C         33.7220  101.4420    1.4780 C.2    40  PRO40       0.2269
    117  O         34.1140  102.0160    2.5330 O.2    40  PRO40      -0.2865
    118  CB        34.7890  102.1300   -0.7800 C.3    40  PRO40       0.0296
    119  CG        35.6690  103.2760   -0.3310 C.3    40  PRO40       0.0237
    120  CD        34.6450  104.3720    0.0290 C.3    40  PRO40       0.0939
    121  N         42.7090  118.3710    6.2870 N.3    69  PHE69      -0.1241
    122  CA        41.6730  117.6960    5.5260 C.3    69  PHE69       0.1605
    123  C         40.2880  118.1140    6.0460 C.2    69  PHE69       0.2264
    124  O         39.4890  118.7420    5.3400 O.2    69  PHE69      -0.2867
    125  CB        41.8110  116.1950    5.4900 C.3    69  PHE69       0.0534
    126  CG        40.7040  115.5440    4.6930 C.ar   69  PHE69      -0.0203
    127  CD1       40.6320  115.7070    3.3080 C.ar   69  PHE69      -0.0042
    128  CD2       39.6820  114.8600    5.3310 C.ar   69  PHE69      -0.0042
    129  CE1       39.6160  115.1380    2.6070 C.ar   69  PHE69      -0.0003
    130  CE2       38.6400  114.3100    4.6170 C.ar   69  PHE69      -0.0003
    131  CZ        38.6180  114.4500    3.2580 C.ar   69  PHE69      -0.0000
    132  N         36.3300  105.4110    7.7390 N.3    82  MET82      -0.1245
    133  CA        37.2930  105.1700    6.6690 C.3    82  MET82       0.1570
    134  C         38.4610  104.2540    7.1210 C.2    82  MET82       0.2261
    135  O         39.1720  103.6650    6.3360 O.2    82  MET82      -0.2867
    136  CB        37.7910  106.5310    6.1440 C.3    82  MET82       0.0387
    137  CG        38.3470  106.4520    4.7930 C.3    82  MET82       0.0595
    138  SD        38.9070  108.0420    4.1840 S.3    82  MET82      -0.1393
    139  CE        37.4770  109.0660    3.8530 C.3    82  MET82       0.0692
    140  N         45.3880  125.8900   -4.1710 N.3   105  VAL105     -0.1245
    141  CA        45.7240  124.4480   -4.0360 C.3   105  VAL105      0.1561
    142  C         46.0200  123.9270   -5.4270 C.2   105  VAL105      0.2260
    143  O         45.2370  124.2240   -6.3530 O.2   105  VAL105     -0.2867
    144  CB        44.5330  123.6080   -3.5380 C.3   105  VAL105      0.0252
    145  CG1       44.9970  122.2020   -3.1900 C.3   105  VAL105      0.0019
    146  CG2       43.8330  124.2230   -2.3610 C.3   105  VAL105      0.0019
    147  N         47.5960  120.4240   -7.7590 N.3   107  ARG107     -0.1245
    148  CA        48.0900  119.0720   -7.8870 C.3   107  ARG107      0.1563
    149  C         49.3360  119.0100   -8.7660 C.2   107  ARG107      0.2260
    150  O         49.4990  119.7570   -9.7600 O.2   107  ARG107     -0.2867
    151  CB        47.0410  118.1770   -8.5110 C.3   107  ARG107      0.0307
    152  CG        45.7280  118.0450   -7.7890 C.3   107  ARG107      0.0489
    153  CD        44.9260  117.0260   -8.5920 C.3   107  ARG107      0.2205
    154  NE        43.5720  116.9210   -8.2610 N.pl3 107  ARG107     -0.0865
    155  CZ        42.5300  117.5250   -8.9000 C.cat 107  ARG107      0.5346
    156  NH1       42.6310  118.4170   -9.8610 N.pl3 107  ARG107      0.1354
    157  NH2       41.3290  117.2630   -8.4720 N.pl3 107  ARG107      0.1354
    158  N         51.2500  117.6570   -3.8590 N.3   114  VAL114     -0.1245
    159  CA        50.3520  118.7980   -3.8200 C.3   114  VAL114      0.1561
    160  C         51.0980  119.9790   -3.3080 C.2   114  VAL114      0.2260
    161  O         52.0650  119.8250   -2.5090 O.2   114  VAL114     -0.2867
    162  CB        49.1010  118.4660   -2.9400 C.3   114  VAL114      0.0252
    163  CG1       48.2880  119.7080   -2.6230 C.3   114  VAL114      0.0019
    164  CG2       48.2030  117.3870   -3.5700 C.3   114  VAL114      0.0019
    165  N         49.9650  123.5900   -1.5090 N.3   116  ASN116     -0.1240
    166  CA        48.8610  124.4340   -1.0140 C.3   116  ASN116      0.1653
    167  C         49.3000  125.6920   -0.3380 C.2   116  ASN116      0.2266
    168  O         50.3730  125.7650    0.3160 O.2   116  ASN116     -0.2867
    169  CB        47.9700  123.6210   -0.0960 C.3   116  ASN116      0.1155
    170  CG        48.4190  123.7020    1.3630 C.2   116  ASN116      0.2627
    171  OD1       48.0750  124.6360    2.0710 O.2   116  ASN116     -0.2716
    172  ND2       49.2620  122.7500    1.7590 N.am  116  ASN116     -0.0877
    173  N         46.5450  127.5200    1.3830 N.3   118  TYR118     -0.1241
    174  CA        45.1920  127.8550    1.9010 C.3   118  TYR118      0.1605
    175  C         45.1560  129.0760    2.7730 C.2   118  TYR118      0.2264
    176  O         44.2680  129.9080    2.6370 O.2   118  TYR118     -0.2867
    177  CB        44.5720  126.6780    2.5930 C.3   118  TYR118      0.0534
    178  CG        43.7360  125.7710    1.7750 C.ar  118  TYR118     -0.0201
    179  CD1       42.5140  126.1800    1.2790 C.ar  118  TYR118     -0.0009
    180  CD2       44.1120  124.4720    1.5090 C.ar  118  TYR118     -0.0009
    181  CE1       41.6810  125.3260    0.5470 C.ar  118  TYR118      0.0417
    182  CE2       43.2500  123.6000    0.8270 C.ar  118  TYR118      0.0417
    183  CZ        42.0360  124.0130    0.3790 C.ar  118  TYR118      0.1957
    184  OH        41.2790  123.1320   -0.3520 O.3   118  TYR118     -0.2866
    185  N         47.8020  112.4170    4.3750 N.3   327  TYR327     -0.1241
    186  CA        46.8230  113.2670    3.7680 C.3   327  TYR327      0.1605
    187  C         46.9200  113.1260    2.2610 C.2   327  TYR327      0.2264
    188  O         45.9940  112.6210    1.6070 O.2   327  TYR327     -0.2867
    189  CB        46.9300  114.6820    4.2840 C.3   327  TYR327      0.0534
    190  CG        45.9330  115.7110    3.8100 C.ar  327  TYR327     -0.0201
    191  CD1       44.9420  115.4270    2.8490 C.ar  327  TYR327     -0.0009
    192  CD2       45.9720  116.9910    4.3400 C.ar  327  TYR327     -0.0009
    193  CE1       44.0690  116.4280    2.4410 C.ar  327  TYR327      0.0417
    194  CE2       45.1190  117.9760    3.9270 C.ar  327  TYR327      0.0417
    195  CZ        44.1510  117.6890    2.9710 C.ar  327  TYR327      0.1957
    196  OH        43.3050  118.7250    2.6150 O.3   327  TYR327     -0.2866
    197  N         45.6510  110.0930    0.3260 N.3   330  LEU330     -0.1231
    198  CA        44.2050  109.9260    0.2380 C.3   330  LEU330      0.1693
    199  C         43.6830  110.7040   -0.9800 C.2   330  LEU330      0.2592
    200  O         42.7580  110.2570   -1.6590 O.2   330  LEU330     -0.2718
    201  CB        43.5910  110.4400    1.5600 C.3   330  LEU330      0.0284
    202  CG        42.0460  110.5230    1.6520 C.3   330  LEU330      0.0019
    203  CD1       41.5440  109.1290    1.4740 C.3   330  LEU330      0.0001
    204  CD2       41.5840  111.2340    2.9150 C.3   330  LEU330      0.0001
    205  N         44.2880  111.8320   -1.2590 N.am  331  THR331     -0.1953
    206  CA        43.8300  112.6660   -2.3670 C.3   331  THR331      0.1897
    207  C         44.0780  112.0220   -3.6570 C.2   331  THR331      0.2313
    208  O         43.3510  112.3120   -4.6110 O.2   331  THR331     -0.2863
    209  CB        44.4100  114.1180   -2.3260 C.3   331  THR331      0.1794
    210  OG1       45.7550  114.2230   -2.8000 O.3   331  THR331     -0.2208
    211  CG2       44.2900  114.7230   -0.9320 C.3   331  THR331      0.0378
    212  N         42.3420  107.6960   -2.8610 N.3   334  GLY334     -0.1210
    213  CA        41.0430  107.5590   -2.2660 C.3   334  GLY334      0.1940
    214  C         41.0200  106.7500   -0.9880 C.2   334  GLY334      0.2453
    215  O         42.0460  106.2510   -0.5180 O.2   334  GLY334     -0.2732
    216  N         39.8110  106.5960   -0.4400 N.am  335  PRO335     -0.2728
    217  CA        39.6290  105.9150    0.8380 C.3   335  PRO335      0.1401
    218  C         40.2930  104.5470    0.9710 C.2   335  PRO335      0.2269
    219  O         40.7650  104.2130    2.0770 O.2   335  PRO335     -0.2865
    220  CB        38.0880  105.8760    0.9710 C.3   335  PRO335      0.0296
    221  CG        37.6580  107.1290    0.3020 C.3   335  PRO335      0.0237
    222  CD        38.5540  107.1930   -0.9100 C.3   335  PRO335      0.0939
@<TRIPOS>BOND
     1    37    38    1
     2    29    30    1
     3    13    14    1
     4    31    32    2
     5    31    30    1
     6    30    33    1
     7    38    39    1
     8    38    41    1
     9    16    15    2
    10    39    40    2
    11    14    15    1
    12    14    17    1
    13    24    23    2
    14    23    22    1
    15    15    21   am
    16   156   155    1
    17   150   149    2
    18    36    34    1
    19    44    42    1
    20    33    34    1
    21    41    42    1
    22    42    43    1
    23    20    18    1
    24    21    22    1
    25    34    35    1
    26    17    18    1
    27    22    25    1
    28   155   157    1
    29   155   154    2
    30   149   148    1
    31    18    19    1
    32   153   154    1
    33   153   152    1
    34   151   148    1
    35   151   152    1
    36    51    45    2
    37    51    50    1
    38     4     3    2
    39   148   147    1
    40    25    26    1
    41     3     2    1
    42    45    46    1
    43     1     2    1
    44    50    49    2
    45     2     5    1
    46    26    27    1
    47    46    49    1
    48    46    47    1
    49   143   142    2
    50    74    72    1
    51    56    53    1
    52    27    28    1
    53     5     6    1
    54   142   141    1
    55    52    53    1
    56    47    48    2
    57     6     7   ar
    58     6     8   ar
    59    53    54    1
    60     7     9   ar
    61   208   207    2
    62     8    10   ar
    63     9    11   ar
    64    72    73    1
    65    72    71    1
    66   140   141    1
    67   141   144    1
    68    10    11   ar
    69    11    12    1
    70   158   159    1
    71   159   160    1
    72   159   162    1
    73   207   206    1
    74    71    68    1
    75   164   162    1
    76   144   145    1
    77   144   146    1
    78    90    88   ar
    79    90    89   ar
    80    54    55    2
    81    54    57   am
    82   160   161    2
    83    88    86   ar
    84    89    87   ar
    85   162   163    1
    86   212   213    1
    87   210   209    1
    88    57    58    1
    89   206   209    1
    90   206   205    1
    91   209   211    1
    92   213   214    1
    93    68    67    1
    94    68    69    1
    95    87    85   ar
    96    86    85   ar
    97   200   199    2
    98   165   166    1
    99    58    61    1
   100    58    59    1
   101    69    75   am
   102    69    70    2
   103   205   199   am
   104    85    84    1
   105    75    76    1
   106   166   167    1
   107   166   169    1
   108   214   215    2
   109   214   216   am
   110   199   198    1
   111    61    62    1
   112   222   216    1
   113   222   221    1
   114   118   119    1
   115   118   115    1
   116    59    60    2
   117   216   217    1
   118    79    76    1
   119   184   183    1
   120   167   168    2
   121   119   120    1
   122    76    77    1
   123   169   170    1
   124    84    81    1
   125   120   114    1
   126   115   114    1
   127   115   116    1
   128   198   197    1
   129   198   201    1
   130   104   103    1
   131   221   220    1
   132   183   181   ar
   133   183   182   ar
   134   114   108   am
   135   181   179   ar
   136    62    63    1
   137    62    64    1
   138   101   100    2
   139   182   180   ar
   140   217   220    1
   141   217   218    1
   142   102   103    1
   143   102    99    1
   144   218   219    2
   145    63    65    1
   146   105   103    1
   147    77    78    2
   148    81    80    1
   149    81    82    1
   150   108   109    2
   151   108   107    1
   152   179   178   ar
   153   170   172   am
   154   170   171    2
   155   100    99    1
   156   100   106   am
   157   173   174    1
   158   203   202    1
   159   116   117    2
   160   180   178   ar
   161    64    66    1
   162   201   202    1
   163   188   187    2
   164   202   204    1
   165   107   106    1
   166   107   110    1
   167   178   177    1
   168    99    98    1
   169   174   177    1
   170   174   175    1
   171   187   186    1
   172    65    66    1
   173   193   191   ar
   174   193   195   ar
   175    82    83    2
   176    82    91   am
   177   129   131   ar
   178   129   127   ar
   179   196   195    1
   180   176   175    2
   181   191   190   ar
   182   113   111    1
   183   195   194   ar
   184    91    92    1
   185   110   111    1
   186   131   130   ar
   187   127   126   ar
   188    96    95    1
   189   186   189    1
   190   186   185    1
   191   111   112    1
   192   190   189    1
   193   190   192   ar
   194   139   138    1
   195   194   192   ar
   196   138   137    1
   197    92    95    1
   198    92    93    1
   199    95    97    1
   200   130   128   ar
   201   126   128   ar
   202   126   125    1
   203   137   136    1
   204   124   123    2
   205    93    94    2
   206   125   122    1
   207   122   123    1
   208   122   121    1
   209   136   133    1
   210   135   134    2
   211   133   134    1
   212   133   132    1
