@<TRIPOS>MOLECULE
tmp/6et5Y02.pdb
 86 83 0 0 0
SMALL
GASTEIGER

@<TRIPOS>ATOM
      1  N        115.7910  136.2830   71.0870 N.3    12  GLU12      -0.1245
      2  CA       117.1940  136.4420   70.7520 C.3    12  GLU12       0.1567
      3  C        117.3010  136.2610   69.2130 C.2    12  GLU12       0.2260
      4  O        117.2090  135.1410   68.6990 O.2    12  GLU12      -0.2867
      5  CB       118.0650  135.4880   71.5860 C.3    12  GLU12       0.0388
      6  CG       119.5280  135.3730   71.1480 C.3    12  GLU12       0.1160
      7  CD       120.3630  136.6330   71.3380 C.2    12  GLU12       0.3649
      8  OE1      120.6680  136.9800   72.4940 O.co2  12  GLU12      -0.2457
      9  OE2      120.7470  137.2550   70.3290 O.co2  12  GLU12      -0.2457
     10  N        121.5950  137.4570   66.2140 N.3    15  ALA15      -0.1245
     11  CA       122.6450  138.3000   66.8150 C.3    15  ALA15       0.1562
     12  C        123.8650  137.4010   67.1510 C.2    15  ALA15       0.2260
     13  O        123.8720  136.5330   68.0490 O.2    15  ALA15      -0.2867
     14  CB       122.1280  139.0940   68.0270 C.3    15  ALA15       0.0290
     15  N        126.3720  139.3740   66.1610 N.3    17  GLU17      -0.1231
     16  CA       127.0340  140.6020   66.4710 C.3    17  GLU17       0.1699
     17  C        127.7090  140.3310   67.8080 C.2    17  GLU17       0.2592
     18  O        128.9190  140.5580   67.9360 O.2    17  GLU17      -0.2718
     19  CB       125.9910  141.7020   66.5590 C.3    17  GLU17       0.0402
     20  CG       125.1890  141.8280   65.2690 C.3    17  GLU17       0.1161
     21  CD       123.7230  142.1600   65.4790 C.2    17  GLU17       0.3649
     22  OE1      123.1850  141.9160   66.5800 O.co2  17  GLU17      -0.2457
     23  OE2      123.1030  142.6700   64.5210 O.co2  17  GLU17      -0.2457
     24  N        126.9390  139.7890   68.7660 N.am   18  PHE18      -0.1976
     25  CA       127.4790  139.2930   70.0350 C.3    18  PHE18       0.1639
     26  C        128.7060  138.4180   69.8600 C.2    18  PHE18       0.2290
     27  O        129.7150  138.6450   70.5240 O.2    18  PHE18      -0.2864
     28  CB       126.4430  138.5100   70.8370 C.3    18  PHE18       0.0560
     29  CG       126.9780  137.9590   72.1460 C.ar   18  PHE18      -0.0200
     30  CD1      127.5980  136.7050   72.2010 C.ar   18  PHE18      -0.0042
     31  CD2      126.8630  138.6940   73.3340 C.ar   18  PHE18      -0.0042
     32  CE1      128.0910  136.2030   73.4050 C.ar   18  PHE18      -0.0003
     33  CE2      127.3680  138.2010   74.5370 C.ar   18  PHE18      -0.0003
     34  CZ       127.9830  136.9520   74.5710 C.ar   18  PHE18      -0.0000
     35  N        132.0830  140.3140   68.8430 N.3    21  ILE21      -0.1231
     36  CA       132.6840  140.9990   69.9840 C.3    21  ILE21       0.1692
     37  C        133.1920  139.9810   70.9660 C.2    21  ILE21       0.2592
     38  O        134.3570  140.0570   71.3740 O.2    21  ILE21      -0.2718
     39  CB       131.6690  141.8850   70.7100 C.3    21  ILE21       0.0266
     40  CG1      131.1600  142.9560   69.7630 C.3    21  ILE21       0.0019
     41  CG2      132.2990  142.5370   71.9290 C.3    21  ILE21       0.0020
     42  CD1      129.7340  143.3720   70.0340 C.3    21  ILE21       0.0001
     43  N        132.3290  139.0250   71.3290 N.am   22  PHE22      -0.1976
     44  CA       132.6740  138.0650   72.3670 C.3    22  PHE22       0.1639
     45  C        134.0450  137.4520   72.0960 C.2    22  PHE22       0.2290
     46  O        134.9070  137.3950   72.9800 O.2    22  PHE22      -0.2864
     47  CB       131.6420  136.9540   72.5470 C.3    22  PHE22       0.0560
     48  CG       132.0800  135.9280   73.5420 C.ar   22  PHE22      -0.0200
     49  CD1      133.0580  134.9800   73.2100 C.ar   22  PHE22      -0.0042
     50  CD2      131.5720  135.9400   74.8380 C.ar   22  PHE22      -0.0042
     51  CE1      133.5070  134.0680   74.1560 C.ar   22  PHE22      -0.0003
     52  CE2      132.0140  135.0210   75.7900 C.ar   22  PHE22      -0.0003
     53  CZ       132.9800  134.0800   75.4480 C.ar   22  PHE22      -0.0000
     54  N        137.1500  140.1330   72.2240 N.3    25  SER25      -0.1202
     55  CA       137.5290  140.4360   73.5650 C.3    25  SER25       0.2020
     56  C        138.1650  139.2490   74.2670 C.2    25  SER25       0.2619
     57  O        139.1230  139.4340   75.0200 O.2    25  SER25      -0.2717
     58  CB       136.3460  141.0030   74.3450 C.3    25  SER25       0.2103
     59  OG       135.2940  140.0740   74.4890 O.3    25  SER25      -0.2182
     60  N        137.6780  138.0340   74.0050 N.am   26  THR26      -0.1952
     61  CA       138.3240  136.8610   74.6030 C.3    26  THR26       0.1897
     62  C        139.7320  136.6110   74.0680 C.2    26  THR26       0.2313
     63  O        140.5730  136.0540   74.7660 O.2    26  THR26      -0.2863
     64  CB       137.4810  135.5640   74.5960 C.3    26  THR26       0.1794
     65  OG1      138.2890  134.4740   75.0630 O.3    26  THR26      -0.2208
     66  CG2      137.0430  135.2000   73.2510 C.3    26  THR26       0.0378
     67  N        142.0420  139.5940   75.7710 N.3    29  TYR29      -0.1227
     68  CA       142.3280  139.1390   77.1060 C.3    29  TYR29       0.1736
     69  C        143.4790  138.1240   77.1620 C.2    29  TYR29       0.2595
     70  O        144.4090  138.2500   77.9600 O.2    29  TYR29      -0.2718
     71  CB       141.0740  138.5320   77.7000 C.3    29  TYR29       0.0548
     72  CG       141.2870  137.9970   79.0820 C.ar   29  TYR29      -0.0200
     73  CD1      141.7020  138.8410   80.1240 C.ar   29  TYR29      -0.0009
     74  CD2      141.0870  136.6410   79.3560 C.ar   29  TYR29      -0.0009
     75  CE1      141.9100  138.3480   81.3980 C.ar   29  TYR29       0.0417
     76  CE2      141.2710  136.1370   80.6340 C.ar   29  TYR29       0.0417
     77  CZ       141.6850  136.9930   81.6480 C.ar   29  TYR29       0.1957
     78  OH       141.8760  136.4900   82.9110 O.3    29  TYR29      -0.2866
     79  N        143.4000  137.1270   76.2990 N.am   30  LEU30      -0.1980
     80  CA       144.4050  136.0950   76.2400 C.3    30  LEU30       0.1596
     81  C        145.7430  136.5960   75.7470 C.2    30  LEU30       0.2287
     82  O        146.7940  136.1810   76.2420 O.2    30  LEU30      -0.2864
     83  CB       143.9160  134.9650   75.3560 C.3    30  LEU30       0.0297
     84  CG       142.8740  134.0900   76.0290 C.3    30  LEU30       0.0022
     85  CD1      142.5980  132.8670   75.1650 C.3    30  LEU30       0.0001
     86  CD2      143.3410  133.7190   77.4310 C.3    30  LEU30       0.0001
@<TRIPOS>BOND
     1    23    21   ar
     2    20    21    1
     3    20    19    1
     4    21    22   ar
     5    15    16    1
     6    10    11    1
     7    16    19    1
     8    16    17    1
     9    11    12    1
    10    11    14    1
    11    12    13    2
    12    17    18    2
    13    17    24   am
    14     4     3    2
    15    24    25    1
    16    35    36    1
    17     3     2    1
    18    40    42    1
    19    40    39    1
    20    26    25    1
    21    26    27    2
    22    36    39    1
    23    36    37    1
    24    25    28    1
    25     9     7   ar
    26    39    41    1
    27     2     1    1
    28     2     5    1
    29    28    29    1
    30    37    43   am
    31    37    38    2
    32     6     7    1
    33     6     5    1
    34    43    44    1
    35     7     8   ar
    36    45    44    1
    37    45    46    2
    38    29    30   ar
    39    29    31   ar
    40    30    32   ar
    41    54    55    1
    42    44    47    1
    43    47    48    1
    44    49    48   ar
    45    49    51   ar
    46    66    64    1
    47    31    33   ar
    48    32    34   ar
    49    48    50   ar
    50    55    56    1
    51    55    58    1
    52    60    56   am
    53    60    61    1
    54    62    61    1
    55    62    63    2
    56    51    53   ar
    57    56    57    2
    58    58    59    1
    59    33    34   ar
    60    64    61    1
    61    64    65    1
    62    50    52   ar
    63    85    84    1
    64    83    84    1
    65    83    80    1
    66    53    52   ar
    67    81    80    1
    68    81    82    2
    69    67    68    1
    70    84    86    1
    71    80    79    1
    72    79    69   am
    73    68    69    1
    74    68    71    1
    75    69    70    2
    76    71    72    1
    77    72    74   ar
    78    72    73   ar
    79    74    76   ar
    80    73    75   ar
    81    76    77   ar
    82    75    77   ar
    83    77    78    1
