@<TRIPOS>MOLECULE
tmp/6et5S00.pdb
 86 81 0 0 0
SMALL
GASTEIGER

@<TRIPOS>ATOM
      1  N         80.7800   95.5580  138.5450 N.3    11  LEU11      -0.1231
      2  CA        82.0650   96.2060  138.3010 C.3    11  LEU11       0.1693
      3  C         82.5110   96.0020  136.8770 C.2    11  LEU11       0.2592
      4  O         82.9760   96.9220  136.2210 O.2    11  LEU11      -0.2718
      5  CB        83.1350   95.6450  139.2360 C.3    11  LEU11       0.0284
      6  CG        84.5090   96.3150  139.1690 C.3    11  LEU11       0.0019
      7  CD1       84.4230   97.8090  139.4740 C.3    11  LEU11       0.0001
      8  CD2       85.4730   95.6040  140.1080 C.3    11  LEU11       0.0001
      9  N         82.3350   94.7760  136.4170 N.am   12  TRP12      -0.1976
     10  CA        82.7620   94.3610  135.1040 C.3    12  TRP12       0.1640
     11  C         81.9770   95.0400  134.0050 C.2    12  TRP12       0.2290
     12  O         82.4350   95.1220  132.8630 O.2    12  TRP12      -0.2864
     13  CB        82.7160   92.8390  135.0390 C.3    12  TRP12       0.0576
     14  CG        83.6310   92.2690  136.0990 C.ar   12  TRP12       0.0006
     15  CD1       83.3390   91.2990  137.0140 C.ar   12  TRP12       0.0946
     16  CD2       84.9740   92.6930  136.3800 C.ar   12  TRP12       0.0152
     17  NE1       84.4220   91.0700  137.8270 N.ar   12  TRP12      -0.2442
     18  CE2       85.4380   91.9110  137.4640 C.ar   12  TRP12       0.0810
     19  CE3       85.8380   93.6510  135.8070 C.ar   12  TRP12       0.0012
     20  CZ2       86.7220   92.0510  137.9880 C.ar   12  TRP12       0.0191
     21  CZ3       87.1060   93.7930  136.3290 C.ar   12  TRP12       0.0001
     22  CH2       87.5410   92.9950  137.4100 C.ar   12  TRP12       0.0015
     23  N         83.7990   98.5770  134.1030 N.3    15  LEU15      -0.1245
     24  CA        85.2770   98.6510  134.1190 C.3    15  LEU15       0.1561
     25  C         86.0970   98.0750  132.9590 C.2    15  LEU15       0.2260
     26  O         87.0490   98.7250  132.5110 O.2    15  LEU15      -0.2867
     27  CB        85.8120   98.1200  135.4590 C.3    15  LEU15       0.0270
     28  CG        86.9880   98.8810  136.0900 C.3    15  LEU15       0.0019
     29  CD1       86.8340  100.3970  136.0420 C.3    15  LEU15       0.0001
     30  CD2       87.2130   98.4490  137.5280 C.3    15  LEU15       0.0001
     31  N         91.8480   95.6530  133.1650 N.3    20  VAL20      -0.1245
     32  CA        92.2110   95.2400  134.5070 C.3    20  VAL20       0.1561
     33  C         93.2900   94.1700  134.4540 C.2    20  VAL20       0.2260
     34  O         94.3480   94.2760  135.0970 O.2    20  VAL20      -0.2867
     35  CB        90.9560   94.7450  135.2530 C.3    20  VAL20       0.0252
     36  CG1       91.2770   93.6940  136.3250 C.3    20  VAL20       0.0019
     37  CG2       90.2310   95.9460  135.8320 C.3    20  VAL20       0.0019
     38  N         96.6330   95.1960  133.3770 N.3    23  ALA23      -0.1231
     39  CA        97.3000   96.1200  134.2580 C.3    23  ALA23       0.1694
     40  C         97.8300   95.3790  135.4470 C.2    23  ALA23       0.2591
     41  O         99.0190   95.4860  135.7520 O.2    23  ALA23      -0.2718
     42  CB        96.3610   97.2050  134.7010 C.3    23  ALA23       0.0304
     43  N         96.9520   94.6300  136.1130 N.am   24  LEU24      -0.1980
     44  CA        97.3770   93.7870  137.2020 C.3    24  LEU24       0.1596
     45  C         98.6410   93.0400  136.8130 C.2    24  LEU24       0.2287
     46  O         99.6550   93.1160  137.5250 O.2    24  LEU24      -0.2864
     47  CB        96.2980   92.7760  137.5330 C.3    24  LEU24       0.0297
     48  CG        95.4460   92.9480  138.7740 C.3    24  LEU24       0.0022
     49  CD1       94.4460   91.8100  138.7520 C.3    24  LEU24       0.0001
     50  CD2       96.2570   92.9100  140.0610 C.3    24  LEU24       0.0001
     51  N        101.5860   95.3150  136.9180 N.3    27  TYR27      -0.1241
     52  CA       101.8030   95.8430  138.2420 C.3    27  TYR27       0.1605
     53  C        102.4720   94.7590  139.0920 C.2    27  TYR27       0.2264
     54  O        103.5770   94.9520  139.6230 O.2    27  TYR27      -0.2867
     55  CB       100.4280   96.2500  138.8040 C.3    27  TYR27       0.0534
     56  CG       100.4060   96.8100  140.2050 C.ar   27  TYR27      -0.0201
     57  CD1      100.7870   98.1370  140.4590 C.ar   27  TYR27      -0.0009
     58  CD2       99.9800   96.0220  141.2850 C.ar   27  TYR27      -0.0009
     59  CE1      100.7670   98.6570  141.7530 C.ar   27  TYR27       0.0417
     60  CE2       99.9610   96.5330  142.5840 C.ar   27  TYR27       0.0417
     61  CZ       100.3510   97.8490  142.8140 C.ar   27  TYR27       0.1957
     62  OH       100.3250   98.3590  144.0940 O.3    27  TYR27      -0.2866
     63  N        106.2280   94.7400  140.9510 N.3    31  ILE31      -0.1245
     64  CA       106.4090   94.5590  142.3500 C.3    31  ILE31       0.1561
     65  C        107.2750   93.3160  142.5950 C.2    31  ILE31       0.2260
     66  O        108.2820   93.3790  143.2960 O.2    31  ILE31      -0.2867
     67  CB       105.0610   94.5650  143.0540 C.3    31  ILE31       0.0252
     68  CG1      104.4620   95.9500  142.9150 C.3    31  ILE31       0.0019
     69  CG2      105.2090   94.4140  144.5360 C.3    31  ILE31       0.0019
     70  CD1      103.0230   96.0220  143.3370 C.3    31  ILE31       0.0001
     71  N        110.8030   93.3180  144.7320 N.3    35  ILE35      -0.1245
     72  CA       111.1520   92.5130  145.8530 C.3    35  ILE35       0.1561
     73  C        112.3500   91.6060  145.5790 C.2    35  ILE35       0.2260
     74  O        113.3580   91.6640  146.3360 O.2    35  ILE35      -0.2867
     75  CB       109.9430   91.7310  146.3010 C.3    35  ILE35       0.0252
     76  CG1      108.9070   92.7410  146.7570 C.3    35  ILE35       0.0019
     77  CG2      110.3070   90.7750  147.4250 C.3    35  ILE35       0.0019
     78  CD1      107.5010   92.2110  146.6850 C.3    35  ILE35       0.0001
     79  N        115.7840   92.0470  147.5780 N.3    39  LEU39      -0.1245
     80  CA       116.3900   91.0710  148.4100 C.3    39  LEU39       0.1561
     81  C        117.7920   90.7970  147.9120 C.2    39  LEU39       0.2260
     82  O        118.7270   90.8180  148.7210 O.2    39  LEU39      -0.2867
     83  CB       115.5430   89.8280  148.4720 C.3    39  LEU39       0.0270
     84  CG       114.3450   90.2070  149.3070 C.3    39  LEU39       0.0019
     85  CD1      113.3050   89.1330  149.1590 C.3    39  LEU39       0.0001
     86  CD2      114.7440   90.3760  150.7600 C.3    39  LEU39       0.0001
@<TRIPOS>BOND
     1    26    25    2
     2    12    11    2
     3    25    24    1
     4    31    32    1
     5    38    39    1
     6    11    10    1
     7    23    24    1
     8    24    27    1
     9    39    42    1
    10    39    40    1
    11    33    32    1
    12    33    34    2
    13    32    35    1
    14    13    10    1
    15    13    14    1
    16    10     9    1
    17    35    37    1
    18    35    36    1
    19    40    41    2
    20    40    43   am
    21    27    28    1
    22    19    21   ar
    23    19    16   ar
    24    29    28    1
    25    28    30    1
    26    14    16   ar
    27    14    15   ar
    28    43    44    1
    29     4     3    2
    30    21    22   ar
    31    16    18   ar
    32     9     3   am
    33    45    44    1
    34    45    46    2
    35     3     2    1
    36    51    52    1
    37    15    17   ar
    38    44    47    1
    39    22    20   ar
    40    18    17   ar
    41    18    20   ar
    42    47    48    1
    43    52    55    1
    44    52    53    1
    45     2     1    1
    46     2     5    1
    47    49    48    1
    48    48    50    1
    49    55    56    1
    50    53    54    2
    51     6     5    1
    52     6     7    1
    53     6     8    1
    54    56    57   ar
    55    56    58   ar
    56    57    59   ar
    57    63    64    1
    58    58    60   ar
    59    59    61   ar
    60    64    65    1
    61    64    67    1
    62    60    61   ar
    63    65    66    2
    64    61    62    1
    65    68    67    1
    66    68    70    1
    67    67    69    1
    68    71    72    1
    69    73    72    1
    70    73    74    2
    71    72    75    1
    72    75    76    1
    73    75    77    1
    74    78    76    1
    75    79    80    1
    76    81    80    1
    77    81    82    2
    78    80    83    1
    79    83    84    1
    80    85    84    1
    81    84    86    1
