@<TRIPOS>MOLECULE
tmp/6et5Z01.pdb
 110 107 0 0 0
SMALL
GASTEIGER

@<TRIPOS>ATOM
      1  N        125.5370  153.2660   77.3970 N.3    19  HIS19      -0.1241
      2  CA       126.7650  152.5960   76.9780 C.3    19  HIS19       0.1621
      3  C        127.8840  153.6100   76.8190 C.2    19  HIS19       0.2264
      4  O        129.0180  153.3530   77.2210 O.2    19  HIS19      -0.2867
      5  CB       126.5200  151.8360   75.6790 C.3    19  HIS19       0.0745
      6  CG       127.7390  151.1900   75.0930 C.ar   19  HIS19       0.0817
      7  ND1      128.3640  150.1050   75.6730 N.ar   19  HIS19      -0.2268
      8  CD2      128.4170  151.4460   73.9470 C.ar   19  HIS19       0.1154
      9  CE1      129.3850  149.7330   74.9200 C.ar   19  HIS19       0.1986
     10  NE2      129.4340  150.5260   73.8630 N.ar   19  HIS19      -0.2212
     11  N        128.9970  154.7810   80.3450 N.3    22  PHE22      -0.1227
     12  CA       129.5450  153.6570   81.0770 C.3    22  PHE22       0.1736
     13  C        131.0060  153.3890   80.7050 C.2    22  PHE22       0.2595
     14  O        131.8570  153.1290   81.5600 O.2    22  PHE22      -0.2718
     15  CB       128.7110  152.3890   80.8900 C.3    22  PHE22       0.0547
     16  CG       129.2850  151.2080   81.6150 C.ar   22  PHE22      -0.0202
     17  CD1      130.3540  150.4720   81.0590 C.ar   22  PHE22      -0.0042
     18  CD2      128.8060  150.8560   82.8750 C.ar   22  PHE22      -0.0042
     19  CE1      130.9230  149.4110   81.7430 C.ar   22  PHE22      -0.0003
     20  CE2      129.3620  149.7880   83.5630 C.ar   22  PHE22      -0.0003
     21  CZ       130.4200  149.0640   82.9920 C.ar   22  PHE22      -0.0000
     22  N        131.2810  153.4560   79.4200 N.am   23  VAL23      -0.1980
     23  CA       132.5830  153.1350   78.9190 C.3    23  VAL23       0.1595
     24  C        133.5450  154.2520   79.2480 C.2    23  VAL23       0.2287
     25  O        134.6940  154.0040   79.6050 O.2    23  VAL23      -0.2864
     26  CB       132.4880  152.8510   77.4220 C.3    23  VAL23       0.0276
     27  CG1      133.8430  152.9430   76.7310 C.3    23  VAL23       0.0022
     28  CG2      131.8510  151.4810   77.2350 C.3    23  VAL23       0.0022
     29  N        134.4350  154.0240   82.7860 N.3    26  THR26      -0.1218
     30  CA       135.3280  152.8910   83.0400 C.3    26  THR26       0.1862
     31  C        136.7480  153.1780   82.6100 C.2    26  THR26       0.2287
     32  O        137.6790  152.7590   83.2680 O.2    26  THR26      -0.2866
     33  CB       134.8160  151.5100   82.5480 C.3    26  THR26       0.1770
     34  OG1      135.7040  150.4790   83.0080 O.3    26  THR26      -0.2211
     35  CG2      134.7160  151.4170   81.0590 C.3    26  THR26       0.0375
     36  N        138.3520  155.7070   85.2020 N.3    29  TYR29      -0.1227
     37  CA       138.6940  155.0000   86.3980 C.3    29  TYR29       0.1736
     38  C        139.9940  154.2290   86.2420 C.2    29  TYR29       0.2595
     39  O        140.8340  154.2440   87.1360 O.2    29  TYR29      -0.2718
     40  CB       137.5610  154.0660   86.7840 C.3    29  TYR29       0.0548
     41  CG       137.8920  153.2130   87.9680 C.ar   29  TYR29      -0.0200
     42  CD1      138.1110  153.7720   89.2340 C.ar   29  TYR29      -0.0009
     43  CD2      138.0280  151.8390   87.8210 C.ar   29  TYR29      -0.0009
     44  CE1      138.4260  152.9710   90.3230 C.ar   29  TYR29       0.0417
     45  CE2      138.3340  151.0230   88.9020 C.ar   29  TYR29       0.0417
     46  CZ       138.5290  151.5860   90.1480 C.ar   29  TYR29       0.1957
     47  OH       138.8430  150.7430   91.1870 O.3    29  TYR29      -0.2866
     48  N        140.1550  153.5600   85.1060 N.am   30  LEU30      -0.1980
     49  CA       141.3370  152.7410   84.8750 C.3    30  LEU30       0.1596
     50  C        142.5350  153.6180   84.5900 C.2    30  LEU30       0.2287
     51  O        143.6480  153.3400   85.0340 O.2    30  LEU30      -0.2864
     52  CB       141.1140  151.7330   83.7460 C.3    30  LEU30       0.0297
     53  CG       139.9910  150.7000   83.8760 C.3    30  LEU30       0.0022
     54  CD1      139.9250  149.8470   82.6280 C.3    30  LEU30       0.0001
     55  CD2      140.0640  149.8230   85.1170 C.3    30  LEU30       0.0001
     56  N        143.8060  155.0700   87.7350 N.3    33  ALA33      -0.1245
     57  CA       144.5170  154.0170   88.4480 C.3    33  ALA33       0.1562
     58  C        145.9730  153.8620   88.0420 C.2    33  ALA33       0.2260
     59  O        146.8630  153.5780   88.8700 O.2    33  ALA33      -0.2867
     60  CB       143.8020  152.6940   88.2430 C.3    33  ALA33       0.0290
     61  N        149.0570  154.5370   90.4230 N.3    37  HIS37      -0.1241
     62  CA       150.0420  153.4660   90.6150 C.3    37  HIS37       0.1621
     63  C        151.4250  153.9590   90.3470 C.2    37  HIS37       0.2264
     64  O        152.3550  153.5740   91.0540 O.2    37  HIS37      -0.2867
     65  CB       149.7510  152.2260   89.7910 C.3    37  HIS37       0.0745
     66  CG       148.8210  151.2820   90.4690 C.ar   37  HIS37       0.0817
     67  ND1      147.4520  151.4330   90.4190 N.ar   37  HIS37      -0.2268
     68  CD2      149.0510  150.1860   91.2340 C.ar   37  HIS37       0.1154
     69  CE1      146.8730  150.4570   91.1010 C.ar   37  HIS37       0.1986
     70  NE2      147.8220  149.6910   91.6140 N.ar   37  HIS37      -0.2212
     71  N        152.5610  155.9150   93.4190 N.3    40  VAL40      -0.1245
     72  CA       152.7810  155.1930   94.6340 C.3    40  VAL40       0.1561
     73  C        154.1330  154.5500   94.4920 C.2    40  VAL40       0.2260
     74  O        154.8810  154.4630   95.4660 O.2    40  VAL40      -0.2867
     75  CB       151.6850  154.1640   94.9040 C.3    40  VAL40       0.0252
     76  CG1      152.0120  153.3030   96.1200 C.3    40  VAL40       0.0019
     77  CG2      150.3820  154.8720   95.1690 C.3    40  VAL40       0.0019
     78  N        157.1660  154.0050   97.2440 N.3    44  ARG44      -0.1245
     79  CA       157.4670  152.6920   97.7680 C.3    44  ARG44       0.1563
     80  C        157.5250  151.8220   96.5130 C.2    44  ARG44       0.2260
     81  O        156.4870  151.3540   96.0240 O.2    44  ARG44      -0.2867
     82  CB       156.3020  152.1940   98.6130 C.3    44  ARG44       0.0307
     83  CG       156.0200  152.9250   99.8890 C.3    44  ARG44       0.0489
     84  CD       156.6990  152.1690  100.9980 C.3    44  ARG44       0.2205
     85  NE       156.6140  152.8370  102.2920 N.pl3  44  ARG44      -0.0865
     86  CZ       157.2390  153.9720  102.5950 C.cat  44  ARG44       0.5346
     87  NH1      157.9760  154.6090  101.6960 N.pl3  44  ARG44       0.1354
     88  NH2      157.1150  154.4800  103.8080 N.pl3  44  ARG44       0.1354
     89  N        157.5470  148.7660   94.7200 N.3    46  TRP46      -0.1227
     90  CA       157.1690  147.5570   95.3720 C.3    46  TRP46       0.1737
     91  C        157.7060  146.2740   94.8630 C.2    46  TRP46       0.2595
     92  O        157.9790  145.4330   95.7080 O.2    46  TRP46      -0.2718
     93  CB       155.6810  147.4640   95.6050 C.3    46  TRP46       0.0564
     94  CG       154.9240  147.3520   94.4470 C.ar   46  TRP46       0.0003
     95  CD1      154.6460  146.2280   93.7940 C.ar   46  TRP46       0.0946
     96  CD2      154.2830  148.4010   93.7630 C.ar   46  TRP46       0.0152
     97  NE1      153.8390  146.4870   92.7160 N.ar   46  TRP46      -0.2442
     98  CE2      153.6110  147.8270   92.6650 C.ar   46  TRP46       0.0810
     99  CE3      154.2170  149.7790   93.9550 C.ar   46  TRP46       0.0012
    100  CZ2      152.8820  148.5730   91.7500 C.ar   46  TRP46       0.0191
    101  CZ3      153.4830  150.5380   93.0450 C.ar   46  TRP46       0.0001
    102  CH2      152.8150  149.9280   91.9580 C.ar   46  TRP46       0.0015
    103  N        157.8600  146.0530   93.5540 N.am   47  ILE47      -0.1980
    104  CA       158.3070  144.6960   93.1910 C.3    47  ILE47       0.1595
    105  C        159.6820  144.2920   93.7950 C.2    47  ILE47       0.2287
    106  O        159.7930  143.1700   94.2930 O.2    47  ILE47      -0.2864
    107  CB       158.1330  144.1970   91.7060 C.3    47  ILE47       0.0276
    108  CG1      156.6850  144.0520   91.3020 C.3    47  ILE47       0.0022
    109  CG2      158.8940  142.9070   91.3840 C.3    47  ILE47       0.0022
    110  CD1      156.3820  143.8280   89.8330 C.3    47  ILE47       0.0001
@<TRIPOS>BOND
     1    10     8   ar
     2    10     9   ar
     3     8     6   ar
     4     9     7   ar
     5     6     7   ar
     6     6     5    1
     7     5     2    1
     8    27    26    1
     9     3     2    1
    10     3     4    2
    11     2     1    1
    12    28    26    1
    13    26    23    1
    14    23    24    1
    15    23    22    1
    16    24    25    2
    17    22    13   am
    18    11    12    1
    19    13    12    1
    20    13    14    2
    21    15    12    1
    22    15    16    1
    23    17    16   ar
    24    17    19   ar
    25    35    33    1
    26    16    18   ar
    27    19    21   ar
    28    33    34    1
    29    33    30    1
    30    31    30    1
    31    31    32    2
    32    54    53    1
    33    29    30    1
    34    18    20   ar
    35    21    20   ar
    36    52    53    1
    37    52    49    1
    38    53    55    1
    39    50    49    1
    40    50    51    2
    41    49    48    1
    42    48    38   am
    43    36    37    1
    44    38    37    1
    45    38    39    2
    46    37    40    1
    47    40    41    1
    48    56    57    1
    49    43    41   ar
    50    43    45   ar
    51    41    42   ar
    52    58    57    1
    53    58    59    2
    54    60    57    1
    55    45    46   ar
    56    42    44   ar
    57    65    66    1
    58    65    62    1
    59   110   108    1
    60    46    44   ar
    61    46    47    1
    62    63    62    1
    63    63    64    2
    64    67    66   ar
    65    67    69   ar
    66    61    62    1
    67    66    68   ar
    68    69    70   ar
    69    68    70   ar
    70   108   107    1
    71   109   107    1
    72   107   104    1
    73   100   102   ar
    74   100    98   ar
    75   102   101   ar
    76    98    97   ar
    77    98    96   ar
    78    97    95   ar
    79   101    99   ar
    80   104   103    1
    81   104   105    1
    82    71    72    1
    83   103    91   am
    84    96    99   ar
    85    96    94   ar
    86    95    94   ar
    87   105   106    2
    88    94    93    1
    89    73    72    1
    90    73    74    2
    91    72    75    1
    92    89    90    1
    93    91    90    1
    94    91    92    2
    95    75    77    1
    96    75    76    1
    97    90    93    1
    98    81    80    2
    99    80    79    1
   100    78    79    1
   101    79    82    1
   102    82    83    1
   103    83    84    1
   104    84    85    1
   105    87    86    1
   106    85    86    2
   107    86    88    1
