@<TRIPOS>MOLECULE
tmp/6et5M00.pdb
 97 92 0 0 0
SMALL
GASTEIGER

@<TRIPOS>ATOM
      1  N        105.1010  171.6520  112.6080 N.3    11  LEU11      -0.1231
      2  CA       105.7920  170.4090  112.8840 C.3    11  LEU11       0.1693
      3  C        104.8780  169.4340  113.5640 C.2    11  LEU11       0.2592
      4  O        104.9570  168.2330  113.3370 O.2    11  LEU11      -0.2718
      5  CB       107.0350  170.6260  113.7440 C.3    11  LEU11       0.0284
      6  CG       107.7700  169.3270  114.1320 C.3    11  LEU11       0.0019
      7  CD1      108.3720  168.6170  112.9230 C.3    11  LEU11       0.0001
      8  CD2      108.8260  169.5870  115.1900 C.3    11  LEU11       0.0001
      9  N        103.9980  169.9710  114.3880 N.am   12  TRP12      -0.1976
     10  CA       103.1430  169.1500  115.2050 C.3    12  TRP12       0.1640
     11  C        101.9800  168.6060  114.4190 C.2    12  TRP12       0.2290
     12  O        101.3230  167.6540  114.8620 O.2    12  TRP12      -0.2864
     13  CB       102.7020  169.9470  116.4120 C.3    12  TRP12       0.0576
     14  CG       103.8930  170.5220  117.0930 C.ar   12  TRP12       0.0006
     15  CD1      104.2060  171.8450  117.2440 C.ar   12  TRP12       0.0946
     16  CD2      104.9640  169.7880  117.6720 C.ar   12  TRP12       0.0152
     17  NE1      105.3940  171.9800  117.9090 N.ar   12  TRP12      -0.2442
     18  CE2      105.8870  170.7330  118.1820 C.ar   12  TRP12       0.0810
     19  CE3      105.2290  168.4220  117.8270 C.ar   12  TRP12       0.0012
     20  CZ2      107.0560  170.3570  118.8330 C.ar   12  TRP12       0.0191
     21  CZ3      106.3870  168.0500  118.4700 C.ar   12  TRP12       0.0001
     22  CH2      107.2930  169.0140  118.9650 C.ar   12  TRP12       0.0015
     23  N        104.2290  165.6400  113.0130 N.3    15  LEU15      -0.1245
     24  CA       105.0640  164.7680  113.8390 C.3    15  LEU15       0.1561
     25  C        104.3980  163.9020  114.8990 C.2    15  LEU15       0.2260
     26  O        104.8120  162.7560  115.0960 O.2    15  LEU15      -0.2867
     27  CB       106.1960  165.5750  114.4700 C.3    15  LEU15       0.0270
     28  CG       107.3860  164.7600  114.9680 C.3    15  LEU15       0.0019
     29  CD1      107.8470  163.7380  113.9380 C.3    15  LEU15       0.0001
     30  CD2      108.5220  165.6930  115.3330 C.3    15  LEU15       0.0001
     31  N        104.2020  161.1630  120.6360 N.3    19  ARG19      -0.1231
     32  CA       105.4430  160.4190  120.3970 C.3    19  ARG19       0.1694
     33  C        106.6170  161.2000  120.9260 C.2    19  ARG19       0.2591
     34  O        107.4460  160.6740  121.6490 O.2    19  ARG19      -0.2718
     35  CB       105.6900  160.0760  118.9070 C.3    19  ARG19       0.0321
     36  CG       104.9880  158.8270  118.3640 C.3    19  ARG19       0.0489
     37  CD       105.0730  157.5810  119.2580 C.3    19  ARG19       0.2205
     38  NE       103.7740  156.8850  119.3510 N.pl3  19  ARG19      -0.0865
     39  CZ       102.9600  156.8710  120.4170 C.cat  19  ARG19       0.5346
     40  NH1      101.8070  156.2130  120.3510 N.pl3  19  ARG19       0.1354
     41  NH2      103.2750  157.4980  121.5480 N.pl3  19  ARG19       0.1354
     42  N        106.6840  162.4640  120.5640 N.am   20  VAL20      -0.1980
     43  CA       107.8190  163.2730  120.9120 C.3    20  VAL20       0.1595
     44  C        107.9230  163.3210  122.4250 C.2    20  VAL20       0.2287
     45  O        108.9770  163.0260  123.0010 O.2    20  VAL20      -0.2864
     46  CB       107.6700  164.6670  120.2910 C.3    20  VAL20       0.0276
     47  CG1      108.6890  165.6440  120.8540 C.3    20  VAL20       0.0022
     48  CG2      107.8180  164.5530  118.7870 C.3    20  VAL20       0.0022
     49  N        109.0670  160.1600  124.0130 N.3    23  ALA23      -0.1231
     50  CA       110.3980  159.7600  123.6750 C.3    23  ALA23       0.1694
     51  C        111.3730  160.5550  124.5080 C.2    23  ALA23       0.2591
     52  O        112.2670  159.9820  125.1230 O.2    23  ALA23      -0.2718
     53  CB       110.6390  159.9970  122.2050 C.3    23  ALA23       0.0304
     54  N        111.1900  161.8720  124.5290 N.am   24  LEU24      -0.1980
     55  CA       112.0580  162.7260  125.2980 C.3    24  LEU24       0.1596
     56  C        112.0920  162.2630  126.7310 C.2    24  LEU24       0.2287
     57  O        113.1700  162.0900  127.3050 O.2    24  LEU24      -0.2864
     58  CB       111.5970  164.1680  125.2320 C.3    24  LEU24       0.0297
     59  CG       112.1940  164.9600  124.0800 C.3    24  LEU24       0.0022
     60  CD1      111.5190  166.3160  124.0850 C.3    24  LEU24       0.0001
     61  CD2      113.7080  165.1250  124.1720 C.3    24  LEU24       0.0001
     62  N        114.3090  159.1420  126.8330 N.3    27  TYR27      -0.1241
     63  CA       115.6270  159.5430  126.3980 C.3    27  TYR27       0.1605
     64  C        116.3610  160.2520  127.5270 C.2    27  TYR27       0.2264
     65  O        117.3950  159.7810  128.0300 O.2    27  TYR27      -0.2867
     66  CB       115.4870  160.4830  125.2040 C.3    27  TYR27       0.0534
     67  CG       116.8030  160.9320  124.6030 C.ar   27  TYR27      -0.0201
     68  CD1      117.5660  160.0620  123.8080 C.ar   27  TYR27      -0.0009
     69  CD2      117.2900  162.2390  124.8220 C.ar   27  TYR27      -0.0009
     70  CE1      118.7710  160.4820  123.2460 C.ar   27  TYR27       0.0417
     71  CE2      118.5020  162.6640  124.2710 C.ar   27  TYR27       0.0417
     72  CZ       119.2400  161.7850  123.4770 C.ar   27  TYR27       0.1957
     73  OH       120.4470  162.1850  122.9220 O.3    27  TYR27      -0.2866
     74  N        119.8710  159.1640  129.7740 N.3    31  ILE31      -0.1245
     75  CA       121.0740  159.9590  129.8210 C.3    31  ILE31       0.1561
     76  C        121.3520  160.3360  131.2920 C.2    31  ILE31       0.2260
     77  O        122.4690  160.1590  131.7980 O.2    31  ILE31      -0.2867
     78  CB       120.9480  161.1910  128.8880 C.3    31  ILE31       0.0252
     79  CG1      121.5540  160.9000  127.5370 C.3    31  ILE31       0.0019
     80  CG2      121.7630  162.3650  129.3590 C.3    31  ILE31       0.0019
     81  CD1      120.5410  160.3650  126.5760 C.3    31  ILE31       0.0001
     82  N        124.6180  159.5320  133.6270 N.3    35  ILE35      -0.1245
     83  CA       125.5100  160.5020  134.1710 C.3    35  ILE35       0.1561
     84  C        125.6540  160.3440  135.6620 C.2    35  ILE35       0.2260
     85  O        126.7900  160.2780  136.1770 O.2    35  ILE35      -0.2867
     86  CB       125.0990  161.9000  133.7980 C.3    35  ILE35       0.0252
     87  CG1      125.3240  162.0520  132.3160 C.3    35  ILE35       0.0019
     88  CG2      125.9710  162.9150  134.5250 C.3    35  ILE35       0.0019
     89  CD1      124.6990  163.3080  131.7910 C.3    35  ILE35       0.0001
     90  N        129.0600  158.9240  137.1250 N.3    39  LEU39      -0.1245
     91  CA       129.8300  159.7600  138.0020 C.3    39  LEU39       0.1561
     92  C        130.0630  159.0290  139.2880 C.2    39  LEU39       0.2260
     93  O        131.1870  158.9640  139.7810 O.2    39  LEU39      -0.2867
     94  CB       129.1100  161.0570  138.2790 C.3    39  LEU39       0.0270
     95  CG       129.4560  162.1160  137.2510 C.3    39  LEU39       0.0019
     96  CD1      128.5900  163.3100  137.5740 C.3    39  LEU39       0.0001
     97  CD2      130.9460  162.4990  137.2190 C.3    39  LEU39       0.0001
@<TRIPOS>BOND
     1     1     2    1
     2     2     3    1
     3     2     5    1
     4     7     6    1
     5    23    24    1
     6     4     3    2
     7     3     9   am
     8     5     6    1
     9    24    27    1
    10    24    25    1
    11    29    28    1
    12     6     8    1
    13     9    10    1
    14    11    12    2
    15    11    10    1
    16    27    28    1
    17    25    26    2
    18    28    30    1
    19    10    13    1
    20    13    14    1
    21    14    15   ar
    22    14    16   ar
    23    15    17   ar
    24    16    19   ar
    25    16    18   ar
    26    19    21   ar
    27    17    18   ar
    28    18    20   ar
    29    36    35    1
    30    36    37    1
    31    21    22   ar
    32    48    46    1
    33    20    22   ar
    34    35    32    1
    35    37    38    1
    36    38    39    2
    37    46    47    1
    38    46    43    1
    39    40    39    1
    40    32    31    1
    41    32    33    1
    42    39    41    1
    43    42    43    1
    44    42    33   am
    45    43    44    1
    46    33    34    2
    47    53    50    1
    48    44    45    2
    49    73    72    1
    50    70    72   ar
    51    70    68   ar
    52    72    71   ar
    53    50    49    1
    54    50    51    1
    55    68    67   ar
    56    59    60    1
    57    59    61    1
    58    59    58    1
    59    71    69   ar
    60    51    54   am
    61    51    52    2
    62    54    55    1
    63    67    69   ar
    64    67    66    1
    65    66    63    1
    66    58    55    1
    67    55    56    1
    68    63    62    1
    69    63    64    1
    70    81    79    1
    71    56    57    2
    72    64    65    2
    73    79    78    1
    74    78    80    1
    75    78    75    1
    76    74    75    1
    77    75    76    1
    78    76    77    2
    79    89    87    1
    80    87    86    1
    81    82    83    1
    82    86    83    1
    83    86    88    1
    84    83    84    1
    85    84    85    2
    86    90    91    1
    87    97    95    1
    88    95    96    1
    89    95    94    1
    90    91    94    1
    91    91    92    1
    92    92    93    2
