@<TRIPOS>MOLECULE
tmp/6et5Z02.pdb
 86 83 0 0 0
SMALL
GASTEIGER

@<TRIPOS>ATOM
      1  N        112.7980  149.7430   78.2420 N.3    12  GLU12      -0.1245
      2  CA       114.1500  150.3130   78.2000 C.3    12  GLU12       0.1567
      3  C        114.4250  150.5630   76.6960 C.2    12  GLU12       0.2260
      4  O        114.6320  149.6120   75.9360 O.2    12  GLU12      -0.2867
      5  CB       115.2030  149.4350   78.9150 C.3    12  GLU12       0.0388
      6  CG       116.6650  149.6800   78.5270 C.3    12  GLU12       0.1160
      7  CD       117.2890  150.9860   79.0280 C.2    12  GLU12       0.3649
      8  OE1      118.3700  150.9190   79.6540 O.co2  12  GLU12      -0.2457
      9  OE2      116.7450  152.0830   78.7700 O.co2  12  GLU12      -0.2457
     10  N        118.5850  152.9420   74.3140 N.3    15  ALA15      -0.1245
     11  CA       119.5020  153.8220   75.1050 C.3    15  ALA15       0.1562
     12  C        120.9160  153.1670   75.2290 C.2    15  ALA15       0.2260
     13  O        121.1760  152.1880   75.9610 O.2    15  ALA15      -0.2867
     14  CB       118.9140  154.2320   76.4750 C.3    15  ALA15       0.0290
     15  N        122.9400  155.7030   75.1350 N.3    17  GLU17      -0.1231
     16  CA       123.3560  156.8170   75.9380 C.3    17  GLU17       0.1699
     17  C        124.0660  156.2190   77.1380 C.2    17  GLU17       0.2592
     18  O        125.1670  156.6520   77.4680 O.2    17  GLU17      -0.2718
     19  CB       122.1430  157.6300   76.3530 C.3    17  GLU17       0.0402
     20  CG       121.5700  158.4550   75.2120 C.3    17  GLU17       0.1161
     21  CD       120.0600  158.3430   75.0790 C.2    17  GLU17       0.3649
     22  OE1      119.3680  158.1520   76.1050 O.co2  17  GLU17      -0.2457
     23  OE2      119.5680  158.4540   73.9360 O.co2  17  GLU17      -0.2457
     24  N        123.4710  155.1890   77.7440 N.am   18  PHE18      -0.1976
     25  CA       124.1030  154.5310   78.8710 C.3    18  PHE18       0.1639
     26  C        125.4740  153.9960   78.5080 C.2    18  PHE18       0.2290
     27  O        126.4440  154.2290   79.2340 O.2    18  PHE18      -0.2864
     28  CB       123.2350  153.4100   79.4590 C.3    18  PHE18       0.0560
     29  CG       123.8790  152.6900   80.6370 C.ar   18  PHE18      -0.0200
     30  CD1      123.8430  153.2340   81.9150 C.ar   18  PHE18      -0.0042
     31  CD2      124.5350  151.4660   80.4600 C.ar   18  PHE18      -0.0042
     32  CE1      124.4540  152.5880   82.9760 C.ar   18  PHE18      -0.0003
     33  CE2      125.1360  150.8060   81.5250 C.ar   18  PHE18      -0.0003
     34  CZ       125.1030  151.3730   82.7810 C.ar   18  PHE18      -0.0000
     35  N        128.3990  156.6470   78.3360 N.3    21  ILE21      -0.1231
     36  CA       128.9340  157.0870   79.6090 C.3    21  ILE21       0.1692
     37  C        129.6460  155.9420   80.3030 C.2    21  ILE21       0.2592
     38  O        130.7820  156.1070   80.7620 O.2    21  ILE21      -0.2718
     39  CB       127.8540  157.7170   80.5130 C.3    21  ILE21       0.0266
     40  CG1      127.4820  159.1080   80.0090 C.3    21  ILE21       0.0019
     41  CG2      128.3880  157.9520   81.9050 C.3    21  ILE21       0.0020
     42  CD1      126.1380  159.2050   79.3270 C.3    21  ILE21       0.0001
     43  N        128.9970  154.7810   80.3450 N.am   22  PHE22      -0.1976
     44  CA       129.5450  153.6570   81.0770 C.3    22  PHE22       0.1639
     45  C        131.0060  153.3890   80.7050 C.2    22  PHE22       0.2290
     46  O        131.8570  153.1290   81.5600 O.2    22  PHE22      -0.2864
     47  CB       128.7110  152.3890   80.8900 C.3    22  PHE22       0.0560
     48  CG       129.2850  151.2080   81.6150 C.ar   22  PHE22      -0.0200
     49  CD1      130.3540  150.4720   81.0590 C.ar   22  PHE22      -0.0042
     50  CD2      128.8060  150.8560   82.8750 C.ar   22  PHE22      -0.0042
     51  CE1      130.9230  149.4110   81.7430 C.ar   22  PHE22      -0.0003
     52  CE2      129.3620  149.7880   83.5630 C.ar   22  PHE22      -0.0003
     53  CZ       130.4200  149.0640   82.9920 C.ar   22  PHE22      -0.0000
     54  N        133.4270  156.4330   81.7750 N.3    25  SER25      -0.1202
     55  CA       133.7230  156.3320   83.1760 C.3    25  SER25       0.2020
     56  C        134.5910  155.1330   83.5060 C.2    25  SER25       0.2619
     57  O        135.4190  155.2170   84.4100 O.2    25  SER25      -0.2717
     58  CB       132.4540  156.3500   84.0230 C.3    25  SER25       0.2103
     59  OG       131.6310  155.2370   83.7760 O.3    25  SER25      -0.2182
     60  N        134.4350  154.0240   82.7860 N.am   26  THR26      -0.1952
     61  CA       135.3280  152.8910   83.0400 C.3    26  THR26       0.1897
     62  C        136.7480  153.1780   82.6100 C.2    26  THR26       0.2313
     63  O        137.6790  152.7590   83.2680 O.2    26  THR26      -0.2863
     64  CB       134.8160  151.5100   82.5480 C.3    26  THR26       0.1794
     65  OG1      135.7040  150.4790   83.0080 O.3    26  THR26      -0.2208
     66  CG2      134.7160  151.4170   81.0590 C.3    26  THR26       0.0378
     67  N        138.3520  155.7070   85.2020 N.3    29  TYR29      -0.1227
     68  CA       138.6940  155.0000   86.3980 C.3    29  TYR29       0.1736
     69  C        139.9940  154.2290   86.2420 C.2    29  TYR29       0.2595
     70  O        140.8340  154.2440   87.1360 O.2    29  TYR29      -0.2718
     71  CB       137.5610  154.0660   86.7840 C.3    29  TYR29       0.0548
     72  CG       137.8920  153.2130   87.9680 C.ar   29  TYR29      -0.0200
     73  CD1      138.1110  153.7720   89.2340 C.ar   29  TYR29      -0.0009
     74  CD2      138.0280  151.8390   87.8210 C.ar   29  TYR29      -0.0009
     75  CE1      138.4260  152.9710   90.3230 C.ar   29  TYR29       0.0417
     76  CE2      138.3340  151.0230   88.9020 C.ar   29  TYR29       0.0417
     77  CZ       138.5290  151.5860   90.1480 C.ar   29  TYR29       0.1957
     78  OH       138.8430  150.7430   91.1870 O.3    29  TYR29      -0.2866
     79  N        140.1550  153.5600   85.1060 N.am   30  LEU30      -0.1980
     80  CA       141.3370  152.7410   84.8750 C.3    30  LEU30       0.1596
     81  C        142.5350  153.6180   84.5900 C.2    30  LEU30       0.2287
     82  O        143.6480  153.3400   85.0340 O.2    30  LEU30      -0.2864
     83  CB       141.1140  151.7330   83.7460 C.3    30  LEU30       0.0297
     84  CG       139.9910  150.7000   83.8760 C.3    30  LEU30       0.0022
     85  CD1      139.9250  149.8470   82.6280 C.3    30  LEU30       0.0001
     86  CD2      140.0640  149.8230   85.1170 C.3    30  LEU30       0.0001
@<TRIPOS>BOND
     1    23    21   ar
     2    10    11    1
     3    21    20    1
     4    21    22   ar
     5    11    12    1
     6    11    14    1
     7    15    16    1
     8    20    19    1
     9    12    13    2
    10     4     3    2
    11    16    19    1
    12    16    17    1
    13     3     2    1
    14    17    18    2
    15    17    24   am
    16    24    25    1
    17     2     1    1
    18     2     5    1
    19    35    36    1
    20    26    25    1
    21    26    27    2
    22     6     5    1
    23     6     7    1
    24     9     7   ar
    25    25    28    1
    26     7     8   ar
    27    42    40    1
    28    28    29    1
    29    36    37    1
    30    36    39    1
    31    40    39    1
    32    37    43   am
    33    37    38    2
    34    43    44    1
    35    31    29   ar
    36    31    33   ar
    37    39    41    1
    38    29    30   ar
    39    45    44    1
    40    45    46    2
    41    47    44    1
    42    47    48    1
    43    49    48   ar
    44    49    51   ar
    45    66    64    1
    46    33    34   ar
    47    48    50   ar
    48    51    53   ar
    49    54    55    1
    50    30    32   ar
    51    64    65    1
    52    64    61    1
    53    62    61    1
    54    62    63    2
    55    85    84    1
    56    34    32   ar
    57    60    61    1
    58    60    56   am
    59    50    52   ar
    60    53    52   ar
    61    55    56    1
    62    55    58    1
    63    56    57    2
    64    83    84    1
    65    83    80    1
    66    59    58    1
    67    84    86    1
    68    81    80    1
    69    81    82    2
    70    80    79    1
    71    79    69   am
    72    67    68    1
    73    69    68    1
    74    69    70    2
    75    68    71    1
    76    71    72    1
    77    74    72   ar
    78    74    76   ar
    79    72    73   ar
    80    76    77   ar
    81    73    75   ar
    82    77    75   ar
    83    77    78    1
