@<TRIPOS>MOLECULE
tmp/6et5N04.pdb
 82 78 0 0 0
SMALL
GASTEIGER

@<TRIPOS>ATOM
      1  N         94.9620  160.9630  131.0380 N.3    17  PRO17      -0.2116
      2  CA        95.2310  160.8570  132.4500 C.3    17  PRO17       0.1372
      3  C         95.6510  159.4660  132.8630 C.2    17  PRO17       0.2244
      4  O         96.6980  159.3130  133.4950 O.2    17  PRO17      -0.2868
      5  CB        93.8700  161.1880  133.0850 C.3    17  PRO17       0.0268
      6  CG        92.9200  161.3820  131.9550 C.3    17  PRO17       0.0207
      7  CD        93.7910  161.8150  130.8330 C.3    17  PRO17       0.0892
      8  N         99.0700  158.9490  134.7600 N.3    21  LEU21      -0.1245
      9  CA        98.9820  158.5800  136.1490 C.3    21  LEU21       0.1561
     10  C         99.7050  157.2980  136.4010 C.2    21  LEU21       0.2260
     11  O        100.6180  157.2510  137.2190 O.2    21  LEU21      -0.2867
     12  CB        97.5360  158.5070  136.6240 C.3    21  LEU21       0.0270
     13  CG        97.3630  159.6450  137.6400 C.3    21  LEU21       0.0019
     14  CD1       97.4180  161.0290  136.9990 C.3    21  LEU21       0.0001
     15  CD2       96.1050  159.4940  138.4830 C.3    21  LEU21       0.0001
     16  N        103.6970  157.5510  135.6650 N.3    24  LEU24      -0.1231
     17  CA       104.3010  158.2820  136.7400 C.3    24  LEU24       0.1693
     18  C        104.4910  157.3830  137.9470 C.2    24  LEU24       0.2592
     19  O        105.5950  157.2980  138.5080 O.2    24  LEU24      -0.2718
     20  CB       103.4070  159.4320  137.1360 C.3    24  LEU24       0.0284
     21  CG       103.7510  160.8370  136.6910 C.3    24  LEU24       0.0019
     22  CD1      103.0740  161.7350  137.7120 C.3    24  LEU24       0.0001
     23  CD2      105.2540  161.1090  136.6300 C.3    24  LEU24       0.0001
     24  N        103.4080  156.6980  138.3160 N.am   25  PHE25      -0.1976
     25  CA       103.3500  155.9210  139.5360 C.3    25  PHE25       0.1639
     26  C        104.5100  154.9540  139.5630 C.2    25  PHE25       0.2290
     27  O        105.2590  154.8770  140.5340 O.2    25  PHE25      -0.2864
     28  CB       102.0150  155.2030  139.6140 C.3    25  PHE25       0.0560
     29  CG       101.8830  154.2710  140.7780 C.ar   25  PHE25      -0.0200
     30  CD1      101.6390  154.7640  142.0660 C.ar   25  PHE25      -0.0042
     31  CD2      101.9610  152.8850  140.5840 C.ar   25  PHE25      -0.0042
     32  CE1      101.5050  153.8960  143.1470 C.ar   25  PHE25      -0.0003
     33  CE2      101.8150  152.0120  141.6550 C.ar   25  PHE25      -0.0003
     34  CZ       101.5890  152.5210  142.9370 C.ar   25  PHE25      -0.0000
     35  N        107.2430  155.0080  137.3780 N.3    27  TYR27      -0.1227
     36  CA       108.4870  155.7100  137.1530 C.3    27  TYR27       0.1736
     37  C        109.0520  156.1500  138.4860 C.2    27  TYR27       0.2595
     38  O        110.1970  155.8320  138.8360 O.2    27  TYR27      -0.2718
     39  CB       108.2260  156.9200  136.2520 C.3    27  TYR27       0.0548
     40  CG       109.4190  157.8190  135.9610 C.ar   27  TYR27      -0.0200
     41  CD1      110.4060  157.4490  135.0160 C.ar   27  TYR27      -0.0009
     42  CD2      109.5530  159.0640  136.6070 C.ar   27  TYR27      -0.0009
     43  CE1      111.4930  158.2910  134.7400 C.ar   27  TYR27       0.0417
     44  CE2      110.6330  159.9130  136.3350 C.ar   27  TYR27       0.0417
     45  CZ       111.6050  159.5350  135.4030 C.ar   27  TYR27       0.1957
     46  OH       112.6800  160.3860  135.1540 O.3    27  TYR27      -0.2866
     47  N        108.2260  156.8490  139.2430 N.am   28  LEU28      -0.1980
     48  CA       108.6630  157.3800  140.5000 C.3    28  LEU28       0.1596
     49  C        109.1570  156.2900  141.4480 C.2    28  LEU28       0.2287
     50  O        110.2710  156.3570  141.9620 O.2    28  LEU28      -0.2864
     51  CB       107.5400  158.1980  141.0840 C.3    28  LEU28       0.0297
     52  CG       107.4590  159.4900  140.2810 C.3    28  LEU28       0.0022
     53  CD1      106.0620  160.0850  140.3370 C.3    28  LEU28       0.0001
     54  CD2      108.5270  160.4920  140.7080 C.3    28  LEU28       0.0001
     55  N        112.7270  155.1420  140.4980 N.3    31  ILE31      -0.1245
     56  CA       113.7120  156.0970  140.8940 C.3    31  ILE31       0.1561
     57  C        113.9050  156.0160  142.4170 C.2    31  ILE31       0.2260
     58  O        115.0350  155.9060  142.8980 O.2    31  ILE31      -0.2867
     59  CB       113.2890  157.4860  140.3840 C.3    31  ILE31       0.0252
     60  CG1      113.9460  157.7620  139.0660 C.3    31  ILE31       0.0019
     61  CG2      113.8150  158.5910  141.2380 C.3    31  ILE31       0.0019
     62  CD1      113.0480  157.4130  137.9320 C.3    31  ILE31       0.0001
     63  N        115.7960  152.9920  143.4570 N.3    34  LEU34      -0.1231
     64  CA       117.1760  153.1680  143.0440 C.3    34  LEU34       0.1693
     65  C        117.9670  153.9850  144.0160 C.2    34  LEU34       0.2591
     66  O        119.0180  153.5580  144.4680 O.2    34  LEU34      -0.2718
     67  CB       117.2170  153.9200  141.7360 C.3    34  LEU34       0.0284
     68  CG       117.0770  153.0990  140.4850 C.3    34  LEU34       0.0019
     69  CD1      116.7210  154.0260  139.3310 C.3    34  LEU34       0.0001
     70  CD2      118.4180  152.4390  140.2980 C.3    34  LEU34       0.0001
     71  N        117.4640  155.1690  144.3280 N.am   35  ILE35      -0.1980
     72  CA       118.1280  156.0110  145.2750 C.3    35  ILE35       0.1595
     73  C        118.2490  155.2990  146.6100 C.2    35  ILE35       0.2287
     74  O        119.3640  155.2250  147.1640 O.2    35  ILE35      -0.2864
     75  CB       117.3420  157.2880  145.5200 C.3    35  ILE35       0.0276
     76  CG1      117.3420  158.1390  144.2840 C.3    35  ILE35       0.0022
     77  CG2      117.9370  158.0950  146.6670 C.3    35  ILE35       0.0022
     78  CD1      116.2690  159.1870  144.4020 C.3    35  ILE35       0.0001
     79  N        120.6610  152.3350  146.4310 N.3    38  GLY38      -0.1225
     80  CA       121.9420  152.9280  146.1070 C.3    38  GLY38       0.1811
     81  C        122.5850  153.5230  147.3220 C.2    38  GLY38       0.2280
     82  O        123.7780  153.3490  147.5360 O.2    38  GLY38      -0.2866
@<TRIPOS>BOND
     1     7     1    1
     2     7     6    1
     3     1     2    1
     4     6     5    1
     5     2     3    1
     6     2     5    1
     7     3     4    2
     8    43    41   ar
     9    43    45   ar
    10     8     9    1
    11    41    40   ar
    12    46    45    1
    13    45    44   ar
    14    16    17    1
    15    40    39    1
    16    40    42   ar
    17     9    10    1
    18     9    12    1
    19    39    36    1
    20    44    42   ar
    21    10    11    2
    22    12    13    1
    23    23    21    1
    24    21    20    1
    25    21    22    1
    26    17    20    1
    27    17    18    1
    28    14    13    1
    29    36    35    1
    30    36    37    1
    31    13    15    1
    32    62    60    1
    33    18    24   am
    34    18    19    2
    35    24    25    1
    36    37    38    2
    37    37    47   am
    38    60    59    1
    39    47    48    1
    40    69    68    1
    41    25    26    1
    42    25    28    1
    43    26    27    2
    44    28    29    1
    45    52    53    1
    46    52    54    1
    47    52    51    1
    48    70    68    1
    49    59    56    1
    50    59    61    1
    51    68    67    1
    52    55    56    1
    53    48    51    1
    54    48    49    1
    55    31    29   ar
    56    31    33   ar
    57    29    30   ar
    58    56    57    1
    59    49    50    2
    60    33    34   ar
    61    67    64    1
    62    30    32   ar
    63    57    58    2
    64    34    32   ar
    65    64    63    1
    66    64    65    1
    67    65    71   am
    68    65    66    2
    69    76    78    1
    70    76    75    1
    71    71    72    1
    72    72    75    1
    73    72    73    1
    74    75    77    1
    75    80    79    1
    76    80    81    1
    77    73    74    2
    78    81    82    2
