@<TRIPOS>MOLECULE
tmp/6et5S01.pdb
 119 116 0 0 0
SMALL
GASTEIGER

@<TRIPOS>ATOM
      1  N         89.6100   93.2570  130.2940 N.3    18  ARG18      -0.1245
      2  CA        90.8410   93.2560  129.5280 C.3    18  ARG18       0.1563
      3  C         91.8440   94.2880  130.0110 C.2    18  ARG18       0.2260
      4  O         93.0440   94.0150  130.0130 O.2    18  ARG18      -0.2867
      5  CB        90.5540   93.4520  128.0500 C.3    18  ARG18       0.0307
      6  CG        89.7910   92.3070  127.4110 C.3    18  ARG18       0.0489
      7  CD        89.4540   92.6080  125.9590 C.3    18  ARG18       0.2205
      8  NE        88.3620   93.5750  125.8110 N.pl3  18  ARG18      -0.0865
      9  CZ        88.4960   94.8230  125.3570 C.cat  18  ARG18       0.5346
     10  NH1       89.6830   95.2980  124.9730 N.pl3  18  ARG18       0.1354
     11  NH2       87.4270   95.6010  125.2710 N.pl3  18  ARG18       0.1354
     12  N         93.0110   93.1650  133.6430 N.3    21  LEU21      -0.1231
     13  CA        93.7950   91.9820  133.6200 C.3    21  LEU21       0.1693
     14  C         95.1780   92.3370  133.1880 C.2    21  LEU21       0.2592
     15  O         96.1450   91.9370  133.8190 O.2    21  LEU21      -0.2718
     16  CB        93.1770   90.9780  132.6680 C.3    21  LEU21       0.0284
     17  CG        92.8790   89.6230  133.2930 C.3    21  LEU21       0.0019
     18  CD1       92.3500   89.7270  134.7210 C.3    21  LEU21       0.0001
     19  CD2       91.8630   88.9390  132.3980 C.3    21  LEU21       0.0001
     20  N         95.2660   93.1300  132.1390 N.am   22  THR22      -0.1953
     21  CA        96.5570   93.5120  131.6300 C.3    22  THR22       0.1897
     22  C         97.3420   94.3860  132.6090 C.2    22  THR22       0.2313
     23  O         98.5650   94.2970  132.6880 O.2    22  THR22      -0.2863
     24  CB        96.4660   94.1290  130.2150 C.3    22  THR22       0.1794
     25  OG1       97.6330   93.7620  129.4730 O.3    22  THR22      -0.2208
     26  CG2       96.3340   95.6610  130.2340 C.3    22  THR22       0.0378
     27  N         96.9520   94.6300  136.1130 N.3    24  LEU24      -0.1231
     28  CA        97.3770   93.7870  137.2020 C.3    24  LEU24       0.1693
     29  C         98.6410   93.0400  136.8130 C.2    24  LEU24       0.2592
     30  O         99.6550   93.1160  137.5250 O.2    24  LEU24      -0.2718
     31  CB        96.2980   92.7760  137.5330 C.3    24  LEU24       0.0284
     32  CG        95.4460   92.9480  138.7740 C.3    24  LEU24       0.0019
     33  CD1       94.4460   91.8100  138.7520 C.3    24  LEU24       0.0001
     34  CD2       96.2570   92.9100  140.0610 C.3    24  LEU24       0.0001
     35  N         98.5600   92.3510  135.6680 N.am   25  PHE25      -0.1976
     36  CA        99.6080   91.4920  135.1730 C.3    25  PHE25       0.1639
     37  C        100.8900   92.2510  135.2820 C.2    25  PHE25       0.2290
     38  O        101.8710   91.7470  135.8120 O.2    25  PHE25      -0.2864
     39  CB        99.3380   91.0830  133.7300 C.3    25  PHE25       0.0560
     40  CG       100.4300   90.2320  133.0960 C.ar   25  PHE25      -0.0200
     41  CD1      100.6380   88.8870  133.4950 C.ar   25  PHE25      -0.0042
     42  CD2      101.2240   90.7500  132.0510 C.ar   25  PHE25      -0.0042
     43  CE1      101.6280   88.0900  132.9030 C.ar   25  PHE25      -0.0003
     44  CE2      102.2020   89.9540  131.4430 C.ar   25  PHE25      -0.0003
     45  CZ       102.4030   88.6280  131.8700 C.ar   25  PHE25      -0.0000
     46  N        101.8120   93.6070  139.1780 N.3    28  LEU28      -0.1231
     47  CA       102.3140   92.5370  139.9910 C.3    28  LEU28       0.1693
     48  C        103.7160   92.1910  139.5610 C.2    28  LEU28       0.2592
     49  O        104.6050   92.1280  140.4060 O.2    28  LEU28      -0.2718
     50  CB       101.3760   91.3340  139.9750 C.3    28  LEU28       0.0284
     51  CG       100.0080   91.6040  140.6280 C.3    28  LEU28       0.0019
     52  CD1       99.0470   90.4380  140.4510 C.3    28  LEU28       0.0001
     53  CD2      100.0930   91.9680  142.1040 C.3    28  LEU28       0.0001
     54  N        103.9170   92.0520  138.2530 N.am   29  THR29      -0.1953
     55  CA       105.2270   91.7320  137.6800 C.3    29  THR29       0.1897
     56  C        106.3390   92.6530  138.1300 C.2    29  THR29       0.2313
     57  O        107.4650   92.2060  138.4040 O.2    29  THR29      -0.2863
     58  CB       105.1730   91.7060  136.1550 C.3    29  THR29       0.1794
     59  OG1      104.3430   90.6110  135.7680 O.3    29  THR29      -0.2208
     60  CG2      106.5400   91.4810  135.5600 C.3    29  THR29       0.0378
     61  N        106.9000   92.2060  141.9660 N.3    32  ALA32      -0.1245
     62  CA       107.6340   90.9570  142.0620 C.3    32  ALA32       0.1562
     63  C        109.1310   91.1680  141.9020 C.2    32  ALA32       0.2260
     64  O        109.9670   90.7750  142.7430 O.2    32  ALA32      -0.2867
     65  CB       107.1210   90.0080  141.0020 C.3    32  ALA32       0.0290
     66  N        112.2530   90.8090  144.5050 N.3    36  HIS36      -0.1241
     67  CA       113.2910   89.8260  144.2160 C.3    36  HIS36       0.1621
     68  C        114.6600   90.4130  144.2610 C.2    36  HIS36       0.2264
     69  O        115.4470   90.0410  145.1400 O.2    36  HIS36      -0.2867
     70  CB       113.0450   89.1160  142.9370 C.3    36  HIS36       0.0745
     71  CG       112.2110   87.8990  143.1280 C.ar   36  HIS36       0.0817
     72  ND1      110.8710   87.8600  142.8040 N.ar   36  HIS36      -0.2268
     73  CD2      112.5120   86.6830  143.6530 C.ar   36  HIS36       0.1154
     74  CE1      110.3910   86.6580  143.0910 C.ar   36  HIS36       0.1986
     75  NE2      111.3620   85.9280  143.6160 N.ar   36  HIS36      -0.2212
     76  N        115.7840   92.0470  147.5780 N.3    39  LEU39      -0.1245
     77  CA       116.3900   91.0710  148.4100 C.3    39  LEU39       0.1561
     78  C        117.7920   90.7970  147.9120 C.2    39  LEU39       0.2260
     79  O        118.7270   90.8180  148.7210 O.2    39  LEU39      -0.2867
     80  CB       115.5430   89.8280  148.4720 C.3    39  LEU39       0.0270
     81  CG       114.3450   90.2070  149.3070 C.3    39  LEU39       0.0019
     82  CD1      113.3050   89.1330  149.1590 C.3    39  LEU39       0.0001
     83  CD2      114.7440   90.3760  150.7600 C.3    39  LEU39       0.0001
     84  N        119.6630   87.3060  153.4270 N.3    45  LEU45      -0.1245
     85  CA       118.6470   87.2990  152.3370 C.3    45  LEU45       0.1561
     86  C        119.1320   87.4410  150.8930 C.2    45  LEU45       0.2260
     87  O        118.3820   87.8990  150.0260 O.2    45  LEU45      -0.2867
     88  CB       117.5970   88.3900  152.5560 C.3    45  LEU45       0.0270
     89  CG       116.5860   88.1550  153.6470 C.3    45  LEU45       0.0019
     90  CD1      117.1350   87.3830  154.8450 C.3    45  LEU45       0.0001
     91  CD2      116.1160   89.5250  154.0600 C.3    45  LEU45       0.0001
     92  N        120.3610   84.6490  148.4550 N.3    47  TRP47      -0.1227
     93  CA       120.7010   83.3520  147.8940 C.3    47  TRP47       0.1737
     94  C        121.3960   83.7460  146.5790 C.2    47  TRP47       0.2595
     95  O        121.5440   84.9400  146.3520 O.2    47  TRP47      -0.2718
     96  CB       119.4070   82.5750  147.7690 C.3    47  TRP47       0.0564
     97  CG       118.4810   82.9940  146.7040 C.ar   47  TRP47       0.0003
     98  CD1      118.1170   82.2440  145.6510 C.ar   47  TRP47       0.0946
     99  CD2      117.7830   84.2250  146.5660 C.ar   47  TRP47       0.0152
    100  NE1      117.2440   82.9150  144.8340 N.ar   47  TRP47      -0.2442
    101  CE2      117.0310   84.1480  145.3640 C.ar   47  TRP47       0.0810
    102  CE3      117.7380   85.4000  147.3030 C.ar   47  TRP47       0.0012
    103  CZ2      116.2400   85.1880  144.8970 C.ar   47  TRP47       0.0191
    104  CZ3      116.9380   86.4450  146.8340 C.ar   47  TRP47       0.0001
    105  CH2      116.1940   86.3220  145.6490 C.ar   47  TRP47       0.0015
    106  N        121.9550   82.8340  145.7920 N.am   48  TRP48      -0.1976
    107  CA       122.5450   83.2820  144.5200 C.3    48  TRP48       0.1640
    108  C        124.0500   83.6360  144.4910 C.2    48  TRP48       0.2290
    109  O        124.5250   84.1830  143.4980 O.2    48  TRP48      -0.2864
    110  CB       121.7840   84.5160  144.0300 C.3    48  TRP48       0.0576
    111  CG       120.6200   84.2280  143.1470 C.ar   48  TRP48       0.0006
    112  CD1      119.6120   83.3420  143.3770 C.ar   48  TRP48       0.0946
    113  CD2      120.3270   84.8550  141.8940 C.ar   48  TRP48       0.0152
    114  NE1      118.7150   83.3670  142.3370 N.ar   48  TRP48      -0.2442
    115  CE2      119.1320   84.2890  141.4150 C.ar   48  TRP48       0.0810
    116  CE3      120.9640   85.8350  141.1290 C.ar   48  TRP48       0.0012
    117  CZ2      118.5600   84.6710  140.2050 C.ar   48  TRP48       0.0191
    118  CZ3      120.3950   86.2130  139.9300 C.ar   48  TRP48       0.0001
    119  CH2      119.2060   85.6330  139.4790 C.ar   48  TRP48       0.0015
@<TRIPOS>BOND
     1    10     9    1
     2    11     9    1
     3     9     8    2
     4     8     7    1
     5     7     6    1
     6     6     5    1
     7     5     2    1
     8    25    24    1
     9     2     3    1
    10     2     1    1
    11     3     4    2
    12    24    26    1
    13    24    21    1
    14    44    45   ar
    15    44    42   ar
    16    21    20    1
    17    21    22    1
    18    45    43   ar
    19    42    40   ar
    20    20    14   am
    21    19    17    1
    22    22    23    2
    23    16    17    1
    24    16    13    1
    25    43    41   ar
    26    40    41   ar
    27    40    39    1
    28    14    13    1
    29    14    15    2
    30    17    18    1
    31    13    12    1
    32    39    36    1
    33    36    37    1
    34    36    35    1
    35    37    38    2
    36    60    58    1
    37    35    29   am
    38    59    58    1
    39    27    28    1
    40    58    55    1
    41    29    28    1
    42    29    30    2
    43    28    31    1
    44    31    32    1
    45    55    56    1
    46    55    54    1
    47    56    57    2
    48    54    48   am
    49    33    32    1
    50    32    34    1
    51    46    47    1
    52   119   118   ar
    53   119   117   ar
    54    48    47    1
    55    48    49    2
    56   118   116   ar
    57    50    47    1
    58    50    51    1
    59   117   115   ar
    60    52    51    1
    61    51    53    1
    62    65    62    1
    63   116   113   ar
    64   115   113   ar
    65   115   114   ar
    66   113   111   ar
    67    63    62    1
    68    63    64    2
    69    61    62    1
    70   114   112   ar
    71    72    74   ar
    72    72    71   ar
    73    70    71    1
    74    70    67    1
    75    74    75   ar
    76    71    73   ar
    77   111   112   ar
    78   111   110    1
    79   109   108    2
    80    75    73   ar
    81   110   107    1
    82    67    68    1
    83    67    66    1
    84    68    69    2
    85   108   107    1
    86   107   106    1
    87   100   101   ar
    88   100    98   ar
    89   103   101   ar
    90   103   105   ar
    91   101    99   ar
    92   105   104   ar
    93    98    97   ar
    94   106    94   am
    95    95    94    2
    96    99    97   ar
    97    99   102   ar
    98    94    93    1
    99    97    96    1
   100   104   102   ar
   101    76    77    1
   102    96    93    1
   103    93    92    1
   104    78    77    1
   105    78    79    2
   106    77    80    1
   107    80    81    1
   108    82    81    1
   109    81    83    1
   110    87    86    2
   111    86    85    1
   112    85    88    1
   113    85    84    1
   114    88    89    1
   115    89    91    1
   116    89    90    1
