@<TRIPOS>MOLECULE
tmp/6et5S03.pdb
 83 79 0 0 0
SMALL
GASTEIGER

@<TRIPOS>ATOM
      1  N         78.7290   93.6290  143.5760 N.3     8  SER8       -0.1217
      2  CA        80.1620   93.5390  143.1970 C.3     8  SER8        0.1889
      3  C         80.4550   93.3000  141.7220 C.2     8  SER8        0.2288
      4  O         81.2860   93.9810  141.1190 O.2     8  SER8       -0.2866
      5  CB        80.8610   92.4290  143.9950 C.3     8  SER8        0.2089
      6  OG        80.7370   92.6190  145.3860 O.3     8  SER8       -0.2183
      7  N         80.7800   95.5580  138.5450 N.3    11  LEU11      -0.1231
      8  CA        82.0650   96.2060  138.3010 C.3    11  LEU11       0.1693
      9  C         82.5110   96.0020  136.8770 C.2    11  LEU11       0.2592
     10  O         82.9760   96.9220  136.2210 O.2    11  LEU11      -0.2718
     11  CB        83.1350   95.6450  139.2360 C.3    11  LEU11       0.0284
     12  CG        84.5090   96.3150  139.1690 C.3    11  LEU11       0.0019
     13  CD1       84.4230   97.8090  139.4740 C.3    11  LEU11       0.0001
     14  CD2       85.4730   95.6040  140.1080 C.3    11  LEU11       0.0001
     15  N         82.3350   94.7760  136.4170 N.am   12  TRP12      -0.1976
     16  CA        82.7620   94.3610  135.1040 C.3    12  TRP12       0.1640
     17  C         81.9770   95.0400  134.0050 C.2    12  TRP12       0.2290
     18  O         82.4350   95.1220  132.8630 O.2    12  TRP12      -0.2864
     19  CB        82.7160   92.8390  135.0390 C.3    12  TRP12       0.0576
     20  CG        83.6310   92.2690  136.0990 C.ar   12  TRP12       0.0006
     21  CD1       83.3390   91.2990  137.0140 C.ar   12  TRP12       0.0946
     22  CD2       84.9740   92.6930  136.3800 C.ar   12  TRP12       0.0152
     23  NE1       84.4220   91.0700  137.8270 N.ar   12  TRP12      -0.2442
     24  CE2       85.4380   91.9110  137.4640 C.ar   12  TRP12       0.0810
     25  CE3       85.8380   93.6510  135.8070 C.ar   12  TRP12       0.0012
     26  CZ2       86.7220   92.0510  137.9880 C.ar   12  TRP12       0.0191
     27  CZ3       87.1060   93.7930  136.3290 C.ar   12  TRP12       0.0001
     28  CH2       87.5410   92.9950  137.4100 C.ar   12  TRP12       0.0015
     29  N        101.8120   93.6070  139.1780 N.3    28  LEU28      -0.1245
     30  CA       102.3140   92.5370  139.9910 C.3    28  LEU28       0.1561
     31  C        103.7160   92.1910  139.5610 C.2    28  LEU28       0.2260
     32  O        104.6050   92.1280  140.4060 O.2    28  LEU28      -0.2867
     33  CB       101.3760   91.3340  139.9750 C.3    28  LEU28       0.0270
     34  CG       100.0080   91.6040  140.6280 C.3    28  LEU28       0.0019
     35  CD1       99.0470   90.4380  140.4510 C.3    28  LEU28       0.0001
     36  CD2      100.0930   91.9680  142.1040 C.3    28  LEU28       0.0001
     37  N        106.2280   94.7400  140.9510 N.3    31  ILE31      -0.1231
     38  CA       106.4090   94.5590  142.3500 C.3    31  ILE31       0.1692
     39  C        107.2750   93.3160  142.5950 C.2    31  ILE31       0.2591
     40  O        108.2820   93.3790  143.2960 O.2    31  ILE31      -0.2718
     41  CB       105.0610   94.5650  143.0540 C.3    31  ILE31       0.0266
     42  CG1      104.4620   95.9500  142.9150 C.3    31  ILE31       0.0019
     43  CG2      105.2090   94.4140  144.5360 C.3    31  ILE31       0.0020
     44  CD1      103.0230   96.0220  143.3370 C.3    31  ILE31       0.0001
     45  N        106.9000   92.2060  141.9660 N.am   32  ALA32      -0.1980
     46  CA       107.6340   90.9570  142.0620 C.3    32  ALA32       0.1597
     47  C        109.1310   91.1680  141.9020 C.2    32  ALA32       0.2287
     48  O        109.9670   90.7750  142.7430 O.2    32  ALA32      -0.2864
     49  CB       107.1210   90.0080  141.0020 C.3    32  ALA32       0.0319
     50  N        110.8030   93.3180  144.7320 N.3    35  ILE35      -0.1231
     51  CA       111.1520   92.5130  145.8530 C.3    35  ILE35       0.1692
     52  C        112.3500   91.6060  145.5790 C.2    35  ILE35       0.2592
     53  O        113.3580   91.6640  146.3360 O.2    35  ILE35      -0.2718
     54  CB       109.9430   91.7310  146.3010 C.3    35  ILE35       0.0266
     55  CG1      108.9070   92.7410  146.7570 C.3    35  ILE35       0.0019
     56  CG2      110.3070   90.7750  147.4250 C.3    35  ILE35       0.0020
     57  CD1      107.5010   92.2110  146.6850 C.3    35  ILE35       0.0001
     58  N        112.2530   90.8090  144.5050 N.am   36  HIS36      -0.1976
     59  CA       113.2910   89.8260  144.2160 C.3    36  HIS36       0.1656
     60  C        114.6600   90.4130  144.2610 C.2    36  HIS36       0.2291
     61  O        115.4470   90.0410  145.1400 O.2    36  HIS36      -0.2864
     62  CB       113.0450   89.1160  142.9370 C.3    36  HIS36       0.0771
     63  CG       112.2110   87.8990  143.1280 C.ar   36  HIS36       0.0820
     64  ND1      110.8710   87.8600  142.8040 N.ar   36  HIS36      -0.2267
     65  CD2      112.5120   86.6830  143.6530 C.ar   36  HIS36       0.1154
     66  CE1      110.3910   86.6580  143.0910 C.ar   36  HIS36       0.1986
     67  NE2      111.3620   85.9280  143.6160 N.ar   36  HIS36      -0.2212
     68  N        115.7840   92.0470  147.5780 N.3    39  LEU39      -0.1245
     69  CA       116.3900   91.0710  148.4100 C.3    39  LEU39       0.1561
     70  C        117.7920   90.7970  147.9120 C.2    39  LEU39       0.2260
     71  O        118.7270   90.8180  148.7210 O.2    39  LEU39      -0.2867
     72  CB       115.5430   89.8280  148.4720 C.3    39  LEU39       0.0270
     73  CG       114.3450   90.2070  149.3070 C.3    39  LEU39       0.0019
     74  CD1      113.3050   89.1330  149.1590 C.3    39  LEU39       0.0001
     75  CD2      114.7440   90.3760  150.7600 C.3    39  LEU39       0.0001
     76  N        119.6630   87.3060  153.4270 N.3    45  LEU45      -0.1245
     77  CA       118.6470   87.2990  152.3370 C.3    45  LEU45       0.1561
     78  C        119.1320   87.4410  150.8930 C.2    45  LEU45       0.2260
     79  O        118.3820   87.8990  150.0260 O.2    45  LEU45      -0.2867
     80  CB       117.5970   88.3900  152.5560 C.3    45  LEU45       0.0270
     81  CG       116.5860   88.1550  153.6470 C.3    45  LEU45       0.0019
     82  CD1      117.1350   87.3830  154.8450 C.3    45  LEU45       0.0001
     83  CD2      116.1160   89.5250  154.0600 C.3    45  LEU45       0.0001
@<TRIPOS>BOND
     1    18    17    2
     2    17    16    1
     3    19    16    1
     4    19    20    1
     5    16    15    1
     6    25    27   ar
     7    25    22   ar
     8    20    22   ar
     9    20    21   ar
    10    10     9    2
    11    27    28   ar
    12    22    24   ar
    13    15     9   am
    14     9     8    1
    15    21    23   ar
    16    28    26   ar
    17    24    23   ar
    18    24    26   ar
    19     8     7    1
    20     8    11    1
    21    12    11    1
    22    12    13    1
    23    12    14    1
    24    29    30    1
    25    31    30    1
    26    31    32    2
    27    33    30    1
    28    33    34    1
    29    35    34    1
    30    34    36    1
    31    37    38    1
    32    49    46    1
    33     4     3    2
    34     3     2    1
    35    47    46    1
    36    47    48    2
    37    45    46    1
    38    45    39   am
    39    38    39    1
    40    38    41    1
    41    39    40    2
    42    64    66   ar
    43    64    63   ar
    44    42    41    1
    45    42    44    1
    46    62    63    1
    47    62    59    1
    48    41    43    1
    49    66    67   ar
    50    63    65   ar
    51     2     1    1
    52     2     5    1
    53    67    65   ar
    54     5     6    1
    55    59    60    1
    56    59    58    1
    57    60    61    2
    58    58    52   am
    59    50    51    1
    60    52    51    1
    61    52    53    2
    62    51    54    1
    63    54    55    1
    64    54    56    1
    65    57    55    1
    66    68    69    1
    67    70    69    1
    68    70    71    2
    69    69    72    1
    70    72    73    1
    71    74    73    1
    72    73    75    1
    73    79    78    2
    74    78    77    1
    75    77    80    1
    76    77    76    1
    77    80    81    1
    78    81    83    1
    79    81    82    1
