@<TRIPOS>MOLECULE
tmp/6et5B08.pdb
 175 172 0 0 0
SMALL
GASTEIGER

@<TRIPOS>ATOM
      1  N        119.1990  106.4080   90.8250 N.3    33  PHE33      -0.1227
      2  CA       120.6300  106.3470   90.6530 C.3    33  PHE33       0.1736
      3  C        121.3430  106.4710   91.9810 C.2    33  PHE33       0.2595
      4  O        122.3260  105.7690   92.2590 O.2    33  PHE33      -0.2718
      5  CB       121.0430  107.4690   89.7580 C.3    33  PHE33       0.0547
      6  CG       122.5110  107.6020   89.6150 C.ar   33  PHE33      -0.0202
      7  CD1      123.2400  108.3810   90.5100 C.ar   33  PHE33      -0.0042
      8  CD2      123.1730  106.9640   88.5630 C.ar   33  PHE33      -0.0042
      9  CE1      124.6080  108.5140   90.3530 C.ar   33  PHE33      -0.0003
     10  CE2      124.5420  107.0970   88.3970 C.ar   33  PHE33      -0.0003
     11  CZ       125.2610  107.8720   89.2930 C.ar   33  PHE33      -0.0000
     12  N        120.8180  107.3790   92.7920 N.am   34  PHE34      -0.1976
     13  CA       121.3880  107.6610   94.0780 C.3    34  PHE34       0.1639
     14  C        121.1260  106.6200   95.1170 C.2    34  PHE34       0.2290
     15  O        121.8970  106.4930   96.0770 O.2    34  PHE34      -0.2864
     16  CB       120.9240  108.9980   94.5510 C.3    34  PHE34       0.0560
     17  CG       121.4790  110.0780   93.7500 C.ar   34  PHE34      -0.0200
     18  CD1      122.8460  110.2940   93.7410 C.ar   34  PHE34      -0.0042
     19  CD2      120.6550  110.8410   92.9370 C.ar   34  PHE34      -0.0042
     20  CE1      123.3870  111.2820   92.9390 C.ar   34  PHE34      -0.0003
     21  CE2      121.1800  111.8610   92.1580 C.ar   34  PHE34      -0.0003
     22  CZ       122.5520  112.0770   92.1590 C.ar   34  PHE34      -0.0000
     23  N        121.3570  103.5280   94.3640 N.3    36  VAL36      -0.1231
     24  CA       122.3910  102.5780   94.0870 C.3    36  VAL36       0.1692
     25  C        123.6450  103.0560   94.7690 C.2    36  VAL36       0.2592
     26  O        124.2330  102.3440   95.5870 O.2    36  VAL36      -0.2718
     27  CB       122.5740  102.3880   92.5850 C.3    36  VAL36       0.0266
     28  CG1      123.8030  101.5580   92.3350 C.3    36  VAL36       0.0020
     29  CG2      121.3810  101.6430   92.0060 C.3    36  VAL36       0.0020
     30  N        124.0020  104.2880   94.4620 N.am   37  SER37      -0.1952
     31  CA       125.1450  104.9240   95.0700 C.3    37  SER37       0.1924
     32  C        125.1810  104.9070   96.6000 C.2    37  SER37       0.2314
     33  O        126.2470  104.7350   97.2040 O.2    37  SER37      -0.2863
     34  CB       125.2120  106.3590   94.5910 C.3    37  SER37       0.2116
     35  OG       124.0870  107.0880   95.0300 O.3    37  SER37      -0.2180
     36  N        126.0240  101.3360   97.8860 N.3    40  PHE40      -0.1227
     37  CA       127.4050  101.1280   97.7000 C.3    40  PHE40       0.1736
     38  C        128.2620  101.7150   98.8220 C.2    40  PHE40       0.2595
     39  O        129.1850  101.0500   99.2960 O.2    40  PHE40      -0.2718
     40  CB       127.8020  101.7840   96.4250 C.3    40  PHE40       0.0547
     41  CG       129.2770  101.8090   96.2130 C.ar   40  PHE40      -0.0202
     42  CD1      130.0680  102.8240   96.7870 C.ar   40  PHE40      -0.0042
     43  CD2      129.8980  100.8090   95.4570 C.ar   40  PHE40      -0.0042
     44  CE1      131.4460  102.8380   96.5970 C.ar   40  PHE40      -0.0003
     45  CE2      131.2750  100.8210   95.2640 C.ar   40  PHE40      -0.0003
     46  CZ       132.0490  101.8360   95.8310 C.ar   40  PHE40      -0.0000
     47  N        128.0000  102.9540   99.2240 N.am   41  PHE41      -0.1976
     48  CA       128.7710  103.5150  100.3240 C.3    41  PHE41       0.1639
     49  C        128.4910  102.8880  101.6300 C.2    41  PHE41       0.2290
     50  O        129.4110  102.6520  102.4130 O.2    41  PHE41      -0.2864
     51  CB       128.4720  104.9610  100.5080 C.3    41  PHE41       0.0560
     52  CG       129.1390  105.7560   99.5340 C.ar   41  PHE41      -0.0200
     53  CD1      130.5370  105.6680   99.4360 C.ar   41  PHE41      -0.0042
     54  CD2      128.4010  106.5100   98.6250 C.ar   41  PHE41      -0.0042
     55  CE1      131.2190  106.3700   98.4640 C.ar   41  PHE41      -0.0003
     56  CE2      129.0720  107.2170   97.6440 C.ar   41  PHE41      -0.0003
     57  CZ       130.4840  107.1440   97.5640 C.ar   41  PHE41      -0.0000
     58  N        147.5390  117.5020  106.3220 N.3    75  LEU75      -0.1231
     59  CA       146.3150  117.3000  105.5860 C.3    75  LEU75       0.1693
     60  C        146.4640  116.1530  104.6150 C.2    75  LEU75       0.2593
     61  O        145.6080  115.9410  103.7510 O.2    75  LEU75      -0.2718
     62  CB       145.8050  118.5790  104.9260 C.3    75  LEU75       0.0284
     63  CG       145.1940  119.4910  105.9930 C.3    75  LEU75       0.0019
     64  CD1      145.1440  120.8700  105.4140 C.3    75  LEU75       0.0001
     65  CD2      143.8070  119.1250  106.5070 C.3    75  LEU75       0.0001
     66  N        147.5350  115.3860  104.8020 N.am   76  GLY76      -0.1942
     67  CA       147.8230  114.2570  103.9330 C.3    76  GLY76       0.2014
     68  C        147.2570  112.9370  104.3790 C.2    76  GLY76       0.2638
     69  O        146.7150  112.8150  105.4830 O.2    76  GLY76      -0.2714
     70  N        147.3820  111.9480  103.5080 N.am   77  ALA77      -0.1977
     71  CA       147.0130  110.5950  103.8450 C.3    77  ALA77       0.1597
     72  C        147.9530  109.9620  104.8750 C.2    77  ALA77       0.2287
     73  O        149.1550  110.2640  104.9420 O.2    77  ALA77      -0.2864
     74  CB       146.9840  109.7870  102.6060 C.3    77  ALA77       0.0319
     75  N        140.1630  105.7160  108.9080 N.3    86  TRP86      -0.1227
     76  CA       139.3440  106.8310  109.3630 C.3    86  TRP86       0.1737
     77  C        138.9320  107.6270  108.1230 C.2    86  TRP86       0.2595
     78  O        137.7380  107.7760  107.7880 O.2    86  TRP86      -0.2718
     79  CB       140.0740  107.7210  110.4260 C.3    86  TRP86       0.0564
     80  CG       139.2000  108.8730  110.8140 C.ar   86  TRP86       0.0003
     81  CD1      138.2030  108.8700  111.7450 C.ar   86  TRP86       0.0946
     82  CD2      139.1590  110.1400  110.1980 C.ar   86  TRP86       0.0152
     83  NE1      137.5450  110.0670  111.7610 N.ar   86  TRP86      -0.2442
     84  CE2      138.1030  110.8710  110.8120 C.ar   86  TRP86       0.0810
     85  CE3      139.9130  110.7440  109.2030 C.ar   86  TRP86       0.0012
     86  CZ2      137.7750  112.1720  110.4490 C.ar   86  TRP86       0.0191
     87  CZ3      139.5810  112.0280  108.8350 C.ar   86  TRP86       0.0001
     88  CH2      138.5140  112.7390  109.4640 C.ar   86  TRP86       0.0015
     89  N        139.9730  108.0880  107.4410 N.am   87  GLN87      -0.1979
     90  CA       139.8600  108.8520  106.2340 C.3    87  GLN87       0.1601
     91  C        138.9130  108.1360  105.3010 C.2    87  GLN87       0.2287
     92  O        137.9180  108.7230  104.8690 O.2    87  GLN87      -0.2864
     93  CB       141.2360  109.0610  105.5990 C.3    87  GLN87       0.0394
     94  CG       142.2800  109.6280  106.5590 C.3    87  GLN87       0.0908
     95  CD       143.3900  110.4280  105.8680 C.2    87  GLN87       0.2608
     96  OE1      143.1230  111.3400  105.0670 O.2    87  GLN87      -0.2717
     97  NE2      144.6390  110.1030  106.1900 N.am   87  GLN87      -0.0878
     98  N        135.1880  108.2440  106.3030 N.3    90  THR90      -0.1203
     99  CA       134.6930  109.6220  106.2740 C.3    90  THR90       0.1994
    100  C        134.1990  110.0670  104.9040 C.2    90  THR90       0.2617
    101  O        133.2390  110.8200  104.7460 O.2    90  THR90      -0.2717
    102  CB       135.7770  110.5800  106.7200 C.3    90  THR90       0.1784
    103  OG1      136.3950  110.0920  107.9290 O.3    90  THR90      -0.2211
    104  CG2      135.1720  111.9740  106.9250 C.3    90  THR90       0.0376
    105  N        134.8470  109.5370  103.9110 N.am   91  VAL91      -0.1979
    106  CA       134.4070  109.7240  102.5820 C.3    91  VAL91       0.1595
    107  C        133.1930  108.8960  102.2390 C.2    91  VAL91       0.2287
    108  O        132.2790  109.4060  101.6030 O.2    91  VAL91      -0.2864
    109  CB       135.5360  109.3220  101.6830 C.3    91  VAL91       0.0276
    110  CG1      135.1020  109.3870  100.2490 C.3    91  VAL91       0.0022
    111  CG2      136.6980  110.2500  101.9530 C.3    91  VAL91       0.0022
    112  N        130.3020  110.8140  103.9070 N.3    94  LEU94      -0.1231
    113  CA       129.8470  111.9130  103.0700 C.3    94  LEU94       0.1693
    114  C        129.0910  111.4460  101.8720 C.2    94  LEU94       0.2592
    115  O        128.0110  111.9600  101.5650 O.2    94  LEU94      -0.2718
    116  CB       131.0160  112.7240  102.5970 C.3    94  LEU94       0.0284
    117  CG       131.0840  113.7810  103.6610 C.3    94  LEU94       0.0019
    118  CD1      132.4130  114.4780  103.5320 C.3    94  LEU94       0.0001
    119  CD2      129.9120  114.7370  103.5130 C.3    94  LEU94       0.0001
    120  N        129.6910  110.4510  101.2230 N.am   95  GLY95      -0.1957
    121  CA       129.1340  109.7840  100.1060 C.3    95  GLY95       0.1869
    122  C        127.7130  109.4210  100.4090 C.2    95  GLY95       0.2309
    123  O        126.7860  109.9430   99.7790 O.2    95  GLY95      -0.2863
    124  N        125.1720  112.3280  101.0480 N.3    98  ILE98      -0.1231
    125  CA       124.7710  113.1470   99.9520 C.3    98  ILE98       0.1692
    126  C        123.8710  112.4200   98.9940 C.2    98  ILE98       0.2592
    127  O        122.8320  112.9560   98.5910 O.2    98  ILE98      -0.2718
    128  CB       125.9790  113.7170   99.2870 C.3    98  ILE98       0.0266
    129  CG1      126.4070  114.9060  100.1080 C.3    98  ILE98       0.0019
    130  CG2      125.6230  114.2300   97.9290 C.3    98  ILE98       0.0020
    131  CD1      127.9010  114.9810  100.2690 C.3    98  ILE98       0.0001
    132  N        124.2550  111.1850   98.6800 N.am   99  SER99      -0.1952
    133  CA       123.4150  110.2910   97.8980 C.3    99  SER99       0.1924
    134  C        122.0410  110.1790   98.5420 C.2    99  SER99       0.2314
    135  O        121.0450  110.1390   97.8250 O.2    99  SER99      -0.2863
    136  CB       124.0050  108.8960   97.8150 C.3    99  SER99       0.2116
    137  OG       124.0860  108.2470   99.0700 O.3    99  SER99      -0.2180
    138  N        119.9700  113.3980   97.8290 N.3   102  LEU102     -0.1245
    139  CA       119.6040  113.6250   96.4620 C.3   102  LEU102      0.1561
    140  C        118.5170  112.7090   96.0340 C.2   102  LEU102      0.2260
    141  O        117.6930  113.0660   95.1940 O.2   102  LEU102     -0.2867
    142  CB       120.7860  113.3290   95.6090 C.3   102  LEU102      0.0270
    143  CG       121.7850  114.4210   95.7740 C.3   102  LEU102      0.0019
    144  CD1      123.0780  113.8100   95.3500 C.3   102  LEU102      0.0001
    145  CD2      121.3970  115.5640   94.8720 C.3   102  LEU102      0.0001
    146  N        134.1390  117.7450  110.6200 N.3   132  GLN132     -0.1231
    147  CA       135.0790  116.7810  110.0330 C.3   132  GLN132      0.1698
    148  C        135.9880  117.3600  108.9700 C.2   132  GLN132      0.2592
    149  O        137.0050  116.7640  108.6660 O.2   132  GLN132     -0.2718
    150  CB       134.3540  115.5650  109.4680 C.3   132  GLN132      0.0381
    151  CG       133.7510  114.6300  110.5040 C.3   132  GLN132      0.0905
    152  CD       134.7270  114.1030  111.5890 C.2   132  GLN132      0.2608
    153  OE1      135.2200  114.8590  112.4530 O.2   132  GLN132     -0.2717
    154  NE2      134.9350  112.7810  111.5970 N.am  132  GLN132     -0.0878
    155  N        135.6490  118.5270  108.4280 N.am  133  VAL133     -0.1980
    156  CA       136.3090  119.0160  107.2150 C.3   133  VAL133      0.1595
    157  C        136.8600  120.4410  107.3060 C.2   133  VAL133      0.2287
    158  O        138.0660  120.6690  107.1670 O.2   133  VAL133     -0.2864
    159  CB       135.3460  118.9010  106.0310 C.3   133  VAL133      0.0276
    160  CG1      135.9180  119.5890  104.8130 C.3   133  VAL133      0.0022
    161  CG2      135.0160  117.4340  105.7660 C.3   133  VAL133      0.0022
    162  N        143.9840  116.6760  109.7000 N.3   142  TRP142     -0.1241
    163  CA       142.7780  115.9350  109.9060 C.3   142  TRP142      0.1605
    164  C        142.6040  115.5910  111.3630 C.2   142  TRP142      0.2264
    165  O        141.4800  115.5210  111.8620 O.2   142  TRP142     -0.2867
    166  CB       142.7780  114.7060  109.0460 C.3   142  TRP142      0.0550
    167  CG       142.8720  115.0830  107.6600 C.ar  142  TRP142      0.0003
    168  CD1      143.9000  114.8340  106.8130 C.ar  142  TRP142      0.0946
    169  CD2      141.9170  115.8330  106.9330 C.ar  142  TRP142      0.0152
    170  NE1      143.6320  115.3620  105.5810 N.ar  142  TRP142     -0.2442
    171  CE2      142.4200  115.9870  105.6280 C.ar  142  TRP142      0.0810
    172  CE3      140.6740  116.3970  107.2570 C.ar  142  TRP142      0.0012
    173  CZ2      141.7400  116.6880  104.6510 C.ar  142  TRP142      0.0191
    174  CZ3      139.9860  117.0970  106.2800 C.ar  142  TRP142      0.0001
    175  CH2      140.5220  117.2380  104.9940 C.ar  142  TRP142      0.0015
@<TRIPOS>BOND
     1    10     8   ar
     2    10    11   ar
     3     8     6   ar
     4    11     9   ar
     5     6     5    1
     6     6     7   ar
     7     5     2    1
     8     9     7   ar
     9     2     1    1
    10     2     3    1
    11     3     4    2
    12     3    12   am
    13    29    27    1
    14    21    22   ar
    15    21    19   ar
    16    22    20   ar
    17    28    27    1
    18    27    24    1
    19    12    13    1
    20    19    17   ar
    21    20    18   ar
    22    18    17   ar
    23    17    16    1
    24    13    16    1
    25    13    14    1
    26    24    23    1
    27    24    25    1
    28    30    25   am
    29    30    31    1
    30    34    35    1
    31    34    31    1
    32    25    26    2
    33   145   143    1
    34    31    32    1
    35    14    15    2
    36   141   140    2
    37    45    43   ar
    38    45    46   ar
    39   144   143    1
    40    43    41   ar
    41   142   143    1
    42   142   139    1
    43    46    44   ar
    44   140   139    1
    45    41    40    1
    46    41    42   ar
    47    40    37    1
    48   139   138    1
    49    44    42   ar
    50    32    33    2
    51    57    56   ar
    52    57    55   ar
    53    56    54   ar
    54    37    36    1
    55    37    38    1
    56   136   133    1
    57   136   137    1
    58   135   134    2
    59   133   134    1
    60   133   132    1
    61   130   128    1
    62    55    53   ar
    63   127   126    2
    64    54    52   ar
    65   132   126   am
    66    38    47   am
    67    38    39    2
    68   126   125    1
    69    47    48    1
    70   128   125    1
    71   128   129    1
    72    53    52   ar
    73    52    51    1
    74   123   122    2
    75   125   124    1
    76   121   122    1
    77   121   120    1
    78   129   131    1
    79   110   109    1
    80    48    51    1
    81    48    49    1
    82   120   114   am
    83   115   114    2
    84   108   107    2
    85    49    50    2
    86   109   111    1
    87   109   106    1
    88   114   113    1
    89   107   106    1
    90   106   105    1
    91   116   113    1
    92   116   117    1
    93    74    71    1
    94   113   112    1
    95    70    71    1
    96    70    68   am
    97   119   117    1
    98   118   117    1
    99    61    60    2
   100    71    72    1
   101   105   100   am
   102    67    68    1
   103    67    66    1
   104    68    69    2
   105    60    66   am
   106    60    59    1
   107   173   175   ar
   108   173   171   ar
   109   101   100    2
   110   160   159    1
   111    92    91    2
   112    72    73    2
   113   100    99    1
   114    62    59    1
   115    62    63    1
   116   175   174   ar
   117    96    95    2
   118    91    90    1
   119    64    63    1
   120   170   171   ar
   121   170   168   ar
   122    59    58    1
   123    93    90    1
   124    93    94    1
   125   171   169   ar
   126   161   159    1
   127    95    97   am
   128    95    94    1
   129    63    65    1
   130   159   156    1
   131    90    89    1
   132    99    98    1
   133    99   102    1
   134   174   172   ar
   135   102   104    1
   136   102   103    1
   137   168   167   ar
   138   169   172   ar
   139   169   167   ar
   140   158   157    2
   141   156   157    1
   142   156   155    1
   143    89    77   am
   144   167   166    1
   145    78    77    2
   146    77    76    1
   147   155   148   am
   148   149   148    2
   149    87    85   ar
   150    87    88   ar
   151    75    76    1
   152   148   147    1
   153   166   163    1
   154    85    82   ar
   155    76    79    1
   156    88    86   ar
   157   150   147    1
   158   150   151    1
   159   162   163    1
   160   163   164    1
   161   147   146    1
   162    82    84   ar
   163    82    80   ar
   164    79    80    1
   165    86    84   ar
   166   151   152    1
   167    84    83   ar
   168    80    81   ar
   169   164   165    2
   170   152   154   am
   171   152   153    2
   172    81    83   ar
