@<TRIPOS>MOLECULE
tmp/6etgA00.pdb
 155 146 0 0 0
SMALL
GASTEIGER

@<TRIPOS>ATOM
      1  N         -6.3060  -23.7660  -17.9080 N.3    67  GLN67      -0.1245
      2  CA        -7.1010  -23.0060  -18.8640 C.3    67  GLN67       0.1566
      3  C         -7.5350  -23.9150  -20.0370 C.2    67  GLN67       0.2260
      4  O         -6.7310  -24.1970  -20.9330 O.2    67  GLN67      -0.2867
      5  CB        -6.3280  -21.7790  -19.3930 C.3    67  GLN67       0.0367
      6  CG        -5.8820  -20.8460  -18.2720 C.3    67  GLN67       0.0905
      7  CD        -5.1960  -19.6630  -18.9030 C.2    67  GLN67       0.2608
      8  OE1       -4.1810  -19.7630  -19.5840 O.2    67  GLN67      -0.2717
      9  NE2       -5.7610  -18.5000  -18.6710 N.am   67  GLN67      -0.0878
     10  N         -1.7990  -21.7510  -14.9930 N.3   126  TYR126     -0.1241
     11  CA        -1.0520  -20.5200  -14.5140 C.3   126  TYR126      0.1605
     12  C         -1.6120  -19.9660  -13.1280 C.2   126  TYR126      0.2264
     13  O         -2.5540  -20.4500  -12.4590 O.2   126  TYR126     -0.2867
     14  CB        -1.2750  -19.4590  -15.4850 C.3   126  TYR126      0.0534
     15  CG        -2.5250  -18.6760  -15.4450 C.ar  126  TYR126     -0.0201
     16  CD1       -3.7340  -19.2510  -15.5080 C.ar  126  TYR126     -0.0009
     17  CD2       -2.4570  -17.3380  -15.3580 C.ar  126  TYR126     -0.0009
     18  CE1       -4.8980  -18.4850  -15.4920 C.ar  126  TYR126      0.0417
     19  CE2       -3.5810  -16.5530  -15.3490 C.ar  126  TYR126      0.0417
     20  CZ        -4.8140  -17.1370  -15.3900 C.ar  126  TYR126      0.1957
     21  OH        -5.9740  -16.3630  -15.4260 O.3   126  TYR126     -0.2866
     22  N         -2.6540  -16.8220  -10.9840 N.3   128  ALA128     -0.1245
     23  CA        -3.1580  -15.4940  -11.2930 C.3   128  ALA128      0.1562
     24  C         -3.6170  -14.7420  -10.0570 C.2   128  ALA128      0.2260
     25  O         -4.1030  -15.3140   -9.1010 O.2   128  ALA128     -0.2867
     26  CB        -4.2810  -15.6180  -12.3100 C.3   128  ALA128      0.0290
     27  N          1.5680  -12.7090  -11.0880 N.3   171  TYR171     -0.1241
     28  CA         1.1460  -13.6760  -12.0780 C.3   171  TYR171      0.1605
     29  C          2.3040  -14.5600  -12.4340 C.2   171  TYR171      0.2264
     30  O          3.3550  -14.0800  -12.6790 O.2   171  TYR171     -0.2867
     31  CB         0.6560  -12.9810  -13.3570 C.3   171  TYR171      0.0534
     32  CG        -0.4930  -12.0500  -13.0820 C.ar  171  TYR171     -0.0201
     33  CD1       -0.2980  -10.7910  -12.5840 C.ar  171  TYR171     -0.0009
     34  CD2       -1.7820  -12.4700  -13.2530 C.ar  171  TYR171     -0.0009
     35  CE1       -1.3400   -9.9800  -12.2540 C.ar  171  TYR171      0.0417
     36  CE2       -2.8240  -11.6550  -12.9280 C.ar  171  TYR171      0.0417
     37  CZ        -2.5830  -10.4260  -12.4110 C.ar  171  TYR171      0.1957
     38  OH        -3.5910   -9.5810  -12.0750 O.3   171  TYR171     -0.2866
     39  N          3.2160  -17.4760  -15.2270 N.3   173  GLY173     -0.1225
     40  CA         2.7670  -17.9930  -16.5100 C.3   173  GLY173      0.1811
     41  C          3.6430  -19.1100  -17.0280 C.2   173  GLY173      0.2280
     42  O          4.7890  -19.3040  -16.5640 O.2   173  GLY173     -0.2866
     43  N         -0.1680  -19.9820  -21.6910 N.3   177  THR177     -0.1203
     44  CA        -1.1350  -19.3340  -20.7610 C.3   177  THR177      0.1994
     45  C         -1.6270  -18.0470  -21.4820 C.2   177  THR177      0.2619
     46  O         -0.8630  -17.3370  -22.1230 O.2   177  THR177     -0.2717
     47  CB        -0.7100  -19.1520  -19.3390 C.3   177  THR177      0.1784
     48  OG1        0.4240  -18.3290  -19.2710 O.3   177  THR177     -0.2211
     49  CG2       -0.4460  -20.4760  -18.7260 C.3   177  THR177      0.0376
     50  N         -2.9240  -17.8310  -21.3400 N.am  178  THR178     -0.1938
     51  CA        -3.6870  -16.9330  -22.2140 C.3   178  THR178      0.2028
     52  C         -4.4990  -15.9480  -21.4290 C.2   178  THR178      0.2642
     53  O         -5.1730  -16.3190  -20.4840 O.2   178  THR178     -0.2714
     54  CB        -4.6380  -17.7610  -23.0250 C.3   178  THR178      0.1808
     55  OG1       -3.9260  -18.7100  -23.8430 O.3   178  THR178     -0.2208
     56  CG2       -5.4980  -16.9730  -23.9330 C.3   178  THR178      0.0379
     57  N         -4.4450  -14.6840  -21.8360 N.am  179  PHE179     -0.1973
     58  CA        -5.3040  -13.6320  -21.2790 C.3   179  PHE179      0.1639
     59  C         -6.3390  -13.3080  -22.3560 C.2   179  PHE179      0.2290
     60  O         -5.9760  -12.8920  -23.4730 O.2   179  PHE179     -0.2864
     61  CB        -4.6700  -12.4110  -20.6210 C.3   179  PHE179      0.0560
     62  CG        -3.6610  -11.7160  -21.4010 C.ar  179  PHE179     -0.0200
     63  CD1       -2.3690  -12.2380  -21.5980 C.ar  179  PHE179     -0.0042
     64  CD2       -3.9060  -10.4220  -21.8770 C.ar  179  PHE179     -0.0042
     65  CE1       -1.4120  -11.4710  -22.2680 C.ar  179  PHE179     -0.0003
     66  CE2       -2.9590   -9.6770  -22.5180 C.ar  179  PHE179     -0.0003
     67  CZ        -1.7350  -10.2210  -22.7630 C.ar  179  PHE179     -0.0000
     68  N        -10.2290   -8.2190  -23.1190 N.3   182  HIS182     -0.1241
     69  CA       -10.8850   -7.4870  -22.0610 C.3   182  HIS182      0.1621
     70  C        -10.3970   -6.0550  -22.0280 C.2   182  HIS182      0.2264
     71  O         -9.3080   -5.7350  -22.5250 O.2   182  HIS182     -0.2867
     72  CB       -10.6670   -8.1230  -20.6620 C.3   182  HIS182      0.0745
     73  CG        -9.2510   -7.9700  -20.1990 C.ar  182  HIS182      0.0817
     74  ND1       -8.2430   -8.7150  -20.7800 N.ar  182  HIS182     -0.2268
     75  CD2       -8.6010   -7.1700  -19.2770 C.ar  182  HIS182      0.1154
     76  CE1       -7.0570   -8.3870  -20.2120 C.ar  182  HIS182      0.1986
     77  NE2       -7.2480   -7.4360  -19.3040 N.ar  182  HIS182     -0.2212
     78  N        -10.0000   -3.1800  -18.6300 N.3   184  GLU184     -0.1245
     79  CA        -9.9140   -3.2690  -17.1820 C.3   184  GLU184      0.1567
     80  C        -11.2620   -2.9950  -16.5160 C.2   184  GLU184      0.2260
     81  O        -12.1040   -2.3340  -17.1330 O.2   184  GLU184     -0.2867
     82  CB        -8.8000   -2.3660  -16.6490 C.3   184  GLU184      0.0388
     83  CG        -7.4970   -2.6300  -17.2870 C.3   184  GLU184      0.1160
     84  CD        -6.9780   -4.0040  -17.1250 C.2   184  GLU184      0.3649
     85  OE1       -6.9530   -4.4960  -16.0280 O.co2 184  GLU184     -0.2457
     86  OE2       -6.6030   -4.6140  -18.1280 O.co2 184  GLU184     -0.2457
     87  N         -4.0660   -0.0020  -16.7260 N.3   190  SER190     -0.1217
     88  CA        -3.2600   -0.9770  -16.0150 C.3   190  SER190      0.1889
     89  C         -1.8220   -0.7800  -16.3600 C.2   190  SER190      0.2288
     90  O         -1.4540   -0.2080  -17.3870 O.2   190  SER190     -0.2866
     91  CB        -3.6960   -2.4190  -16.2600 C.3   190  SER190      0.2089
     92  OG        -3.3830   -2.7820  -17.5940 O.3   190  SER190     -0.2183
     93  N          1.8500   -3.2910  -16.1530 N.3   192  ASN192     -0.1240
     94  CA         2.3550   -4.6530  -16.0100 C.3   192  ASN192      0.1653
     95  C          3.8370   -4.6270  -16.1850 C.2   192  ASN192      0.2266
     96  O          4.3400   -4.1380  -17.2220 O.2   192  ASN192     -0.2867
     97  CB         1.6920   -5.5120  -17.1130 C.3   192  ASN192      0.1155
     98  CG         2.1120   -6.9480  -17.0610 C.2   192  ASN192      0.2627
     99  OD1        3.2840   -7.2890  -17.2060 O.2   192  ASN192     -0.2716
    100  ND2        1.1260   -7.8360  -16.8270 N.am  192  ASN192     -0.0877
    101  N          5.8860  -12.1280  -23.1400 N.3   200  LYS200     -0.1245
    102  CA         4.4370  -12.1150  -23.2310 C.3   200  LYS200      0.1561
    103  C          4.1030  -11.3140  -24.5160 C.2   200  LYS200      0.2260
    104  O          4.5540  -10.1910  -24.6660 O.2   200  LYS200     -0.2867
    105  CB         3.8120  -11.4130  -22.0060 C.3   200  LYS200      0.0271
    106  CG         2.3070  -11.3450  -22.0800 C.3   200  LYS200      0.0035
    107  CD         1.6440  -10.5120  -20.9920 C.3   200  LYS200      0.0206
    108  CE         1.2230  -11.1960  -19.7320 C.3   200  LYS200      0.1093
    109  NZ         2.3530  -11.8820  -18.8740 N.3   200  LYS200     -0.1314
    110  N          1.2390   -9.3780  -26.6720 N.3   202  TRP202     -0.1241
    111  CA         0.0050   -8.6380  -26.4750 C.3   202  TRP202      0.1605
    112  C         -0.6130   -8.2660  -27.8210 C.2   202  TRP202      0.2264
    113  O          0.1190   -7.8950  -28.7370 O.2   202  TRP202     -0.2867
    114  CB         0.3210   -7.2980  -25.7780 C.3   202  TRP202      0.0550
    115  CG         0.9570   -7.4010  -24.4130 C.ar  202  TRP202      0.0003
    116  CD1        2.1820   -7.7940  -24.0670 C.ar  202  TRP202      0.0946
    117  CD2        0.3190   -6.9960  -23.1760 C.ar  202  TRP202      0.0152
    118  NE1        2.3900   -7.7140  -22.7260 N.ar  202  TRP202     -0.2442
    119  CE2        1.2690   -7.1890  -22.1430 C.ar  202  TRP202      0.0810
    120  CE3       -0.9200   -6.4360  -22.8140 C.ar  202  TRP202      0.0012
    121  CZ2        1.0360   -6.8900  -20.7890 C.ar  202  TRP202      0.0191
    122  CZ3       -1.1830   -6.1030  -21.5090 C.ar  202  TRP202      0.0001
    123  CH2       -0.2200   -6.3290  -20.5290 C.ar  202  TRP202      0.0015
    124  N        -14.1010  -12.2150  -19.3080 N.3   235  LYS235     -0.1245
    125  CA       -12.7250  -12.5250  -19.5740 C.3   235  LYS235      0.1561
    126  C        -12.4620  -13.9920  -19.9300 C.2   235  LYS235      0.2260
    127  O        -11.6470  -14.6110  -19.3960 O.2   235  LYS235     -0.2867
    128  CB       -11.8280  -11.9760  -18.4240 C.3   235  LYS235      0.0271
    129  CG       -12.0800  -10.4820  -18.0980 C.3   235  LYS235      0.0035
    130  CD       -11.1900   -9.8390  -17.0140 C.3   235  LYS235      0.0206
    131  CE       -11.8140   -8.5600  -16.3820 C.3   235  LYS235      0.1093
    132  NZ       -10.9930   -7.3680  -15.9040 N.3   235  LYS235     -0.1314
    133  N         -7.4530   -5.6850  -24.7930 N.3   270  HIS270     -0.1241
    134  CA        -6.2050   -6.4030  -24.9850 C.3   270  HIS270      0.1621
    135  C         -6.3790   -7.8850  -24.6800 C.2   270  HIS270      0.2264
    136  O         -7.3000   -8.2650  -23.9220 O.2   270  HIS270     -0.2867
    137  CB        -5.0380   -5.7610  -24.2180 C.3   270  HIS270      0.0745
    138  CG        -5.3030   -5.5750  -22.7510 C.ar  270  HIS270      0.0817
    139  ND1       -6.1140   -4.5800  -22.2570 N.ar  270  HIS270     -0.2268
    140  CD2       -4.8750   -6.2560  -21.6820 C.ar  270  HIS270      0.1154
    141  CE1       -6.1760   -4.6660  -20.9380 C.ar  270  HIS270      0.1986
    142  NE2       -5.4240   -5.6770  -20.5790 N.ar  270  HIS270     -0.2212
    143  N          1.6250  -16.0300  -23.0540 N.3   274  ASN274     -0.1240
    144  CA         2.9930  -16.1690  -22.5310 C.3   274  ASN274      0.1653
    145  C          3.7680  -17.1980  -23.3130 C.2   274  ASN274      0.2266
    146  O          3.2600  -18.2040  -23.7900 O.2   274  ASN274     -0.2867
    147  CB         2.9780  -16.5370  -21.0270 C.3   274  ASN274      0.1155
    148  CG         2.4450  -15.4180  -20.2210 C.2   274  ASN274      0.2627
    149  OD1        2.9400  -14.3070  -20.1980 O.2   274  ASN274     -0.2716
    150  ND2        1.4650  -15.7050  -19.4570 N.am  274  ASN274     -0.0877
    151  N          1.2460   -6.6680  -11.7680 N.3   282  ALA282     -0.1245
    152  CA         0.3910   -5.6970  -12.4080 C.3   282  ALA282      0.1562
    153  C         -0.5350   -5.0710  -11.3640 C.2   282  ALA282      0.2260
    154  O         -0.8710   -5.6330  -10.3270 O.2   282  ALA282     -0.2867
    155  CB        -0.4530   -6.3440  -13.5160 C.3   282  ALA282      0.0290
@<TRIPOS>BOND
     1   113   112    2
     2   112   111    1
     3   110   111    1
     4   111   114    1
     5   114   115    1
     6   134   133    1
     7   134   135    1
     8   134   137    1
     9   135   136    2
    10   104   103    2
    11   103   102    1
    12   115   116   ar
    13   115   117   ar
    14   137   138    1
    15   116   118   ar
    16    56    54    1
    17    55    54    1
    18   146   145    2
    19    60    59    2
    20   145   144    1
    21   102   101    1
    22   102   105    1
    23   117   120   ar
    24   117   119   ar
    25    68    69    1
    26   143   144    1
    27    54    51    1
    28   120   122   ar
    29    67    66   ar
    30    67    65   ar
    31   138   139   ar
    32   138   140   ar
    33   118   119   ar
    34   144   147    1
    35    71    70    2
    36    66    64   ar
    37    59    58    1
    38    65    63   ar
    39   139   141   ar
    40    51    52    1
    41    51    50    1
    42   119   121   ar
    43    46    45    2
    44   106   105    1
    45   106   107    1
    46    69    70    1
    47    69    72    1
    48    64    62   ar
    49    57    52   am
    50    57    58    1
    51    43    44    1
    52   140   142   ar
    53    63    62   ar
    54   122   123   ar
    55    45    50   am
    56    45    44    1
    57    52    53    2
    58    62    61    1
    59    58    61    1
    60   147   148    1
    61   107   108    1
    62   141   142   ar
    63     4     3    2
    64   121   123   ar
    65    74    76   ar
    66    74    73   ar
    67    44    47    1
    68    72    73    1
    69   148   149    2
    70   148   150   am
    71    76    77   ar
    72    73    75   ar
    73     3     2    1
    74   126   125    1
    75   126   127    2
    76   108   109    1
    77     8     7    2
    78   125   124    1
    79   125   128    1
    80     5     2    1
    81     5     6    1
    82    47    48    1
    83    47    49    1
    84    77    75   ar
    85     7     9   am
    86     7     6    1
    87     2     1    1
    88    78    79    1
    89   128   129    1
    90    86    84   ar
    91   129   130    1
    92    92    91    1
    93    90    89    2
    94    83    84    1
    95    83    82    1
    96    96    95    2
    97    99    98    2
    98    79    82    1
    99    79    80    1
   100    81    80    2
   101    84    85   ar
   102    97    98    1
   103    97    94    1
   104    98   100   am
   105    41    42    2
   106    41    40    1
   107   130   131    1
   108    87    88    1
   109    40    39    1
   110   131   132    1
   111    89    88    1
   112    91    88    1
   113    95    94    1
   114    93    94    1
   115    16    18   ar
   116    16    15   ar
   117    18    20   ar
   118    14    15    1
   119    14    11    1
   120    15    17   ar
   121    21    20    1
   122    20    19   ar
   123    17    19   ar
   124    10    11    1
   125    11    12    1
   126   155   152    1
   127    31    32    1
   128    31    28    1
   129    34    32   ar
   130    34    36   ar
   131    12    13    2
   132    32    33   ar
   133    36    37   ar
   134    30    29    2
   135    33    35   ar
   136    29    28    1
   137    37    35   ar
   138    37    38    1
   139   152   151    1
   140   152   153    1
   141    26    23    1
   142    28    27    1
   143   153   154    2
   144    23    22    1
   145    23    24    1
   146    24    25    2
