@<TRIPOS>MOLECULE
tmp/6etjA01.pdb
 192 184 0 0 0
SMALL
GASTEIGER

@<TRIPOS>ATOM
      1  N         45.2360   34.5160    4.0460 N.3    58  VAL58      -0.1231
      2  CA        46.1330   34.9370    5.1200 C.3    58  VAL58       0.1692
      3  C         45.7030   36.2900    5.7630 C.2    58  VAL58       0.2592
      4  O         45.7410   36.4580    6.9860 O.2    58  VAL58      -0.2718
      5  CB        47.6070   34.8910    4.6590 C.3    58  VAL58       0.0266
      6  CG1       48.5200   35.5420    5.6810 C.3    58  VAL58       0.0020
      7  CG2       48.0610   33.4370    4.4580 C.3    58  VAL58       0.0020
      8  N         45.2360   37.2240    4.9440 N.am   59  GLY59      -0.1957
      9  CA        44.7470   38.5050    5.4200 C.3    59  GLY59       0.1869
     10  C         43.5790   38.3850    6.3790 C.2    59  GLY59       0.2309
     11  O         43.4740   39.1590    7.3320 O.2    59  GLY59      -0.2863
     12  N         45.0130   37.7240    9.6130 N.3    62  ARG62      -0.1231
     13  CA        45.7020   38.8620   10.1700 C.3    62  ARG62       0.1694
     14  C         44.7050   39.8030   10.8030 C.2    62  ARG62       0.2591
     15  O         44.9680   40.3370   11.8750 O.2    62  ARG62      -0.2718
     16  CB        46.5350   39.5780    9.1140 C.3    62  ARG62       0.0321
     17  CG        47.1650   40.8570    9.6310 C.3    62  ARG62       0.0489
     18  CD        46.2690   42.0610    9.3850 C.3    62  ARG62       0.2205
     19  NE        46.1960   42.3560    7.9580 N.pl3  62  ARG62      -0.0865
     20  CZ        45.3470   43.2080    7.3930 C.cat  62  ARG62       0.5346
     21  NH1       44.4710   43.8980    8.1300 N.pl3  62  ARG62       0.1354
     22  NH2       45.3710   43.3580    6.0780 N.pl3  62  ARG62       0.1354
     23  N         43.5650   39.9960   10.1400 N.am   63  ARG63      -0.1980
     24  CA        42.4910   40.8420   10.6690 C.3    63  ARG63       0.1597
     25  C         41.8670   40.2010   11.9070 C.2    63  ARG63       0.2287
     26  O         41.2490   40.8700   12.7230 O.2    63  ARG63      -0.2864
     27  CB        41.4240   41.1490    9.5980 C.3    63  ARG63       0.0334
     28  CG        41.8380   42.2130    8.5900 C.3    63  ARG63       0.0492
     29  CD        40.8030   42.5190    7.5060 C.3    63  ARG63       0.2205
     30  NE        40.7680   41.5260    6.4190 N.pl3  63  ARG63      -0.0865
     31  CZ        41.4820   41.5540    5.2820 C.cat  63  ARG63       0.5346
     32  NH1       42.3370   42.5290    5.0330 N.pl3  63  ARG63       0.1354
     33  NH2       41.3370   40.5820    4.3710 N.pl3  63  ARG63       0.1354
     34  N         52.7750   46.9120    6.8200 N.3    75  PHE75      -0.1241
     35  CA        53.3920   46.0460    5.8160 C.3    75  PHE75       0.1605
     36  C         54.8570   46.3300    5.5060 C.2    75  PHE75       0.2264
     37  O         55.4310   45.6570    4.6650 O.2    75  PHE75      -0.2867
     38  CB        52.5480   46.0110    4.5310 C.3    75  PHE75       0.0534
     39  CG        51.1550   45.4760    4.7500 C.ar   75  PHE75      -0.0203
     40  CD1       50.1000   46.3400    4.9840 C.ar   75  PHE75      -0.0042
     41  CD2       50.9210   44.1050    4.7640 C.ar   75  PHE75      -0.0042
     42  CE1       48.8260   45.8500    5.2170 C.ar   75  PHE75      -0.0003
     43  CE2       49.6470   43.6050    5.0060 C.ar   75  PHE75      -0.0003
     44  CZ        48.5930   44.4770    5.2330 C.ar   75  PHE75      -0.0000
     45  N         58.7640   46.1850    5.2510 N.3    77  PRO77      -0.2116
     46  CA        59.7110   45.0700    5.4430 C.3    77  PRO77       0.1372
     47  C         60.5900   45.2500    6.6950 C.2    77  PRO77       0.2244
     48  O         61.1110   44.2650    7.2180 O.2    77  PRO77      -0.2868
     49  CB        60.5640   45.1170    4.1730 C.3    77  PRO77       0.0268
     50  CG        60.5220   46.5560    3.7500 C.3    77  PRO77       0.0207
     51  CD        59.1280   47.0160    4.0830 C.3    77  PRO77       0.0892
     52  N         56.0120   41.6690   10.9890 N.3    83  MET83      -0.1245
     53  CA        56.4700   40.5470   10.2050 C.3    83  MET83       0.1570
     54  C         56.3570   39.2100   10.9520 C.2    83  MET83       0.2261
     55  O         56.1100   38.1500   10.3360 O.2    83  MET83      -0.2867
     56  CB        57.9040   40.8070    9.7780 C.3    83  MET83       0.0387
     57  CG        58.2790   40.1750    8.4550 C.3    83  MET83       0.0595
     58  SD        57.5710   41.0140    7.0240 S.3    83  MET83      -0.1393
     59  CE        58.8050   40.4830    5.8360 C.3    83  MET83       0.0692
     60  N         52.5670   38.3750   10.8790 N.3    86  ARG86      -0.1231
     61  CA        52.2240   37.9340    9.5450 C.3    86  ARG86       0.1694
     62  C         52.7260   36.5140    9.2670 C.2    86  ARG86       0.2591
     63  O         51.9370   35.6760    8.7860 O.2    86  ARG86      -0.2718
     64  CB        52.7350   38.9460    8.5250 C.3    86  ARG86       0.0321
     65  CG        51.9700   40.2680    8.6110 C.3    86  ARG86       0.0489
     66  CD        52.6050   41.4040    7.8330 C.3    86  ARG86       0.2205
     67  NE        52.5300   41.1460    6.4080 N.pl3  86  ARG86      -0.0865
     68  CZ        53.4470   41.5140    5.5190 C.cat  86  ARG86       0.5346
     69  NH1       54.5340   42.1920    5.8940 N.pl3  86  ARG86       0.1354
     70  NH2       53.2670   41.2000    4.2390 N.pl3  86  ARG86       0.1354
     71  N         53.9940   36.2220    9.5960 N.am   87  LYS87      -0.1980
     72  CA        54.5180   34.8470    9.4640 C.3    87  LYS87       0.1596
     73  C         53.7110   33.8090   10.2540 C.2    87  LYS87       0.2287
     74  O         53.4140   32.7160    9.7260 O.2    87  LYS87      -0.2864
     75  CB        56.0100   34.7400    9.7800 C.3    87  LYS87       0.0298
     76  CG        56.8570   35.1640    8.5960 C.3    87  LYS87       0.0038
     77  CD        58.3460   35.2890    8.8800 C.3    87  LYS87       0.0206
     78  CE        58.9010   36.4310    8.0280 C.3    87  LYS87       0.1093
     79  NZ        60.3580   36.6930    8.2000 N.3    87  LYS87      -0.1314
     80  N         50.3780   33.0660    8.4650 N.3    90  ALA90      -0.1245
     81  CA        50.5240   32.2010    7.3170 C.3    90  ALA90       0.1562
     82  C         50.5960   30.7660    7.8070 C.2    90  ALA90       0.2260
     83  O         49.8570   29.8900    7.3070 O.2    90  ALA90      -0.2867
     84  CB        51.7530   32.5740    6.4820 C.3    90  ALA90       0.0290
     85  N         45.3130   28.4540   -1.1150 N.3   111  PHE111     -0.1227
     86  CA        46.1130   29.2510   -0.1940 C.3   111  PHE111      0.1736
     87  C         46.2550   30.6630   -0.7780 C.2   111  PHE111      0.2595
     88  O         47.1010   30.9250   -1.6420 O.2   111  PHE111     -0.2718
     89  CB        47.4660   28.5580    0.0650 C.3   111  PHE111      0.0547
     90  CG        48.2540   29.1560    1.1980 C.ar  111  PHE111     -0.0202
     91  CD1       47.6920   29.2900    2.4640 C.ar  111  PHE111     -0.0042
     92  CD2       49.5560   29.6010    0.9980 C.ar  111  PHE111     -0.0042
     93  CE1       48.4060   29.8570    3.5070 C.ar  111  PHE111     -0.0003
     94  CE2       50.2710   30.1760    2.0380 C.ar  111  PHE111     -0.0003
     95  CZ        49.6930   30.3030    3.2930 C.ar  111  PHE111     -0.0000
     96  N         45.3730   31.5530   -0.3200 N.am  112  ASP112     -0.1960
     97  CA        45.2450   32.9060   -0.8540 C.3   112  ASP112      0.1840
     98  C         46.1240   33.9390   -0.1140 C.2   112  ASP112      0.2622
     99  O         45.7650   34.4470    0.9640 O.2   112  ASP112     -0.2715
    100  CB        43.7740   33.3230   -0.7970 C.3   112  ASP112      0.1450
    101  CG        43.5040   34.6470   -1.5120 C.2   112  ASP112      0.3671
    102  OD1       44.3420   35.1000   -2.3030 O.co2 112  ASP112     -0.2456
    103  OD2       42.4420   35.2450   -1.2990 O.co2 112  ASP112     -0.2456
    104  N         47.2650   34.2510   -0.7050 N.am  113  ALA113     -0.1963
    105  CA        48.2080   35.2170   -0.1260 C.3   113  ALA113      0.1728
    106  C         49.1790   35.6690   -1.2180 C.2   113  ALA113      0.2617
    107  O         49.0410   35.2650   -2.3750 O.2   113  ALA113     -0.2715
    108  CB        48.9750   34.6090    1.0360 C.3   113  ALA113      0.0334
    109  N         50.1680   36.4740   -0.8400 N.am  114  THR114     -0.1937
    110  CA        51.0660   37.0970   -1.8130 C.3   114  THR114      0.2028
    111  C         52.0610   36.0960   -2.3290 C.2   114  THR114      0.2642
    112  O         52.1840   35.9450   -3.5370 O.2   114  THR114     -0.2714
    113  CB        51.7610   38.3900   -1.2900 C.3   114  THR114      0.1808
    114  OG1       52.3600   38.1470   -0.0140 O.3   114  THR114     -0.2208
    115  CG2       50.7500   39.4860   -1.1340 C.3   114  THR114      0.0379
    116  N         52.7510   35.4200   -1.4120 N.am  115  ASN115     -0.1957
    117  CA        53.6640   34.3200   -1.7490 C.3   115  ASN115      0.1819
    118  C         54.6400   34.7010   -2.8140 C.2   115  ASN115      0.2622
    119  O         54.9200   33.9270   -3.7400 O.2   115  ASN115     -0.2715
    120  CB        52.8800   33.0740   -2.1550 C.3   115  ASN115      0.1195
    121  CG        52.0740   32.5320   -1.0130 C.2   115  ASN115      0.2630
    122  OD1       52.6220   32.3180    0.0670 O.2   115  ASN115     -0.2716
    123  ND2       50.7670   32.3510   -1.2130 N.am  115  ASN115     -0.0877
    124  N         55.1880   35.8930   -2.6480 N.am  116  THR116     -0.1937
    125  CA        55.9790   36.5360   -3.6780 C.3   116  THR116      0.2028
    126  C         57.4850   36.2320   -3.6700 C.2   116  THR116      0.2642
    127  O         58.2000   36.6290   -4.6060 O.2   116  THR116     -0.2714
    128  CB        55.7600   38.0410   -3.6170 C.3   116  THR116      0.1808
    129  OG1       56.0460   38.4930   -2.2890 O.3   116  THR116     -0.2208
    130  CG2       54.3120   38.3690   -3.9700 C.3   116  THR116      0.0379
    131  N         57.9780   35.5170   -2.6630 N.am  117  THR117     -0.1950
    132  CA        59.4250   35.2210   -2.6320 C.3   117  THR117      0.1897
    133  C         59.6900   33.7410   -2.8400 C.2   117  THR117      0.2313
    134  O         58.8510   32.9240   -2.5200 O.2   117  THR117     -0.2863
    135  CB        60.0850   35.6780   -1.3150 C.3   117  THR117      0.1794
    136  OG1       59.4470   35.0230   -0.2160 O.3   117  THR117     -0.2208
    137  CG2       59.9550   37.2050   -1.1380 C.3   117  THR117      0.0378
    138  N         61.8660   32.0460   -1.1090 N.3   119  GLU119     -0.1231
    139  CA        61.9550   31.5890    0.2950 C.3   119  GLU119      0.1699
    140  C         60.6100   31.0190    0.7140 C.2   119  GLU119      0.2592
    141  O         60.4680   29.8540    1.0880 O.2   119  GLU119     -0.2718
    142  CB        62.3650   32.7580    1.2420 C.3   119  GLU119      0.0402
    143  CG        62.0130   32.6160    2.7460 C.3   119  GLU119      0.1161
    144  CD        60.9220   33.5840    3.2550 C.2   119  GLU119      0.3649
    145  OE1       60.5960   34.5780    2.5590 O.co2 119  GLU119     -0.2457
    146  OE2       60.3880   33.3680    4.3760 O.co2 119  GLU119     -0.2457
    147  N         59.6080   31.8820    0.6330 N.am  120  ARG120     -0.1980
    148  CA        58.2750   31.5720    1.0900 C.3   120  ARG120      0.1597
    149  C         57.6370   30.3830    0.3370 C.2   120  ARG120      0.2287
    150  O         57.0220   29.5130    0.9640 O.2   120  ARG120     -0.2864
    151  CB        57.4340   32.8390    1.0230 C.3   120  ARG120      0.0334
    152  CG        56.0130   32.6840    1.4790 C.3   120  ARG120      0.0492
    153  CD        55.5540   34.0030    2.0500 C.3   120  ARG120      0.2205
    154  NE        56.1340   34.1960    3.3750 N.pl3 120  ARG120     -0.0865
    155  CZ        55.6480   33.6500    4.4880 C.cat 120  ARG120      0.5346
    156  NH1       54.5760   32.8580    4.4630 N.pl3 120  ARG120      0.1354
    157  NH2       56.2410   33.8930    5.6440 N.pl3 120  ARG120      0.1354
    158  N         51.3810   50.4010    0.3730 N.3   177  ARG177     -0.1245
    159  CA        51.2530   49.0090    0.7610 C.3   177  ARG177      0.1563
    160  C         51.7440   48.1090   -0.3560 C.2   177  ARG177      0.2260
    161  O         52.5050   47.1630   -0.1120 O.2   177  ARG177     -0.2867
    162  CB        49.7920   48.7210    1.0760 C.3   177  ARG177      0.0307
    163  CG        49.4840   47.3660    1.6680 C.3   177  ARG177      0.0489
    164  CD        48.0080   47.3610    2.0690 C.3   177  ARG177      0.2205
    165  NE        47.4660   46.0040    2.1880 N.pl3 177  ARG177     -0.0865
    166  CZ        46.3230   45.6860    2.7950 C.cat 177  ARG177      0.5346
    167  NH1       45.5320   46.6030    3.3670 N.pl3 177  ARG177      0.1354
    168  NH2       45.9850   44.4190    2.8410 N.pl3 177  ARG177      0.1354
    169  N         55.6300   47.9470   -0.4620 N.3   180  CYS180     -0.1221
    170  CA        56.3450   47.0810    0.4750 C.3   180  CYS180      0.1808
    171  C         56.6830   45.7380   -0.1210 C.2   180  CYS180      0.2601
    172  O         57.6880   45.1450    0.2530 O.2   180  CYS180     -0.2717
    173  CB        55.5610   46.8680    1.7580 C.3   180  CYS180      0.0970
    174  SG        55.2220   48.4030    2.6470 S.3   180  CYS180     -0.0800
    175  N         55.8570   45.2590   -1.0550 N.am  181  TYR181     -0.1976
    176  CA        56.0690   43.9380   -1.6420 C.3   181  TYR181      0.1639
    177  C         56.9260   43.9990   -2.8880 C.2   181  TYR181      0.2290
    178  O         57.5490   43.0010   -3.2530 O.2   181  TYR181     -0.2864
    179  CB        54.7510   43.2620   -1.9800 C.3   181  TYR181      0.0560
    180  CG        53.8390   42.8750   -0.8250 C.ar  181  TYR181     -0.0198
    181  CD1       52.8420   43.7400   -0.3870 C.ar  181  TYR181     -0.0009
    182  CD2       53.9330   41.6150   -0.2170 C.ar  181  TYR181     -0.0009
    183  CE1       51.9670   43.3770    0.6320 C.ar  181  TYR181      0.0417
    184  CE2       53.0680   41.2450    0.8080 C.ar  181  TYR181      0.0417
    185  CZ        52.0830   42.1290    1.2290 C.ar  181  TYR181      0.1957
    186  OH        51.1940   41.7830    2.2440 O.3   181  TYR181     -0.2866
    187  N         61.0970   42.9050   -2.9500 N.3   184  SER184     -0.1217
    188  CA        61.5770   41.5130   -2.8490 C.3   184  SER184      0.1889
    189  C         60.8510   40.4880   -3.7490 C.2   184  SER184      0.2288
    190  O         61.1480   39.2800   -3.6790 O.2   184  SER184     -0.2866
    191  CB        61.4690   41.0630   -1.4130 C.3   184  SER184      0.2089
    192  OG        60.1510   41.3070   -0.9710 O.3   184  SER184     -0.2183
@<TRIPOS>BOND
     1   127   126    2
     2   130   128    1
     3   189   190    2
     4   189   188    1
     5   119   118    2
     6   125   126    1
     7   125   128    1
     8   125   124    1
     9   126   131   am
    10   128   129    1
    11   112   111    2
    12   178   177    2
    13   187   188    1
    14   177   176    1
    15   188   191    1
    16   133   132    1
    17   133   134    2
    18   118   124   am
    19   118   117    1
    20   131   132    1
    21   132   135    1
    22   107   106    2
    23   111   110    1
    24   111   116   am
    25   102   101   ar
    26   120   117    1
    27   120   121    1
    28   179   176    1
    29   179   180    1
    30   110   113    1
    31   110   109    1
    32   117   116    1
    33   176   175    1
    34    88    87    2
    35   101   103   ar
    36   101   100    1
    37   191   192    1
    38   135   137    1
    39   135   136    1
    40   113   115    1
    41   113   114    1
    42   106   109   am
    43   106   105    1
    44   123   121   am
    45    85    86    1
    46   138   139    1
    47   175   171   am
    48   121   122    2
    49    97   100    1
    50    97    96    1
    51    97    98    1
    52   180   181   ar
    53   180   182   ar
    54    87    96   am
    55    87    86    1
    56   104   105    1
    57   104    98   am
    58   169   170    1
    59   181   183   ar
    60   160   161    2
    61   160   159    1
    62   182   184   ar
    63    86    89    1
    64   105   108    1
    65   171   172    2
    66   171   170    1
    67    98    99    2
    68    89    90    1
    69   139   140    1
    70   139   142    1
    71   149   150    2
    72   149   148    1
    73   158   159    1
    74   170   173    1
    75   183   185   ar
    76   147   140   am
    77   147   148    1
    78   140   141    2
    79   159   162    1
    80   184   185   ar
    81    92    90   ar
    82    92    94   ar
    83   151   148    1
    84   151   152    1
    85   162   163    1
    86    90    91   ar
    87   185   186    1
    88   142   143    1
    89   152   153    1
    90   163   164    1
    91   173   174    1
    92    94    95   ar
    93   153   154    1
    94   164   165    1
    95   165   166    2
    96    91    93   ar
    97   145   144   ar
    98   143   144    1
    99   166   168    1
   100   166   167    1
   101   144   146   ar
   102    95    93   ar
   103   154   155    2
   104    50    51    1
   105    50    49    1
   106     1     2    1
   107    51    45    1
   108    49    46    1
   109    70    68    1
   110    33    31    1
   111     7     5    1
   112   156   155    1
   113   155   157    1
   114    38    39    1
   115    38    35    1
   116     5     2    1
   117     5     6    1
   118    37    36    2
   119    39    41   ar
   120    39    40   ar
   121    41    43   ar
   122     8     9    1
   123     8     3   am
   124    40    42   ar
   125    43    44   ar
   126    32    31    1
   127     2     3    1
   128    42    44   ar
   129    45    46    1
   130    31    30    2
   131     9    10    1
   132    46    47    1
   133    36    35    1
   134    68    69    1
   135    68    67    2
   136     3     4    2
   137    35    34    1
   138    59    58    1
   139    22    20    1
   140    10    11    2
   141    67    66    1
   142    30    29    1
   143    84    81    1
   144    47    48    2
   145    58    57    1
   146    83    82    2
   147    81    82    1
   148    81    80    1
   149    20    19    2
   150    20    21    1
   151    29    28    1
   152    66    65    1
   153    19    18    1
   154    78    79    1
   155    78    77    1
   156    57    56    1
   157    64    65    1
   158    64    61    1
   159    28    27    1
   160    76    77    1
   161    76    75    1
   162    63    62    2
   163    16    17    1
   164    16    13    1
   165    62    61    1
   166    62    71   am
   167    18    17    1
   168    72    71    1
   169    72    75    1
   170    72    73    1
   171    61    60    1
   172    27    24    1
   173    12    13    1
   174    74    73    2
   175    56    53    1
   176    23    24    1
   177    23    14   am
   178    13    14    1
   179    53    54    1
   180    53    52    1
   181    55    54    2
   182    24    25    1
   183    14    15    2
   184    25    26    2
