@<TRIPOS>MOLECULE
tmp/6etsA00.pdb
 111 106 0 0 0
SMALL
GASTEIGER

@<TRIPOS>ATOM
      1  N         -1.9020  -21.8080  -15.0890 N.3   126  TYR126     -0.1241
      2  CA        -1.5530  -20.3000  -14.8230 C.3   126  TYR126      0.1605
      3  C         -1.7450  -20.0080  -13.1790 C.2   126  TYR126      0.2264
      4  O         -2.6780  -20.3670  -12.6020 O.2   126  TYR126     -0.2867
      5  CB        -2.5310  -19.3450  -15.5600 C.3   126  TYR126      0.0534
      6  CG        -2.0630  -17.9770  -15.9060 C.ar  126  TYR126     -0.0201
      7  CD1       -0.7620  -17.6280  -15.7890 C.ar  126  TYR126     -0.0009
      8  CD2       -2.8910  -17.0700  -16.5070 C.ar  126  TYR126     -0.0009
      9  CE1       -0.3030  -16.3770  -16.1430 C.ar  126  TYR126      0.0417
     10  CE2       -2.4300  -15.8200  -16.9050 C.ar  126  TYR126      0.0417
     11  CZ        -1.1170  -15.4810  -16.7200 C.ar  126  TYR126      0.1957
     12  OH        -0.5850  -14.2630  -17.1120 O.3   126  TYR126     -0.2866
     13  N         -2.4670  -16.9850  -11.3080 N.3   128  ALA128     -0.1245
     14  CA        -2.9040  -15.6210  -11.4850 C.3   128  ALA128      0.1562
     15  C         -3.4840  -14.9150  -10.3270 C.2   128  ALA128      0.2260
     16  O         -3.9860  -15.4860   -9.4410 O.2   128  ALA128     -0.2867
     17  CB        -3.9030  -15.5780  -12.6280 C.3   128  ALA128      0.0290
     18  N          1.5930  -12.7970  -11.1420 N.3   171  TYR171     -0.1241
     19  CA         1.1830  -13.7580  -12.1290 C.3   171  TYR171      0.1605
     20  C          2.3760  -14.6210  -12.4580 C.2   171  TYR171      0.2264
     21  O          3.4150  -14.1460  -12.6770 O.2   171  TYR171     -0.2867
     22  CB         0.6940  -13.0740  -13.4000 C.3   171  TYR171      0.0534
     23  CG        -0.4640  -12.1470  -13.1740 C.ar  171  TYR171     -0.0201
     24  CD1       -0.2740  -10.8990  -12.6530 C.ar  171  TYR171     -0.0009
     25  CD2       -1.7290  -12.5390  -13.3990 C.ar  171  TYR171     -0.0009
     26  CE1       -1.2960  -10.0850  -12.3830 C.ar  171  TYR171      0.0417
     27  CE2       -2.7740  -11.6950  -13.1080 C.ar  171  TYR171      0.0417
     28  CZ        -2.5040  -10.4800  -12.5870 C.ar  171  TYR171      0.1957
     29  OH        -3.4790   -9.6040  -12.2670 O.3   171  TYR171     -0.2866
     30  N         -4.4070  -14.6540  -21.7080 N.3   179  PHE179     -0.1241
     31  CA        -5.3010  -13.6660  -21.1580 C.3   179  PHE179      0.1605
     32  C         -6.2450  -13.2940  -22.2630 C.2   179  PHE179      0.2264
     33  O         -5.9090  -12.9010  -23.3560 O.2   179  PHE179     -0.2867
     34  CB        -4.6930  -12.4780  -20.4130 C.3   179  PHE179      0.0534
     35  CG        -3.6250  -11.7410  -21.1950 C.ar  179  PHE179     -0.0203
     36  CD1       -2.3270  -12.2280  -21.3620 C.ar  179  PHE179     -0.0042
     37  CD2       -3.9400  -10.4680  -21.6980 C.ar  179  PHE179     -0.0042
     38  CE1       -1.3780  -11.4490  -22.0910 C.ar  179  PHE179     -0.0003
     39  CE2       -3.0350   -9.6670  -22.3040 C.ar  179  PHE179     -0.0003
     40  CZ        -1.7510  -10.1790  -22.5490 C.ar  179  PHE179     -0.0000
     41  N        -10.2490   -8.2530  -23.0570 N.3   182  HIS182     -0.1241
     42  CA       -10.9190   -7.4920  -22.0020 C.3   182  HIS182      0.1621
     43  C        -10.4280   -6.0930  -21.9640 C.2   182  HIS182      0.2264
     44  O         -9.3260   -5.7890  -22.4160 O.2   182  HIS182     -0.2867
     45  CB       -10.7320   -8.1750  -20.6160 C.3   182  HIS182      0.0745
     46  CG        -9.3300   -8.0300  -20.1320 C.ar  182  HIS182      0.0817
     47  ND1       -8.3350   -8.8080  -20.6930 N.ar  182  HIS182     -0.2268
     48  CD2       -8.7400   -7.2960  -19.1760 C.ar  182  HIS182      0.1154
     49  CE1       -7.1550   -8.4490  -20.1250 C.ar  182  HIS182      0.1986
     50  NE2       -7.3680   -7.5030  -19.2250 N.ar  182  HIS182     -0.2212
     51  N        -10.0480   -3.2530  -18.5180 N.3   184  GLU184     -0.1245
     52  CA       -10.0090   -3.3890  -17.0650 C.3   184  GLU184      0.1567
     53  C        -11.3230   -3.0330  -16.4440 C.2   184  GLU184      0.2260
     54  O        -12.1940   -2.4110  -17.0310 O.2   184  GLU184     -0.2867
     55  CB        -8.9330   -2.4630  -16.5220 C.3   184  GLU184      0.0388
     56  CG        -7.5480   -2.7280  -17.0920 C.3   184  GLU184      0.1160
     57  CD        -7.1050   -4.1300  -17.0040 C.2   184  GLU184      0.3649
     58  OE1       -7.0890   -4.6090  -15.9000 O.co2 184  GLU184     -0.2457
     59  OE2       -6.6630   -4.7110  -17.9680 O.co2 184  GLU184     -0.2457
     60  N         -4.1180   -0.0720  -16.6110 N.3   190  SER190     -0.1217
     61  CA        -3.2860   -1.0560  -15.9380 C.3   190  SER190      0.1889
     62  C         -1.8300   -0.8090  -16.2310 C.2   190  SER190      0.2288
     63  O         -1.4690   -0.2310  -17.2660 O.2   190  SER190     -0.2866
     64  CB        -3.6830   -2.5330  -16.2190 C.3   190  SER190      0.2089
     65  OG        -3.2760   -2.9130  -17.5190 O.3   190  SER190     -0.2183
     66  N          1.8640   -3.1660  -15.9680 N.3   192  ASN192     -0.1240
     67  CA         2.3350   -4.5770  -15.9310 C.3   192  ASN192      0.1653
     68  C          3.8380   -4.5250  -16.0840 C.2   192  ASN192      0.2266
     69  O          4.3210   -4.0330  -17.0810 O.2   192  ASN192     -0.2867
     70  CB         1.6740   -5.4830  -17.1010 C.3   192  ASN192      0.1155
     71  CG         2.0770   -6.9270  -17.0280 C.2   192  ASN192      0.2627
     72  OD1        3.2180   -7.2200  -17.1530 O.2   192  ASN192     -0.2716
     73  ND2        1.0920   -7.8110  -16.9490 N.am  192  ASN192     -0.0877
     74  N          5.8970  -12.1310  -23.0460 N.3   200  LYS200     -0.1245
     75  CA         4.4620  -12.0650  -23.1080 C.3   200  LYS200      0.1561
     76  C          4.0990  -11.2820  -24.3780 C.2   200  LYS200      0.2260
     77  O          4.5300  -10.1930  -24.5420 O.2   200  LYS200     -0.2867
     78  CB         3.8540  -11.4010  -21.8480 C.3   200  LYS200      0.0271
     79  CG         2.3300  -11.3360  -21.8330 C.3   200  LYS200      0.0035
     80  CD         1.7650  -10.5090  -20.6950 C.3   200  LYS200      0.0206
     81  CE         1.2890  -11.3090  -19.5270 C.3   200  LYS200      0.1093
     82  NZ         2.3030  -11.8620  -18.6330 N.3   200  LYS200     -0.1314
     83  N          1.2540   -9.3950  -26.5680 N.3   202  TRP202     -0.1241
     84  CA         0.0300   -8.5830  -26.3970 C.3   202  TRP202      0.1605
     85  C         -0.6250   -8.2280  -27.7120 C.2   202  TRP202      0.2264
     86  O          0.1170   -7.8920  -28.6640 O.2   202  TRP202     -0.2867
     87  CB         0.3470   -7.3250  -25.7070 C.3   202  TRP202      0.0550
     88  CG         0.9550   -7.3420  -24.3110 C.ar  202  TRP202      0.0003
     89  CD1        2.2060   -7.7490  -23.9630 C.ar  202  TRP202      0.0946
     90  CD2        0.3410   -6.9620  -23.0900 C.ar  202  TRP202      0.0152
     91  NE1        2.3560   -7.6410  -22.6210 N.ar  202  TRP202     -0.2442
     92  CE2        1.2430   -7.1450  -22.0540 C.ar  202  TRP202      0.0810
     93  CE3       -0.9320   -6.4440  -22.7610 C.ar  202  TRP202      0.0012
     94  CZ2        0.9550   -6.8220  -20.7040 C.ar  202  TRP202      0.0191
     95  CZ3       -1.1790   -6.1310  -21.4590 C.ar  202  TRP202      0.0001
     96  CH2       -0.3250   -6.3160  -20.4430 C.ar  202  TRP202      0.0015
     97  N         -7.4770   -5.7000  -24.6410 N.3   270  HIS270     -0.1241
     98  CA        -6.2540   -6.3950  -24.8350 C.3   270  HIS270      0.1621
     99  C         -6.3760   -7.8850  -24.5850 C.2   270  HIS270      0.2264
    100  O         -7.3000   -8.2520  -23.8240 O.2   270  HIS270     -0.2867
    101  CB        -5.0460   -5.7700  -24.0610 C.3   270  HIS270      0.0745
    102  CG        -5.3310   -5.6070  -22.6210 C.ar  270  HIS270      0.0817
    103  ND1       -6.1270   -4.5970  -22.1150 N.ar  270  HIS270     -0.2268
    104  CD2       -4.8980   -6.2880  -21.5260 C.ar  270  HIS270      0.1154
    105  CE1       -6.2110   -4.7280  -20.7990 C.ar  270  HIS270      0.1986
    106  NE2       -5.4790   -5.7440  -20.3900 N.ar  270  HIS270     -0.2212
    107  N          1.1910   -6.7050  -11.7380 N.3   282  ALA282     -0.1245
    108  CA         0.3270   -5.7170  -12.3430 C.3   282  ALA282      0.1562
    109  C         -0.5870   -5.1120  -11.2930 C.2   282  ALA282      0.2260
    110  O         -0.9190   -5.7140  -10.2700 O.2   282  ALA282     -0.2867
    111  CB        -0.4610   -6.3870  -13.4390 C.3   282  ALA282      0.0290
@<TRIPOS>BOND
     1    86    85    2
     2    85    84    1
     3    83    84    1
     4    84    87    1
     5    87    88    1
     6    98    97    1
     7    98    99    1
     8    98   101    1
     9    99   100    2
    10    77    76    2
    11    76    75    1
    12    88    89   ar
    13    88    90   ar
    14   101   102    1
    15    89    91   ar
    16    33    32    2
    17    75    74    1
    18    75    78    1
    19    90    93   ar
    20    90    92   ar
    21    41    42    1
    22    93    95   ar
    23   102   103   ar
    24   102   104   ar
    25    91    92   ar
    26    40    39   ar
    27    40    38   ar
    28    44    43    2
    29    39    37   ar
    30    32    31    1
    31   103   105   ar
    32    38    36   ar
    33    92    94   ar
    34    42    43    1
    35    42    45    1
    36    78    79    1
    37    79    80    1
    38    30    31    1
    39    37    35   ar
    40   104   106   ar
    41    95    96   ar
    42    36    35   ar
    43    35    34    1
    44    31    34    1
    45   105   106   ar
    46    94    96   ar
    47    80    81    1
    48    47    46   ar
    49    47    49   ar
    50    45    46    1
    51    46    48   ar
    52    49    50   ar
    53    81    82    1
    54    50    48   ar
    55    51    52    1
    56    59    57   ar
    57    65    64    1
    58    63    62    2
    59    72    71    2
    60    12    11    1
    61    70    71    1
    62    70    67    1
    63    56    57    1
    64    56    55    1
    65    69    68    2
    66    52    55    1
    67    52    53    1
    68    54    53    2
    69    71    73   am
    70    57    58   ar
    71    10    11   ar
    72    10     8   ar
    73    11     9   ar
    74    60    61    1
    75     8     6   ar
    76    62    61    1
    77    64    61    1
    78     9     7   ar
    79    68    67    1
    80    66    67    1
    81     6     7   ar
    82     6     5    1
    83     5     2    1
    84     1     2    1
    85     2     3    1
    86   111   108    1
    87    22    23    1
    88    22    19    1
    89    25    23   ar
    90    25    27   ar
    91     3     4    2
    92    23    24   ar
    93    27    28   ar
    94    21    20    2
    95    24    26   ar
    96    17    14    1
    97    28    26   ar
    98    28    29    1
    99    20    19    1
   100   108   107    1
   101   108   109    1
   102    19    18    1
   103    14    13    1
   104    14    15    1
   105   109   110    2
   106    15    16    2
