@<TRIPOS>MOLECULE
tmp/6ettA00.pdb
 156 150 0 0 0
SMALL
GASTEIGER

@<TRIPOS>ATOM
      1  N         -4.7810  -22.4150  -12.0040 N.3    65  LEU65      -0.1245
      2  CA        -5.9400  -22.6380  -12.8780 C.3    65  LEU65       0.1561
      3  C         -5.5270  -23.2540  -14.2010 C.2    65  LEU65       0.2260
      4  O         -4.6840  -22.7130  -14.9300 O.2    65  LEU65      -0.2867
      5  CB        -6.6810  -21.3250  -13.1290 C.3    65  LEU65       0.0270
      6  CG        -7.2400  -20.6430  -11.8730 C.3    65  LEU65       0.0019
      7  CD1       -7.8030  -19.2750  -12.2140 C.3    65  LEU65       0.0001
      8  CD2       -8.2770  -21.4990  -11.2190 C.3    65  LEU65       0.0001
      9  N         -6.3110  -23.9820  -17.9220 N.3    67  GLN67      -0.1245
     10  CA        -7.0700  -23.2100  -18.9060 C.3    67  GLN67       0.1566
     11  C         -7.5060  -24.1070  -20.0680 C.2    67  GLN67       0.2260
     12  O         -6.7640  -24.3200  -21.0280 O.2    67  GLN67      -0.2867
     13  CB        -6.2390  -22.0350  -19.4090 C.3    67  GLN67       0.0367
     14  CG        -5.6850  -21.1580  -18.2910 C.3    67  GLN67       0.0905
     15  CD        -5.0890  -19.8950  -18.8370 C.2    67  GLN67       0.2608
     16  OE1       -3.9900  -19.8960  -19.3910 O.2    67  GLN67      -0.2717
     17  NE2       -5.8210  -18.8080  -18.7230 N.am   67  GLN67      -0.0878
     18  N        -12.0630  -20.2430  -22.9330 N.3    78  GLN78      -0.1245
     19  CA       -11.3450  -21.0480  -21.9660 C.3    78  GLN78       0.1566
     20  C        -12.0550  -21.0230  -20.6330 C.2    78  GLN78       0.2260
     21  O        -12.5250  -19.9900  -20.1870 O.2    78  GLN78      -0.2867
     22  CB        -9.8750  -20.6340  -21.8320 C.3    78  GLN78       0.0367
     23  CG        -9.6460  -19.2010  -21.4230 C.3    78  GLN78       0.0905
     24  CD        -8.1740  -18.7800  -21.4720 C.2    78  GLN78       0.2608
     25  OE1       -7.2890  -19.5080  -21.9260 O.2    78  GLN78      -0.2717
     26  NE2       -7.9120  -17.5870  -20.9900 N.am   78  GLN78      -0.0878
     27  N        -11.7020  -22.2200  -16.5460 N.3    80  HIS80      -0.1241
     28  CA       -10.6380  -22.3410  -15.5740 C.3    80  HIS80       0.1621
     29  C        -10.9450  -23.3830  -14.5340 C.2    80  HIS80       0.2264
     30  O        -11.8610  -23.2350  -13.7300 O.2    80  HIS80      -0.2867
     31  CB       -10.3630  -20.9650  -14.9810 C.3    80  HIS80       0.0745
     32  CG        -9.8180  -20.0150  -16.0030 C.ar   80  HIS80       0.0817
     33  ND1      -10.4620  -18.8720  -16.4260 N.ar   80  HIS80      -0.2268
     34  CD2       -8.7240  -20.1330  -16.7870 C.ar   80  HIS80       0.1154
     35  CE1       -9.7390  -18.2850  -17.3680 C.ar   80  HIS80       0.1986
     36  NE2       -8.6840  -19.0340  -17.6100 N.ar   80  HIS80      -0.2212
     37  N         -2.0340  -21.8090  -15.1060 N.3   126  TYR126     -0.1241
     38  CA        -1.7090  -20.3870  -14.8560 C.3   126  TYR126      0.1605
     39  C         -1.8580  -20.0950  -13.3820 C.2   126  TYR126      0.2264
     40  O         -2.8770  -20.2820  -12.8370 O.2   126  TYR126     -0.2867
     41  CB        -2.6870  -19.5010  -15.6650 C.3   126  TYR126      0.0534
     42  CG        -2.2780  -18.1000  -16.0080 C.ar  126  TYR126     -0.0201
     43  CD1       -1.0620  -17.5710  -15.6520 C.ar  126  TYR126     -0.0009
     44  CD2       -3.1100  -17.3040  -16.7560 C.ar  126  TYR126     -0.0009
     45  CE1       -0.7030  -16.2960  -16.0070 C.ar  126  TYR126      0.0417
     46  CE2       -2.7480  -16.0260  -17.1280 C.ar  126  TYR126      0.0417
     47  CZ        -1.5470  -15.5230  -16.7260 C.ar  126  TYR126      0.1957
     48  OH        -1.1370  -14.2860  -17.1000 O.3   126  TYR126     -0.2866
     49  N         -2.4660  -17.1840  -11.6340 N.3   128  ALA128     -0.1231
     50  CA        -2.8990  -15.7980  -11.8410 C.3   128  ALA128      0.1694
     51  C         -3.4330  -15.1690  -10.5730 C.2   128  ALA128      0.2592
     52  O         -3.9120  -15.8660   -9.6830 O.2   128  ALA128     -0.2718
     53  CB        -3.9640  -15.7550  -12.9200 C.3   128  ALA128      0.0304
     54  N         -3.3650  -13.8390  -10.5100 N.am  129  ASP129     -0.1974
     55  CA        -4.1440  -13.0640   -9.5440 C.3   129  ASP129      0.1709
     56  C         -3.7900  -13.3970   -8.0760 C.2   129  ASP129      0.2293
     57  O         -4.6590  -13.6340   -7.2450 O.2   129  ASP129     -0.2864
     58  CB        -5.6470  -13.2740   -9.7880 C.3   129  ASP129      0.1436
     59  CG        -6.1130  -12.7830  -11.1500 C.2   129  ASP129      0.3671
     60  OD1       -5.4690  -11.9110  -11.7350 O.co2 129  ASP129     -0.2456
     61  OD2       -7.1660  -13.2420  -11.6100 O.co2 129  ASP129     -0.2456
     62  N          1.6290  -12.8880  -11.0600 N.3   171  TYR171     -0.1241
     63  CA         1.2020  -13.8700  -12.0440 C.3   171  TYR171      0.1605
     64  C          2.3850  -14.7580  -12.3730 C.2   171  TYR171      0.2264
     65  O          3.4610  -14.2580  -12.6930 O.2   171  TYR171     -0.2867
     66  CB         0.6950  -13.1690  -13.3100 C.3   171  TYR171      0.0534
     67  CG        -0.4480  -12.2280  -13.0100 C.ar  171  TYR171     -0.0201
     68  CD1       -0.2080  -10.9700  -12.4610 C.ar  171  TYR171     -0.0009
     69  CD2       -1.7630  -12.6080  -13.2300 C.ar  171  TYR171     -0.0009
     70  CE1       -1.2380  -10.1190  -12.1490 C.ar  171  TYR171      0.0417
     71  CE2       -2.8020  -11.7600  -12.9290 C.ar  171  TYR171      0.0417
     72  CZ        -2.5370  -10.5160  -12.3810 C.ar  171  TYR171      0.1957
     73  OH        -3.5720   -9.6630  -12.0670 O.3   171  TYR171     -0.2866
     74  N         -2.8350  -17.9180  -21.1750 N.3   178  THR178     -0.1203
     75  CA        -3.5790  -16.9930  -22.0320 C.3   178  THR178      0.1994
     76  C         -4.3880  -16.0140  -21.1990 C.2   178  THR178      0.2618
     77  O         -5.0610  -16.4190  -20.2540 O.2   178  THR178     -0.2717
     78  CB        -4.5760  -17.8150  -22.8810 C.3   178  THR178      0.1784
     79  OG1       -3.8580  -18.7500  -23.6970 O.3   178  THR178     -0.2211
     80  CG2       -5.4080  -16.9640  -23.7810 C.3   178  THR178      0.0376
     81  N         -4.3420  -14.7300  -21.5630 N.am  179  PHE179     -0.1961
     82  CA        -5.2950  -13.7460  -21.0530 C.3   179  PHE179      0.1771
     83  C         -6.2580  -13.3800  -22.1740 C.2   179  PHE179      0.2619
     84  O         -5.8520  -12.9680  -23.2600 O.2   179  PHE179     -0.2715
     85  CB        -4.6430  -12.5230  -20.3730 C.3   179  PHE179      0.0574
     86  CG        -3.5960  -11.7910  -21.1790 C.ar  179  PHE179     -0.0200
     87  CD1       -2.3170  -12.3070  -21.3370 C.ar  179  PHE179     -0.0042
     88  CD2       -3.8670  -10.5310  -21.7020 C.ar  179  PHE179     -0.0042
     89  CE1       -1.3520  -11.5940  -22.0370 C.ar  179  PHE179     -0.0003
     90  CE2       -2.9060   -9.8170  -22.3780 C.ar  179  PHE179     -0.0003
     91  CZ        -1.6560  -10.3550  -22.5580 C.ar  179  PHE179     -0.0000
     92  N         -7.5350  -13.5940  -21.8900 N.am  180  ALA180     -0.1977
     93  CA        -8.6150  -13.3770  -22.8300 C.3   180  ALA180      0.1597
     94  C         -8.8450  -11.8950  -23.0870 C.2   180  ALA180      0.2287
     95  O         -8.3750  -11.0420  -22.3450 O.2   180  ALA180     -0.2864
     96  CB        -9.8980  -14.0200  -22.2830 C.3   180  ALA180      0.0319
     97  N        -10.1760   -8.3660  -22.9350 N.3   182  HIS182     -0.1241
     98  CA       -10.8380   -7.6210  -21.8750 C.3   182  HIS182      0.1621
     99  C        -10.3620   -6.1930  -21.8470 C.2   182  HIS182      0.2264
    100  O         -9.2730   -5.8690  -22.3270 O.2   182  HIS182     -0.2867
    101  CB       -10.5720   -8.2570  -20.4810 C.3   182  HIS182      0.0745
    102  CG        -9.1390   -8.1550  -20.0350 C.ar  182  HIS182      0.0817
    103  ND1       -8.1510   -8.9270  -20.5970 N.ar  182  HIS182     -0.2268
    104  CD2       -8.5190   -7.3650  -19.1190 C.ar  182  HIS182      0.1154
    105  CE1       -6.9840   -8.6180  -20.0510 C.ar  182  HIS182      0.1986
    106  NE2       -7.1770   -7.6680  -19.1500 N.ar  182  HIS182     -0.2212
    107  N          1.8380   -3.3340  -16.0030 N.3   192  ASN192     -0.1240
    108  CA         2.3290   -4.6910  -15.8910 C.3   192  ASN192      0.1653
    109  C          3.8460   -4.6800  -16.0330 C.2   192  ASN192      0.2266
    110  O          4.3760   -4.1450  -17.0130 O.2   192  ASN192     -0.2867
    111  CB         1.7070   -5.5460  -16.9980 C.3   192  ASN192      0.1155
    112  CG         2.1470   -6.9980  -16.9400 C.2   192  ASN192      0.2627
    113  OD1        3.3370   -7.3140  -17.0840 O.2   192  ASN192     -0.2716
    114  ND2        1.1870   -7.8900  -16.7010 N.am  192  ASN192     -0.0877
    115  N          5.9520  -12.1940  -22.9960 N.3   200  LYS200     -0.1245
    116  CA         4.4960  -12.1680  -23.0840 C.3   200  LYS200      0.1561
    117  C          4.1570  -11.3970  -24.3630 C.2   200  LYS200      0.2260
    118  O          4.6030  -10.2630  -24.5260 O.2   200  LYS200     -0.2867
    119  CB         3.8730  -11.4620  -21.8730 C.3   200  LYS200      0.0271
    120  CG         2.3480  -11.3510  -21.9570 C.3   200  LYS200      0.0035
    121  CD         1.7350  -10.5200  -20.8250 C.3   200  LYS200      0.0206
    122  CE         1.3070  -11.2890  -19.5780 C.3   200  LYS200      0.1093
    123  NZ         2.4380  -11.8340  -18.7750 N.3   200  LYS200     -0.1314
    124  N          1.2800   -9.4800  -26.5490 N.3   202  TRP202     -0.1241
    125  CA         0.0590   -8.7200  -26.3350 C.3   202  TRP202      0.1605
    126  C         -0.5720   -8.3480  -27.6700 C.2   202  TRP202      0.2264
    127  O          0.1280   -7.9990  -28.6370 O.2   202  TRP202     -0.2867
    128  CB         0.3730   -7.3880  -25.6530 C.3   202  TRP202      0.0550
    129  CG         1.0030   -7.4450  -24.2960 C.ar  202  TRP202      0.0003
    130  CD1        2.2550   -7.8770  -23.9610 C.ar  202  TRP202      0.0946
    131  CD2        0.3950   -7.0190  -23.0680 C.ar  202  TRP202      0.0152
    132  NE1        2.4660   -7.7460  -22.6130 N.ar  202  TRP202     -0.2442
    133  CE2        1.3380   -7.2250  -22.0430 C.ar  202  TRP202      0.0810
    134  CE3       -0.8540   -6.4710  -22.7390 C.ar  202  TRP202      0.0012
    135  CZ2        1.0770   -6.8850  -20.7090 C.ar  202  TRP202      0.0191
    136  CZ3       -1.1130   -6.1490  -21.4260 C.ar  202  TRP202      0.0001
    137  CH2       -0.1610   -6.3710  -20.4250 C.ar  202  TRP202      0.0015
    138  N        -13.8360  -12.4790  -19.1650 N.3   235  LYS235     -0.1245
    139  CA       -12.4270  -12.7370  -19.4170 C.3   235  LYS235      0.1561
    140  C        -12.1650  -14.2090  -19.7950 C.2   235  LYS235      0.2260
    141  O        -11.2340  -14.8410  -19.2990 O.2   235  LYS235     -0.2867
    142  CB       -11.6250  -12.3100  -18.1900 C.3   235  LYS235      0.0271
    143  CG       -10.3130  -11.6630  -18.4640 C.3   235  LYS235      0.0035
    144  CD        -9.6600  -11.1400  -17.1890 C.3   235  LYS235      0.0206
    145  CE        -8.1800  -10.9400  -17.4060 C.3   235  LYS235      0.1093
    146  NZ        -7.5110  -10.5870  -16.1370 N.3   235  LYS235     -0.1314
    147  N         -7.4370   -5.8020  -24.6250 N.3   270  HIS270     -0.1241
    148  CA        -6.1960   -6.5320  -24.8470 C.3   270  HIS270      0.1621
    149  C         -6.3480   -7.9970  -24.4850 C.2   270  HIS270      0.2264
    150  O         -7.2530   -8.3880  -23.7510 O.2   270  HIS270     -0.2867
    151  CB        -5.0170   -5.8920  -24.0940 C.3   270  HIS270      0.0745
    152  CG        -5.2670   -5.7010  -22.6300 C.ar  270  HIS270      0.0817
    153  ND1       -6.0480   -4.6760  -22.1460 N.ar  270  HIS270     -0.2268
    154  CD2       -4.8610   -6.4070  -21.5420 C.ar  270  HIS270      0.1154
    155  CE1       -6.1240   -4.7660  -20.8300 C.ar  270  HIS270      0.1986
    156  NE2       -5.4100   -5.8010  -20.4300 N.ar  270  HIS270     -0.2212
@<TRIPOS>BOND
     1   127   126    2
     2   126   125    1
     3   124   125    1
     4   125   128    1
     5   128   129    1
     6   148   147    1
     7   148   149    1
     8   148   151    1
     9   118   117    2
    10   149   150    2
    11   117   116    1
    12   129   130   ar
    13   129   131   ar
    14   151   152    1
    15   130   132   ar
    16    80    78    1
    17    79    78    1
    18    84    83    2
    19    94    93    1
    20    94    95    2
    21   116   115    1
    22   116   119    1
    23   131   134   ar
    24   131   133   ar
    25    97    98    1
    26    18    19    1
    27    78    75    1
    28    93    96    1
    29    93    92    1
    30   134   136   ar
    31   152   153   ar
    32   152   154   ar
    33   132   133   ar
    34    91    90   ar
    35    91    89   ar
    36    90    88   ar
    37   100    99    2
    38    83    92   am
    39    83    82    1
    40   153   155   ar
    41   133   135   ar
    42    89    87   ar
    43    75    76    1
    44    75    74    1
    45    19    22    1
    46    19    20    1
    47   120   119    1
    48   120   121    1
    49    25    24    2
    50    98    99    1
    51    98   101    1
    52    22    23    1
    53    88    86   ar
    54    81    76   am
    55    81    82    1
    56   154   156   ar
    57    24    23    1
    58    24    26   am
    59   136   137   ar
    60    87    86   ar
    61    76    77    2
    62    86    85    1
    63    82    85    1
    64    12    11    2
    65   155   156   ar
    66   121   122    1
    67   135   137   ar
    68    20    21    2
    69   103   105   ar
    70   103   102   ar
    71   101   102    1
    72    11    10    1
    73   105   106   ar
    74   102   104   ar
    75   140   139    1
    76   140   141    2
    77   122   123    1
    78   139   138    1
    79   139   142    1
    80    13    10    1
    81    13    14    1
    82    16    15    2
    83   106   104   ar
    84    10     9    1
    85    15    17   am
    86    15    14    1
    87   143   142    1
    88   143   144    1
    89    36    35   ar
    90    36    34   ar
    91   145   144    1
    92   145   146    1
    93    35    33   ar
    94    46    44   ar
    95    46    47   ar
    96    48    47    1
    97   113   112    2
    98   110   109    2
    99   111   112    1
   100   111   108    1
   101   112   114   am
   102    34    32   ar
   103    44    42   ar
   104    47    45   ar
   105    27    28    1
   106    33    32   ar
   107   109   108    1
   108    42    41    1
   109    42    43   ar
   110    45    43   ar
   111   107   108    1
   112    32    31    1
   113    41    38    1
   114    28    31    1
   115    28    29    1
   116    37    38    1
   117     4     3    2
   118    38    39    1
   119    29    30    2
   120     3     2    1
   121    39    40    2
   122    66    67    1
   123    66    63    1
   124    69    67   ar
   125    69    71   ar
   126     5     2    1
   127     5     6    1
   128    67    68   ar
   129    71    72   ar
   130    53    50    1
   131     2     1    1
   132    65    64    2
   133    68    70   ar
   134    72    70   ar
   135    72    73    1
   136    64    63    1
   137     7     6    1
   138    63    62    1
   139     6     8    1
   140    50    49    1
   141    50    51    1
   142    60    59   ar
   143    61    59   ar
   144    59    58    1
   145    51    54   am
   146    51    52    2
   147    54    55    1
   148    58    55    1
   149    55    56    1
   150    56    57    2
