@<TRIPOS>MOLECULE
tmp/6etuA00.pdb
 140 133 0 0 0
SMALL
GASTEIGER

@<TRIPOS>ATOM
      1  N         -1.5780  -21.8700  -14.7210 N.3   126  TYR126     -0.1241
      2  CA        -0.9670  -20.6420  -14.3020 C.3   126  TYR126      0.1605
      3  C         -1.4180  -20.1450  -12.9600 C.2   126  TYR126      0.2264
      4  O         -2.3980  -20.6080  -12.4460 O.2   126  TYR126     -0.2867
      5  CB        -1.2020  -19.5960  -15.3640 C.3   126  TYR126      0.0534
      6  CG        -2.4740  -18.8190  -15.3680 C.ar  126  TYR126     -0.0201
      7  CD1       -3.6790  -19.4040  -15.3990 C.ar  126  TYR126     -0.0009
      8  CD2       -2.4310  -17.4830  -15.4280 C.ar  126  TYR126     -0.0009
      9  CE1       -4.8370  -18.6640  -15.4620 C.ar  126  TYR126      0.0417
     10  CE2       -3.5730  -16.7230  -15.4830 C.ar  126  TYR126      0.0417
     11  CZ        -4.7780  -17.3320  -15.4930 C.ar  126  TYR126      0.1957
     12  OH        -5.9620  -16.6560  -15.5690 O.3   126  TYR126     -0.2866
     13  N          1.4990  -12.7510  -11.1810 N.3   171  TYR171     -0.1241
     14  CA         1.0540  -13.7470  -12.1630 C.3   171  TYR171      0.1605
     15  C          2.2340  -14.6240  -12.4790 C.2   171  TYR171      0.2264
     16  O          3.2940  -14.0980  -12.7920 O.2   171  TYR171     -0.2867
     17  CB         0.6190  -13.0400  -13.4470 C.3   171  TYR171      0.0534
     18  CG        -0.5340  -12.0920  -13.2450 C.ar  171  TYR171     -0.0201
     19  CD1       -0.3280  -10.8100  -12.7590 C.ar  171  TYR171     -0.0009
     20  CD2       -1.8310  -12.5290  -13.4700 C.ar  171  TYR171     -0.0009
     21  CE1       -1.3510   -9.9800  -12.4940 C.ar  171  TYR171      0.0417
     22  CE2       -2.9120  -11.6800  -13.2020 C.ar  171  TYR171      0.0417
     23  CZ        -2.6230  -10.4220  -12.6620 C.ar  171  TYR171      0.1957
     24  OH        -3.6350   -9.5500  -12.3690 O.3   171  TYR171     -0.2866
     25  N         -0.0820  -20.0350  -21.6240 N.3   177  THR177     -0.1203
     26  CA        -0.9340  -19.3290  -20.6940 C.3   177  THR177      0.1994
     27  C         -1.5160  -18.1100  -21.4060 C.2   177  THR177      0.2619
     28  O         -0.7630  -17.3780  -22.0240 O.2   177  THR177     -0.2717
     29  CB        -0.1810  -18.9020  -19.4580 C.3   177  THR177      0.1784
     30  OG1        0.2570  -20.0850  -18.7460 O.3   177  THR177     -0.2211
     31  CG2       -0.9870  -18.0570  -18.5660 C.3   177  THR177      0.0376
     32  N         -2.8140  -17.8850  -21.2490 N.am  178  THR178     -0.1938
     33  CA        -3.5700  -16.9680  -22.1180 C.3   178  THR178      0.2028
     34  C         -4.3700  -16.0060  -21.3110 C.2   178  THR178      0.2642
     35  O         -5.0820  -16.4020  -20.3920 O.2   178  THR178     -0.2714
     36  CB        -4.5340  -17.7810  -22.9530 C.3   178  THR178      0.1808
     37  OG1       -3.7960  -18.7150  -23.7570 O.3   178  THR178     -0.2208
     38  CG2       -5.3840  -16.9320  -23.8580 C.3   178  THR178      0.0379
     39  N         -4.3330  -14.7370  -21.6700 N.am  179  PHE179     -0.1973
     40  CA        -5.2680  -13.7760  -21.1240 C.3   179  PHE179      0.1639
     41  C         -6.2560  -13.3870  -22.1910 C.2   179  PHE179      0.2290
     42  O         -5.8800  -12.9620  -23.3170 O.2   179  PHE179     -0.2864
     43  CB        -4.6830  -12.5440  -20.4110 C.3   179  PHE179      0.0560
     44  CG        -3.6080  -11.8050  -21.1120 C.ar  179  PHE179     -0.0200
     45  CD1       -2.3160  -12.3380  -21.1550 C.ar  179  PHE179     -0.0042
     46  CD2       -3.8330  -10.4730  -21.6250 C.ar  179  PHE179     -0.0042
     47  CE1       -1.3000  -11.5800  -21.7760 C.ar  179  PHE179     -0.0003
     48  CE2       -2.8640   -9.7110  -22.1730 C.ar  179  PHE179     -0.0003
     49  CZ        -1.5870  -10.2920  -22.2930 C.ar  179  PHE179     -0.0000
     50  N        -10.1800   -8.3120  -22.9400 N.3   182  HIS182     -0.1241
     51  CA       -10.8860   -7.5750  -21.8730 C.3   182  HIS182      0.1621
     52  C        -10.3880   -6.1420  -21.8470 C.2   182  HIS182      0.2264
     53  O         -9.2920   -5.8340  -22.3190 O.2   182  HIS182     -0.2867
     54  CB       -10.6730   -8.2370  -20.4860 C.3   182  HIS182      0.0745
     55  CG        -9.2390   -8.1340  -20.0060 C.ar  182  HIS182      0.0817
     56  ND1       -8.2190   -8.8560  -20.5810 N.ar  182  HIS182     -0.2268
     57  CD2       -8.6600   -7.3390  -19.0840 C.ar  182  HIS182      0.1154
     58  CE1       -7.0590   -8.5310  -19.9780 C.ar  182  HIS182      0.1986
     59  NE2       -7.3280   -7.6170  -19.0480 N.ar  182  HIS182     -0.2212
     60  N        -10.0870   -3.3010  -18.4310 N.3   184  GLU184     -0.1245
     61  CA       -10.0210   -3.3930  -16.9790 C.3   184  GLU184      0.1567
     62  C        -11.3720   -3.0540  -16.3380 C.2   184  GLU184      0.2260
     63  O        -12.1850   -2.4870  -16.9220 O.2   184  GLU184     -0.2867
     64  CB        -8.9550   -2.4530  -16.4530 C.3   184  GLU184      0.0388
     65  CG        -7.6100   -2.6550  -17.0870 C.3   184  GLU184      0.1160
     66  CD        -7.1110   -4.0540  -16.9270 C.2   184  GLU184      0.3649
     67  OE1       -6.9340   -4.4780  -15.8370 O.co2 184  GLU184     -0.2457
     68  OE2       -6.8480   -4.7240  -17.8840 O.co2 184  GLU184     -0.2457
     69  N         -4.1280    0.0130  -16.5810 N.3   190  SER190     -0.1217
     70  CA        -3.3160   -0.9830  -15.8810 C.3   190  SER190      0.1889
     71  C         -1.8550   -0.7120  -16.1620 C.2   190  SER190      0.2288
     72  O         -1.4950   -0.1670  -17.2100 O.2   190  SER190     -0.2866
     73  CB        -3.6720   -2.4220  -16.1570 C.3   190  SER190      0.2089
     74  OG        -3.3100   -2.7790  -17.4910 O.3   190  SER190     -0.2183
     75  N          1.8340   -3.0360  -15.9130 N.3   192  ASN192     -0.1240
     76  CA         2.2390   -4.4710  -15.9160 C.3   192  ASN192      0.1653
     77  C          3.7200   -4.5240  -16.1110 C.2   192  ASN192      0.2266
     78  O          4.2510   -4.0610  -17.1050 O.2   192  ASN192     -0.2867
     79  CB         1.5730   -5.3790  -17.0440 C.3   192  ASN192      0.1155
     80  CG         2.0240   -6.8460  -16.9950 C.2   192  ASN192      0.2627
     81  OD1        3.3430   -7.0590  -17.1090 O.2   192  ASN192     -0.2716
     82  ND2        1.1660   -7.7890  -16.8160 N.am  192  ASN192     -0.0877
     83  N          5.9370  -12.1000  -22.9670 N.3   200  LYS200     -0.1245
     84  CA         4.4830  -11.9950  -22.9370 C.3   200  LYS200      0.1561
     85  C          4.0840  -11.2100  -24.2210 C.2   200  LYS200      0.2260
     86  O          4.5220  -10.0810  -24.3460 O.2   200  LYS200     -0.2867
     87  CB         4.0520  -11.1710  -21.6960 C.3   200  LYS200      0.0271
     88  CG         2.6340  -11.4000  -21.1580 C.3   200  LYS200      0.0035
     89  CD         2.2630  -10.4670  -19.9560 C.3   200  LYS200      0.0206
     90  CE         2.9340  -10.7420  -18.6130 C.3   200  LYS200      0.1093
     91  NZ         3.9050   -9.6170  -18.4510 N.3   200  LYS200     -0.1314
     92  N          1.2600   -9.3420  -26.4440 N.3   202  TRP202     -0.1241
     93  CA         0.0320   -8.5840  -26.2500 C.3   202  TRP202      0.1605
     94  C         -0.6090   -8.2270  -27.5950 C.2   202  TRP202      0.2264
     95  O          0.1010   -7.8170  -28.5190 O.2   202  TRP202     -0.2867
     96  CB         0.3140   -7.2890  -25.5550 C.3   202  TRP202      0.0550
     97  CG         0.9400   -7.3550  -24.1540 C.ar  202  TRP202      0.0003
     98  CD1        2.1780   -7.7680  -23.8200 C.ar  202  TRP202      0.0946
     99  CD2        0.2860   -6.9640  -22.9320 C.ar  202  TRP202      0.0152
    100  NE1        2.3310   -7.7030  -22.4590 N.ar  202  TRP202     -0.2442
    101  CE2        1.2050   -7.1760  -21.9140 C.ar  202  TRP202      0.0810
    102  CE3       -0.9680   -6.4350  -22.6020 C.ar  202  TRP202      0.0012
    103  CZ2        0.9180   -6.9020  -20.5390 C.ar  202  TRP202      0.0191
    104  CZ3       -1.2630   -6.1680  -21.2570 C.ar  202  TRP202      0.0001
    105  CH2       -0.3260   -6.4050  -20.2370 C.ar  202  TRP202      0.0015
    106  N         -1.6900   -0.2740  -20.0680 N.3   264  THR264     -0.1218
    107  CA        -2.9280   -0.2460  -20.8230 C.3   264  THR264      0.1862
    108  C         -3.7450    0.9540  -20.4170 C.2   264  THR264      0.2287
    109  O         -3.7370    1.3810  -19.2550 O.2   264  THR264     -0.2866
    110  CB        -3.7690   -1.5240  -20.7710 C.3   264  THR264      0.1770
    111  OG1       -4.5160   -1.5700  -19.5590 O.3   264  THR264     -0.2211
    112  CG2       -2.9480   -2.8090  -20.9040 C.3   264  THR264      0.0375
    113  N         -7.4410   -5.7290  -24.5660 N.3   270  HIS270     -0.1241
    114  CA        -6.1770   -6.4580  -24.7580 C.3   270  HIS270      0.1621
    115  C         -6.3610   -7.9300  -24.4600 C.2   270  HIS270      0.2264
    116  O         -7.2830   -8.3120  -23.7160 O.2   270  HIS270     -0.2867
    117  CB        -5.0330   -5.8250  -23.9510 C.3   270  HIS270      0.0745
    118  CG        -5.3140   -5.6430  -22.4950 C.ar  270  HIS270      0.0817
    119  ND1       -6.1290   -4.6420  -22.0240 N.ar  270  HIS270     -0.2268
    120  CD2       -4.8920   -6.3140  -21.3840 C.ar  270  HIS270      0.1154
    121  CE1       -6.2170   -4.7160  -20.7140 C.ar  270  HIS270      0.1986
    122  NE2       -5.4910   -5.7180  -20.2870 N.ar  270  HIS270     -0.2212
    123  N          1.7170  -16.0770  -22.9810 N.3   274  ASN274     -0.1240
    124  CA         3.1110  -16.2180  -22.4790 C.3   274  ASN274      0.1653
    125  C          3.8800  -17.2120  -23.2890 C.2   274  ASN274      0.2266
    126  O          3.3580  -18.2350  -23.7600 O.2   274  ASN274     -0.2867
    127  CB         3.0440  -16.5990  -20.9820 C.3   274  ASN274      0.1155
    128  CG         2.4310  -15.5420  -20.2080 C.2   274  ASN274      0.2627
    129  OD1        2.9050  -14.4750  -20.0770 O.2   274  ASN274     -0.2716
    130  ND2        1.2370  -15.7640  -19.7620 N.am  274  ASN274     -0.0877
    131  N          4.9840  -11.8940  -13.7410 N.3   280  ALA280     -0.1245
    132  CA         4.5860  -10.5220  -13.9440 C.3   280  ALA280      0.1562
    133  C          3.9120   -9.9820  -12.6980 C.2   280  ALA280      0.2260
    134  O          3.3770  -10.7270  -11.9080 O.2   280  ALA280     -0.2867
    135  CB         3.6730  -10.4130  -15.1460 C.3   280  ALA280      0.0290
    136  N          1.1480   -6.6590  -11.7010 N.3   282  ALA282     -0.1245
    137  CA         0.2840   -5.6600  -12.3190 C.3   282  ALA282      0.1562
    138  C         -0.6470   -5.0440  -11.2790 C.2   282  ALA282      0.2260
    139  O         -0.9690   -5.6380  -10.2630 O.2   282  ALA282     -0.2867
    140  CB        -0.5380   -6.3020  -13.4470 C.3   282  ALA282      0.0290
@<TRIPOS>BOND
     1    95    94    2
     2    94    93    1
     3    92    93    1
     4    93    96    1
     5    96    97    1
     6   114   113    1
     7   114   115    1
     8   114   117    1
     9   115   116    2
    10    86    85    2
    11    85    84    1
    12    97    98   ar
    13    97    99   ar
    14   117   118    1
    15    38    36    1
    16    98   100   ar
    17   126   125    2
    18    37    36    1
    19    42    41    2
    20   125   124    1
    21   123   124    1
    22    83    84    1
    23    36    33    1
    24    50    51    1
    25    84    87    1
    26    99   102   ar
    27    99   101   ar
    28   102   104   ar
    29   118   119   ar
    30   118   120   ar
    31   124   127    1
    32   100   101   ar
    33    53    52    2
    34    49    48   ar
    35    49    47   ar
    36    41    40    1
    37    48    46   ar
    38    33    34    1
    39    33    32    1
    40    28    27    2
    41   119   121   ar
    42   101   103   ar
    43    51    52    1
    44    51    54    1
    45    47    45   ar
    46    87    88    1
    47    39    34   am
    48    39    40    1
    49    46    44   ar
    50    25    26    1
    51    27    32   am
    52    27    26    1
    53   120   122   ar
    54    34    35    2
    55   104   105   ar
    56    88    89    1
    57    45    44   ar
    58    40    43    1
    59    44    43    1
    60   127   128    1
    61   112   110    1
    62   107   110    1
    63   107   108    1
    64   107   106    1
    65   110   111    1
    66   121   122   ar
    67    26    29    1
    68    56    55   ar
    69    56    58   ar
    70   103   105   ar
    71    54    55    1
    72   108   109    2
    73   128   129    2
    74   128   130   am
    75    55    57   ar
    76    58    59   ar
    77    89    90    1
    78    29    30    1
    79    29    31    1
    80    57    59   ar
    81    90    91    1
    82    60    61    1
    83    68    66   ar
    84    74    73    1
    85    72    71    2
    86    81    80    2
    87    78    77    2
    88    65    66    1
    89    65    64    1
    90    79    80    1
    91    79    76    1
    92    80    82   am
    93    61    64    1
    94    61    62    1
    95    66    67   ar
    96    63    62    2
    97    69    70    1
    98    71    70    1
    99    73    70    1
   100    77    76    1
   101    76    75    1
   102    12    11    1
   103    11    10   ar
   104    11     9   ar
   105    10     8   ar
   106     9     7   ar
   107     8     6   ar
   108     7     6   ar
   109     6     5    1
   110     5     2    1
   111   135   132    1
   112     1     2    1
   113     2     3    1
   114   132   131    1
   115   132   133    1
   116    20    18   ar
   117    20    22   ar
   118   140   137    1
   119    17    18    1
   120    17    14    1
   121    18    19   ar
   122    22    23   ar
   123     3     4    2
   124    16    15    2
   125    19    21   ar
   126   133   134    2
   127    23    21   ar
   128    23    24    1
   129    15    14    1
   130   137   136    1
   131   137   138    1
   132    14    13    1
   133   138   139    2
