@<TRIPOS>MOLECULE
tmp/6etvA00.pdb
 135 127 0 0 0
SMALL
GASTEIGER

@<TRIPOS>ATOM
      1  N         -1.9050  -21.8370  -14.9240 N.3   126  TYR126     -0.1241
      2  CA        -1.8190  -20.3260  -14.7800 C.3   126  TYR126      0.1605
      3  C         -1.8870  -20.0520  -13.2400 C.2   126  TYR126      0.2264
      4  O         -2.7610  -20.5500  -12.5830 O.2   126  TYR126     -0.2867
      5  CB        -3.1140  -19.6180  -15.4140 C.3   126  TYR126      0.0534
      6  CG        -3.2860  -18.1040  -15.5820 C.ar  126  TYR126     -0.0201
      7  CD1       -2.2560  -17.2280  -15.6160 C.ar  126  TYR126     -0.0009
      8  CD2       -4.5860  -17.5830  -15.7110 C.ar  126  TYR126     -0.0009
      9  CE1       -2.5160  -15.8510  -15.8580 C.ar  126  TYR126      0.0417
     10  CE2       -4.8690  -16.2670  -15.9570 C.ar  126  TYR126      0.0417
     11  CZ        -3.8230  -15.3600  -16.0460 C.ar  126  TYR126      0.1957
     12  OH        -4.1240  -13.9830  -16.2900 O.3   126  TYR126     -0.2866
     13  N          1.3880  -12.8690  -11.2280 N.3   171  TYR171     -0.1241
     14  CA         0.9760  -13.8300  -12.2360 C.3   171  TYR171      0.1605
     15  C          2.1320  -14.7050  -12.5640 C.2   171  TYR171      0.2264
     16  O          3.2020  -14.2100  -12.8900 O.2   171  TYR171     -0.2867
     17  CB         0.4910  -13.1120  -13.5070 C.3   171  TYR171      0.0534
     18  CG        -0.6740  -12.1940  -13.2720 C.ar  171  TYR171     -0.0201
     19  CD1       -0.4850  -10.9040  -12.7480 C.ar  171  TYR171     -0.0009
     20  CD2       -1.9510  -12.6380  -13.4620 C.ar  171  TYR171     -0.0009
     21  CE1       -1.5440  -10.1290  -12.3690 C.ar  171  TYR171      0.0417
     22  CE2       -3.0440  -11.8700  -13.0870 C.ar  171  TYR171      0.0417
     23  CZ        -2.8090  -10.6330  -12.5370 C.ar  171  TYR171      0.1957
     24  OH        -3.8660   -9.8500  -12.0900 O.3   171  TYR171     -0.2866
     25  N         -0.1100  -20.1900  -21.6500 N.3   177  THR177     -0.1218
     26  CA        -0.9610  -19.4710  -20.6900 C.3   177  THR177      0.1862
     27  C         -1.4890  -18.2180  -21.3830 C.2   177  THR177      0.2287
     28  O         -0.7170  -17.5050  -22.0160 O.2   177  THR177     -0.2866
     29  CB        -0.1550  -19.1400  -19.4240 C.3   177  THR177      0.1770
     30  OG1        0.2880  -20.3460  -18.8040 O.3   177  THR177     -0.2211
     31  CG2       -0.9390  -18.2520  -18.4930 C.3   177  THR177      0.0375
     32  N         -4.2740  -14.7510  -21.5090 N.3   179  PHE179     -0.1241
     33  CA        -5.2170  -13.8240  -20.9760 C.3   179  PHE179      0.1605
     34  C         -6.1870  -13.4050  -22.0900 C.2   179  PHE179      0.2264
     35  O         -5.7700  -12.9800  -23.1740 O.2   179  PHE179     -0.2867
     36  CB        -4.5970  -12.6490  -20.1690 C.3   179  PHE179      0.0534
     37  CG        -3.5580  -11.8500  -20.8910 C.ar  179  PHE179     -0.0203
     38  CD1       -2.2290  -12.2900  -20.9620 C.ar  179  PHE179     -0.0042
     39  CD2       -3.8550  -10.5890  -21.4230 C.ar  179  PHE179     -0.0042
     40  CE1       -1.2490  -11.5030  -21.5520 C.ar  179  PHE179     -0.0003
     41  CE2       -2.9310   -9.8030  -21.9900 C.ar  179  PHE179     -0.0003
     42  CZ        -1.6070  -10.2660  -22.0760 C.ar  179  PHE179     -0.0000
     43  N        -10.2000   -8.3710  -22.9400 N.3   182  HIS182     -0.1241
     44  CA       -10.9270   -7.6020  -21.9270 C.3   182  HIS182      0.1621
     45  C        -10.3890   -6.1930  -21.8450 C.2   182  HIS182      0.2264
     46  O         -9.3170   -5.9060  -22.3120 O.2   182  HIS182     -0.2867
     47  CB       -10.7580   -8.2340  -20.5270 C.3   182  HIS182      0.0745
     48  CG        -9.3490   -8.1400  -20.0000 C.ar  182  HIS182      0.0817
     49  ND1       -8.3270   -8.9030  -20.4970 N.ar  182  HIS182     -0.2268
     50  CD2       -8.7860   -7.3270  -19.0820 C.ar  182  HIS182      0.1154
     51  CE1       -7.1980   -8.5500  -19.9160 C.ar  182  HIS182      0.1986
     52  NE2       -7.4460   -7.6050  -19.0340 N.ar  182  HIS182     -0.2212
     53  N        -10.1250   -3.3560  -18.4160 N.3   184  GLU184     -0.1245
     54  CA       -10.0800   -3.4640  -16.9610 C.3   184  GLU184      0.1567
     55  C        -11.4340   -3.1120  -16.3370 C.2   184  GLU184      0.2260
     56  O        -12.2670   -2.4980  -16.9090 O.2   184  GLU184     -0.2867
     57  CB        -8.9930   -2.5610  -16.4010 C.3   184  GLU184      0.0388
     58  CG        -7.6050   -2.8050  -16.9210 C.3   184  GLU184      0.1160
     59  CD        -7.1630   -4.2570  -16.8440 C.2   184  GLU184      0.3649
     60  OE1       -7.1880   -4.7660  -15.7620 O.co2 184  GLU184     -0.2457
     61  OE2       -6.7730   -4.8430  -17.8320 O.co2 184  GLU184     -0.2457
     62  N         -4.1120   -0.1610  -16.5640 N.3   190  SER190     -0.1217
     63  CA        -3.2910   -1.1420  -15.8440 C.3   190  SER190      0.1889
     64  C         -1.8260   -0.8750  -16.1550 C.2   190  SER190      0.2288
     65  O         -1.4750   -0.3360  -17.1930 O.2   190  SER190     -0.2866
     66  CB        -3.6430   -2.6160  -16.1670 C.3   190  SER190      0.2089
     67  OG        -3.2460   -2.9980  -17.4690 O.3   190  SER190     -0.2183
     68  N          1.9220   -3.1880  -15.8630 N.3   192  ASN192     -0.1240
     69  CA         2.3050   -4.5850  -15.9060 C.3   192  ASN192      0.1653
     70  C          3.8120   -4.6900  -16.0480 C.2   192  ASN192      0.2266
     71  O          4.3480   -4.2200  -17.0830 O.2   192  ASN192     -0.2867
     72  CB         1.6750   -5.2590  -17.1390 C.3   192  ASN192      0.1155
     73  CG         0.1620   -5.1880  -17.1580 C.2   192  ASN192      0.2627
     74  OD1       -0.5350   -6.1120  -16.7470 O.2   192  ASN192     -0.2716
     75  ND2       -0.3800   -4.0650  -17.6760 N.am  192  ASN192     -0.0877
     76  N          6.0810  -12.3360  -23.0380 N.3   200  LYS200     -0.1245
     77  CA         4.5740  -12.2720  -23.0630 C.3   200  LYS200      0.1561
     78  C          4.0860  -11.3550  -24.3110 C.2   200  LYS200      0.2260
     79  O          4.5410  -10.1790  -24.4880 O.2   200  LYS200     -0.2867
     80  CB         4.1260  -11.5880  -21.7580 C.3   200  LYS200      0.0271
     81  CG         2.6570  -11.5470  -21.4670 C.3   200  LYS200      0.0035
     82  CD         2.3610  -10.8390  -20.1370 C.3   200  LYS200      0.0206
     83  CE         3.1000  -11.3340  -18.8760 C.3   200  LYS200      0.1093
     84  NZ         2.6210  -12.6060  -18.3480 N.3   200  LYS200     -0.1314
     85  N          1.3440   -9.4620  -26.4860 N.3   202  TRP202     -0.1241
     86  CA         0.1360   -8.6780  -26.2780 C.3   202  TRP202      0.1605
     87  C         -0.4980   -8.3210  -27.6080 C.2   202  TRP202      0.2264
     88  O          0.1810   -7.9590  -28.5650 O.2   202  TRP202     -0.2867
     89  CB         0.4830   -7.3470  -25.5930 C.3   202  TRP202      0.0550
     90  CG         1.0730   -7.4570  -24.2070 C.ar  202  TRP202      0.0003
     91  CD1        2.2920   -7.8880  -23.8490 C.ar  202  TRP202      0.0946
     92  CD2        0.3790   -7.0970  -23.0100 C.ar  202  TRP202      0.0152
     93  NE1        2.4350   -7.8440  -22.4750 N.ar  202  TRP202     -0.2442
     94  CE2        1.2750   -7.3640  -21.9450 C.ar  202  TRP202      0.0810
     95  CE3       -0.8710   -6.5710  -22.7110 C.ar  202  TRP202      0.0012
     96  CZ2        0.9360   -7.0960  -20.5960 C.ar  202  TRP202      0.0191
     97  CZ3       -1.2100   -6.3130  -21.3820 C.ar  202  TRP202      0.0001
     98  CH2       -0.3160   -6.5900  -20.3840 C.ar  202  TRP202      0.0015
     99  N        -13.8710  -12.4560  -19.1300 N.3   235  LYS235     -0.1245
    100  CA       -12.4790  -12.7930  -19.3600 C.3   235  LYS235      0.1561
    101  C        -12.2850  -14.2380  -19.7510 C.2   235  LYS235      0.2260
    102  O        -11.4290  -14.9130  -19.2220 O.2   235  LYS235     -0.2867
    103  CB       -11.5830  -12.3610  -18.1850 C.3   235  LYS235      0.0271
    104  CG       -11.5660  -10.8310  -17.9130 C.3   235  LYS235      0.0035
    105  CD       -11.2440  -10.3700  -16.4310 C.3   235  LYS235      0.0206
    106  CE        -9.9330  -10.8760  -15.9540 C.3   235  LYS235      0.1093
    107  NZ        -8.9640  -10.9580  -17.0700 N.3   235  LYS235     -0.1314
    108  N         -7.3830   -5.7610  -24.5170 N.3   270  HIS270     -0.1241
    109  CA        -6.1120   -6.4760  -24.6840 C.3   270  HIS270      0.1621
    110  C         -6.3030   -7.9430  -24.4000 C.2   270  HIS270      0.2264
    111  O         -7.2410   -8.3490  -23.6730 O.2   270  HIS270     -0.2867
    112  CB        -4.9760   -5.8710  -23.8450 C.3   270  HIS270      0.0745
    113  CG        -5.3280   -5.6900  -22.3900 C.ar  270  HIS270      0.0817
    114  ND1       -6.1370   -4.6640  -21.9440 N.ar  270  HIS270     -0.2268
    115  CD2       -4.9550   -6.3860  -21.2650 C.ar  270  HIS270      0.1154
    116  CE1       -6.2440   -4.7750  -20.6290 C.ar  270  HIS270      0.1986
    117  NE2       -5.5350   -5.7760  -20.1720 N.ar  270  HIS270     -0.2212
    118  N          1.7810  -16.2040  -22.9420 N.3   274  ASN274     -0.1240
    119  CA         3.1640  -16.3620  -22.4810 C.3   274  ASN274      0.1653
    120  C          3.9550  -17.3520  -23.3410 C.2   274  ASN274      0.2266
    121  O          3.4270  -18.3620  -23.7900 O.2   274  ASN274     -0.2867
    122  CB         3.1750  -16.8000  -21.0200 C.3   274  ASN274      0.1155
    123  CG         2.6220  -15.7790  -20.1370 C.2   274  ASN274      0.2627
    124  OD1        2.9730  -14.6140  -20.1640 O.2   274  ASN274     -0.2716
    125  ND2        1.7380  -16.2060  -19.2670 N.am  274  ASN274     -0.0877
    126  N          5.0240  -12.0460  -13.6280 N.3   280  ALA280     -0.1245
    127  CA         4.6450  -10.6680  -13.8550 C.3   280  ALA280      0.1562
    128  C          3.9110  -10.1220  -12.6460 C.2   280  ALA280      0.2260
    129  O          3.3370  -10.8670  -11.8490 O.2   280  ALA280     -0.2867
    130  CB         3.7920  -10.5460  -15.0880 C.3   280  ALA280      0.0290
    131  N          1.1190   -6.8170  -11.7110 N.3   282  ALA282     -0.1245
    132  CA         0.2560   -5.8260  -12.3150 C.3   282  ALA282      0.1562
    133  C         -0.6470   -5.2060  -11.2900 C.2   282  ALA282      0.2260
    134  O         -0.9920   -5.8230  -10.2700 O.2   282  ALA282     -0.2867
    135  CB        -0.5460   -6.4280  -13.4490 C.3   282  ALA282      0.0290
@<TRIPOS>BOND
     1    88    87    2
     2    87    86    1
     3    85    86    1
     4    86    89    1
     5    89    90    1
     6   109   108    1
     7   109   110    1
     8   109   112    1
     9    79    78    2
    10   110   111    2
    11    78    77    1
    12    90    91   ar
    13    90    92   ar
    14    91    93   ar
    15   112   113    1
    16   121   120    2
    17   120   119    1
    18    35    34    2
    19    77    76    1
    20    77    80    1
    21    92    95   ar
    22    92    94   ar
    23   118   119    1
    24    43    44    1
    25    95    97   ar
    26   119   122    1
    27    93    94   ar
    28   113   114   ar
    29   113   115   ar
    30    46    45    2
    31    34    33    1
    32    42    41   ar
    33    42    40   ar
    34    28    27    2
    35    41    39   ar
    36    94    96   ar
    37   114   116   ar
    38    44    45    1
    39    44    47    1
    40    80    81    1
    41    25    26    1
    42    40    38   ar
    43    32    33    1
    44    81    82    1
    45    39    37   ar
    46    27    26    1
    47    97    98   ar
    48   115   117   ar
    49   122   123    1
    50    33    36    1
    51    38    37   ar
    52    37    36    1
    53    26    29    1
    54   116   117   ar
    55    96    98   ar
    56    47    48    1
    57    49    48   ar
    58    49    51   ar
    59   124   123    2
    60   123   125   am
    61    82    83    1
    62    48    50   ar
    63    51    52   ar
    64   101   100    1
    65   101   102    2
    66    29    30    1
    67    29    31    1
    68   100    99    1
    69   100   103    1
    70    50    52   ar
    71    83    84    1
    72    53    54    1
    73   103   104    1
    74   104   105    1
    75    61    59   ar
    76    75    73   am
    77    67    66    1
    78    65    64    2
    79    73    72    1
    80    73    74    2
    81    72    69    1
    82    71    70    2
    83   107   106    1
    84    54    57    1
    85    54    55    1
    86    58    59    1
    87    58    57    1
    88    56    55    2
    89    59    60   ar
    90    62    63    1
    91   105   106    1
    92    12    11    1
    93    66    63    1
    94    64    63    1
    95    70    69    1
    96    11    10   ar
    97    11     9   ar
    98    10     8   ar
    99    69    68    1
   100     9     7   ar
   101     8     6   ar
   102     7     6   ar
   103     6     5    1
   104     5     2    1
   105   130   127    1
   106     1     2    1
   107     2     3    1
   108   127   126    1
   109   127   128    1
   110    17    18    1
   111    17    14    1
   112    20    18   ar
   113    20    22   ar
   114   135   132    1
   115    18    19   ar
   116     3     4    2
   117    22    23   ar
   118    16    15    2
   119    19    21   ar
   120   128   129    2
   121    15    14    1
   122    23    21   ar
   123    23    24    1
   124   132   131    1
   125   132   133    1
   126    14    13    1
   127   133   134    2
