@<TRIPOS>MOLECULE
tmp/6etwA00.pdb
 126 119 0 0 0
SMALL
GASTEIGER

@<TRIPOS>ATOM
      1  N         -1.6850  -21.9360  -14.8210 N.3   126  TYR126     -0.1241
      2  CA        -1.1290  -20.6970  -14.3560 C.3   126  TYR126      0.1605
      3  C         -1.5880  -20.1910  -13.0210 C.2   126  TYR126      0.2264
      4  O         -2.5680  -20.6040  -12.4970 O.2   126  TYR126     -0.2867
      5  CB        -1.1920  -19.6260  -15.3710 C.3   126  TYR126      0.0534
      6  CG        -2.3930  -18.7980  -15.4140 C.ar  126  TYR126     -0.0201
      7  CD1       -3.6050  -19.3390  -15.3650 C.ar  126  TYR126     -0.0009
      8  CD2       -2.2970  -17.4670  -15.5750 C.ar  126  TYR126     -0.0009
      9  CE1       -4.7530  -18.5630  -15.4640 C.ar  126  TYR126      0.0417
     10  CE2       -3.4190  -16.6610  -15.6700 C.ar  126  TYR126      0.0417
     11  CZ        -4.6510  -17.2300  -15.6000 C.ar  126  TYR126      0.1957
     12  OH        -5.8250  -16.5240  -15.6860 O.3   126  TYR126     -0.2866
     13  N          1.4370  -12.8090  -11.2320 N.3   171  TYR171     -0.1241
     14  CA         1.0220  -13.7990  -12.2400 C.3   171  TYR171      0.1605
     15  C          2.2110  -14.6710  -12.5190 C.2   171  TYR171      0.2264
     16  O          3.2520  -14.1630  -12.9020 O.2   171  TYR171     -0.2867
     17  CB         0.5650  -13.0780  -13.5040 C.3   171  TYR171      0.0534
     18  CG        -0.6150  -12.1630  -13.2560 C.ar  171  TYR171     -0.0201
     19  CD1       -0.4120  -10.8760  -12.7570 C.ar  171  TYR171     -0.0009
     20  CD2       -1.8880  -12.6360  -13.4540 C.ar  171  TYR171     -0.0009
     21  CE1       -1.4390  -10.0970  -12.4370 C.ar  171  TYR171      0.0417
     22  CE2       -2.9880  -11.8350  -13.1090 C.ar  171  TYR171      0.0417
     23  CZ        -2.7240  -10.5880  -12.5530 C.ar  171  TYR171      0.1957
     24  OH        -3.7490   -9.7530  -12.1770 O.3   171  TYR171     -0.2866
     25  N         -0.1100  -20.0590  -21.6180 N.3   177  THR177     -0.1218
     26  CA        -0.9640  -19.3490  -20.6870 C.3   177  THR177      0.1862
     27  C         -1.5070  -18.1060  -21.3810 C.2   177  THR177      0.2287
     28  O         -0.7560  -17.4010  -22.0310 O.2   177  THR177     -0.2866
     29  CB        -0.1900  -18.9020  -19.4400 C.3   177  THR177      0.1770
     30  OG1        0.2400  -20.0640  -18.7240 O.3   177  THR177     -0.2211
     31  CG2       -0.9970  -18.0130  -18.5690 C.3   177  THR177      0.0375
     32  N         -4.3250  -14.6890  -21.5960 N.3   179  PHE179     -0.1241
     33  CA        -5.2620  -13.7220  -21.0590 C.3   179  PHE179      0.1605
     34  C         -6.2600  -13.3420  -22.1280 C.2   179  PHE179      0.2264
     35  O         -5.8460  -12.8920  -23.2380 O.2   179  PHE179     -0.2867
     36  CB        -4.6580  -12.5280  -20.2910 C.3   179  PHE179      0.0534
     37  CG        -3.5970  -11.7780  -21.0330 C.ar  179  PHE179     -0.0203
     38  CD1       -2.2560  -12.2540  -21.0350 C.ar  179  PHE179     -0.0042
     39  CD2       -3.8620  -10.4600  -21.5660 C.ar  179  PHE179     -0.0042
     40  CE1       -1.3120  -11.4790  -21.7120 C.ar  179  PHE179     -0.0003
     41  CE2       -2.9650   -9.6990  -22.1340 C.ar  179  PHE179     -0.0003
     42  CZ        -1.6850  -10.2080  -22.2780 C.ar  179  PHE179     -0.0000
     43  N        -10.2470   -8.3100  -22.9880 N.3   182  HIS182     -0.1241
     44  CA       -10.9460   -7.5700  -21.9270 C.3   182  HIS182      0.1621
     45  C        -10.4660   -6.1430  -21.8810 C.2   182  HIS182      0.2264
     46  O         -9.3510   -5.8350  -22.3500 O.2   182  HIS182     -0.2867
     47  CB       -10.7330   -8.1960  -20.5350 C.3   182  HIS182      0.0745
     48  CG        -9.3310   -8.1060  -20.0320 C.ar  182  HIS182      0.0817
     49  ND1       -8.3280   -8.8100  -20.6180 N.ar  182  HIS182     -0.2268
     50  CD2       -8.7420   -7.2920  -19.1180 C.ar  182  HIS182      0.1154
     51  CE1       -7.1600   -8.4780  -20.0640 C.ar  182  HIS182      0.1986
     52  NE2       -7.3940   -7.5640  -19.1200 N.ar  182  HIS182     -0.2212
     53  N        -10.0980   -3.3230  -18.4690 N.3   184  GLU184     -0.1245
     54  CA       -10.0530   -3.4150  -17.0100 C.3   184  GLU184      0.1567
     55  C        -11.3760   -3.1070  -16.4080 C.2   184  GLU184      0.2260
     56  O        -12.2300   -2.4430  -17.0070 O.2   184  GLU184     -0.2867
     57  CB        -9.0040   -2.4990  -16.4910 C.3   184  GLU184      0.0388
     58  CG        -7.6290   -2.7360  -17.0030 C.3   184  GLU184      0.1160
     59  CD        -7.1450   -4.0960  -16.8740 C.2   184  GLU184      0.3649
     60  OE1       -7.1370   -4.6590  -15.7770 O.co2 184  GLU184     -0.2457
     61  OE2       -6.7750   -4.7600  -17.8650 O.co2 184  GLU184     -0.2457
     62  N         -4.1520   -0.1000  -16.5580 N.3   190  SER190     -0.1217
     63  CA        -3.3460   -1.0830  -15.8770 C.3   190  SER190      0.1889
     64  C         -1.8870   -0.8140  -16.1410 C.2   190  SER190      0.2288
     65  O         -1.5210   -0.2800  -17.1780 O.2   190  SER190     -0.2866
     66  CB        -3.6860   -2.5100  -16.1550 C.3   190  SER190      0.2089
     67  OG        -3.2800   -2.9060  -17.4710 O.3   190  SER190     -0.2183
     68  N          1.9000   -3.0220  -15.8360 N.3   192  ASN192     -0.1240
     69  CA         2.2800   -4.4130  -15.9160 C.3   192  ASN192      0.1653
     70  C          3.7580   -4.5700  -16.0660 C.2   192  ASN192      0.2266
     71  O          4.2720   -4.1770  -17.1180 O.2   192  ASN192     -0.2867
     72  CB         1.6190   -5.0050  -17.1630 C.3   192  ASN192      0.1155
     73  CG         0.1040   -4.8580  -17.1580 C.2   192  ASN192      0.2627
     74  OD1       -0.5870   -5.7470  -16.6790 O.2   192  ASN192     -0.2716
     75  ND2       -0.4540   -3.7310  -17.7640 N.am  192  ASN192     -0.0877
     76  N          5.9430  -12.1360  -22.8480 N.3   200  LYS200     -0.1245
     77  CA         4.4970  -12.0870  -22.9750 C.3   200  LYS200      0.1561
     78  C          4.0100  -11.1700  -24.2890 C.2   200  LYS200      0.2260
     79  O          4.4930  -10.0580  -24.5390 O.2   200  LYS200     -0.2867
     80  CB         3.9490  -11.4230  -21.7060 C.3   200  LYS200      0.0271
     81  CG         2.4530  -11.3540  -21.5960 C.3   200  LYS200      0.0035
     82  CD         1.9390  -10.6700  -20.3280 C.3   200  LYS200      0.0206
     83  CE         2.6870  -11.0130  -19.0210 C.3   200  LYS200      0.1093
     84  NZ         2.2670  -12.2100  -18.3470 N.3   200  LYS200     -0.1314
     85  N          1.2920   -9.3640  -26.4880 N.3   202  TRP202     -0.1241
     86  CA         0.0610   -8.6190  -26.2910 C.3   202  TRP202      0.1605
     87  C         -0.6090   -8.2430  -27.6090 C.2   202  TRP202      0.2264
     88  O          0.0920   -7.8890  -28.5610 O.2   202  TRP202     -0.2867
     89  CB         0.3620   -7.2900  -25.6130 C.3   202  TRP202      0.0550
     90  CG         0.9900   -7.3150  -24.2160 C.ar  202  TRP202      0.0003
     91  CD1        2.1930   -7.7820  -23.8810 C.ar  202  TRP202      0.0946
     92  CD2        0.3140   -6.9500  -23.0050 C.ar  202  TRP202      0.0152
     93  NE1        2.3730   -7.6870  -22.5190 N.ar  202  TRP202     -0.2442
     94  CE2        1.2490   -7.1540  -21.9760 C.ar  202  TRP202      0.0810
     95  CE3       -0.9410   -6.4230  -22.7060 C.ar  202  TRP202      0.0012
     96  CZ2        0.9450   -6.8160  -20.6420 C.ar  202  TRP202      0.0191
     97  CZ3       -1.2400   -6.1000  -21.3870 C.ar  202  TRP202      0.0001
     98  CH2       -0.3190   -6.3060  -20.3660 C.ar  202  TRP202      0.0015
     99  N         -7.4740   -5.7060  -24.5770 N.3   270  HIS270     -0.1241
    100  CA        -6.2290   -6.4240  -24.7380 C.3   270  HIS270      0.1621
    101  C         -6.3580   -7.8940  -24.4540 C.2   270  HIS270      0.2264
    102  O         -7.3040   -8.2830  -23.7190 O.2   270  HIS270     -0.2867
    103  CB        -5.0560   -5.8110  -23.9680 C.3   270  HIS270      0.0745
    104  CG        -5.3200   -5.6060  -22.4810 C.ar  270  HIS270      0.0817
    105  ND1       -6.1470   -4.6300  -21.9890 N.ar  270  HIS270     -0.2268
    106  CD2       -4.8910   -6.3090  -21.3910 C.ar  270  HIS270      0.1154
    107  CE1       -6.2070   -4.7250  -20.6690 C.ar  270  HIS270      0.1986
    108  NE2       -5.4850   -5.7240  -20.2690 N.ar  270  HIS270     -0.2212
    109  N          1.7150  -16.0430  -22.8480 N.3   274  ASN274     -0.1240
    110  CA         3.0700  -16.1760  -22.3860 C.3   274  ASN274      0.1653
    111  C          3.8580  -17.1670  -23.2210 C.2   274  ASN274      0.2266
    112  O          3.3330  -18.1860  -23.6680 O.2   274  ASN274     -0.2867
    113  CB         3.0370  -16.5780  -20.9130 C.3   274  ASN274      0.1155
    114  CG         2.5050  -15.5280  -20.0370 C.2   274  ASN274      0.2627
    115  OD1        2.8530  -14.3980  -20.0540 O.2   274  ASN274     -0.2716
    116  ND2        1.5760  -15.9190  -19.2270 N.am  274  ASN274     -0.0877
    117  N          5.0210  -11.9310  -13.7090 N.3   280  ALA280     -0.1245
    118  CA         4.6380  -10.5370  -13.9480 C.3   280  ALA280      0.1562
    119  C          3.8850  -10.0310  -12.7300 C.2   280  ALA280      0.2260
    120  O          3.3290  -10.7850  -11.9380 O.2   280  ALA280     -0.2867
    121  CB         3.7390  -10.4540  -15.1350 C.3   280  ALA280      0.0290
    122  N          1.0840   -6.7510  -11.7210 N.3   282  ALA282     -0.1245
    123  CA         0.1900   -5.7770  -12.3350 C.3   282  ALA282      0.1562
    124  C         -0.6920   -5.1430  -11.2870 C.2   282  ALA282      0.2260
    125  O         -1.0170   -5.7290  -10.2550 O.2   282  ALA282     -0.2867
    126  CB        -0.6290   -6.3980  -13.4310 C.3   282  ALA282      0.0290
@<TRIPOS>BOND
     1    88    87    2
     2    87    86    1
     3    85    86    1
     4    86    89    1
     5    89    90    1
     6   100    99    1
     7   100   101    1
     8   100   103    1
     9    79    78    2
    10   101   102    2
    11    78    77    1
    12    90    91   ar
    13    90    92   ar
    14   103   104    1
    15    91    93   ar
    16   112   111    2
    17    35    34    2
    18   111   110    1
    19    92    95   ar
    20    92    94   ar
    21    43    44    1
    22    77    76    1
    23    77    80    1
    24   109   110    1
    25    95    97   ar
    26    93    94   ar
    27   104   105   ar
    28   104   106   ar
    29   110   113    1
    30    46    45    2
    31    42    41   ar
    32    42    40   ar
    33    41    39   ar
    34    34    33    1
    35    28    27    2
    36   105   107   ar
    37    94    96   ar
    38    44    45    1
    39    44    47    1
    40    40    38   ar
    41    80    81    1
    42    25    26    1
    43    81    82    1
    44    32    33    1
    45    39    37   ar
    46   106   108   ar
    47    97    98   ar
    48    27    26    1
    49    33    36    1
    50    38    37   ar
    51    37    36    1
    52   113   114    1
    53    26    29    1
    54   107   108   ar
    55    96    98   ar
    56    49    51   ar
    57    49    48   ar
    58    47    48    1
    59    82    83    1
    60    51    52   ar
    61   115   114    2
    62   114   116   am
    63    48    50   ar
    64    29    30    1
    65    29    31    1
    66    52    50   ar
    67    83    84    1
    68    53    54    1
    69    61    59   ar
    70    75    73   am
    71    67    66    1
    72    65    64    2
    73    72    73    1
    74    72    69    1
    75    73    74    2
    76    71    70    2
    77    54    57    1
    78    54    55    1
    79    56    55    2
    80    58    59    1
    81    58    57    1
    82    59    60   ar
    83    62    63    1
    84    66    63    1
    85    64    63    1
    86    70    69    1
    87    69    68    1
    88    12    11    1
    89    10    11   ar
    90    10     8   ar
    91    11     9   ar
    92     8     6   ar
    93     9     7   ar
    94     6     5    1
    95     6     7   ar
    96     5     2    1
    97   121   118    1
    98     1     2    1
    99     2     3    1
   100   118   117    1
   101   118   119    1
   102    17    18    1
   103    17    14    1
   104    20    18   ar
   105    20    22   ar
   106   126   123    1
   107    18    19   ar
   108    22    23   ar
   109     3     4    2
   110    16    15    2
   111    19    21   ar
   112   119   120    2
   113    23    21   ar
   114    23    24    1
   115    15    14    1
   116   123   122    1
   117   123   124    1
   118    14    13    1
   119   124   125    2
