@<TRIPOS>MOLECULE
tmp/6eu5A01.pdb
 227 218 0 0 0
SMALL
GASTEIGER

@<TRIPOS>ATOM
      1  N        -28.6610   -8.3980  -17.2690 N.3    70  TYR70      -0.1227
      2  CA       -28.1710   -7.7650  -16.0460 C.3    70  TYR70       0.1736
      3  C        -28.9840   -6.4970  -15.7430 C.2    70  TYR70       0.2595
      4  O        -30.1100   -6.3320  -16.2240 O.2    70  TYR70      -0.2718
      5  CB       -26.6610   -7.5080  -16.1460 C.3    70  TYR70       0.0548
      6  CG       -25.9440   -7.2390  -14.8300 C.ar   70  TYR70      -0.0200
      7  CD1      -26.1780   -8.0290  -13.7060 C.ar   70  TYR70      -0.0009
      8  CD2      -25.0250   -6.1810  -14.7060 C.ar   70  TYR70      -0.0009
      9  CE1      -25.5270   -7.7990  -12.5130 C.ar   70  TYR70       0.0417
     10  CE2      -24.3600   -5.9430  -13.5050 C.ar   70  TYR70       0.0417
     11  CZ       -24.6200   -6.7500  -12.3950 C.ar   70  TYR70       0.1957
     12  OH       -23.9730   -6.5450  -11.1900 O.3    70  TYR70      -0.2866
     13  N        -28.4130   -5.5760  -14.9690 N.am   71  VAL71      -0.1966
     14  CA       -29.1840   -4.4860  -14.3630 C.3    71  VAL71       0.1727
     15  C        -29.7380   -3.5440  -15.4240 C.2    71  VAL71       0.2616
     16  O        -29.0120   -3.0930  -16.3250 O.2    71  VAL71      -0.2715
     17  CB       -28.3000   -3.7070  -13.3850 C.3    71  VAL71       0.0290
     18  CG1      -29.0410   -2.4630  -12.8840 C.3    71  VAL71       0.0023
     19  CG2      -27.8440   -4.6050  -12.2280 C.3    71  VAL71       0.0023
     20  N        -31.0270   -3.2200  -15.3050 N.am   72  GLU72      -0.1963
     21  CA       -31.7020   -2.2190  -16.1160 C.3    72  GLU72       0.1733
     22  C        -32.1330   -1.0510  -15.2430 C.2    72  GLU72       0.2616
     23  O        -32.2910   -1.1840  -14.0300 O.2    72  GLU72      -0.2715
     24  CB       -32.9500   -2.8120  -16.7940 C.3    72  GLU72       0.0429
     25  CG       -32.6130   -3.9360  -17.7270 C.3    72  GLU72       0.1163
     26  CD       -33.8170   -4.5340  -18.4450 C.2    72  GLU72       0.3649
     27  OE1      -33.6080   -5.5240  -19.1710 O.co2  72  GLU72      -0.2457
     28  OE2      -34.9580   -4.0240  -18.3100 O.co2  72  GLU72      -0.2457
     29  N        -32.3530    0.0990  -15.8710 N.am   73  ASP73      -0.1971
     30  CA       -33.0370    1.1480  -15.1230 C.3    73  ASP73       0.1709
     31  C        -34.4980    0.7470  -14.9080 C.2    73  ASP73       0.2293
     32  O        -34.9900   -0.2440  -15.4570 O.2    73  ASP73      -0.2864
     33  CB       -32.9710    2.4800  -15.8630 C.3    73  ASP73       0.1436
     34  CG       -33.8090    2.4780  -17.1070 C.2    73  ASP73       0.3671
     35  OD1      -33.6190    1.5520  -17.9090 O.co2  73  ASP73      -0.2456
     36  OD2      -34.6670    3.3760  -17.2790 O.co2  73  ASP73      -0.2456
     37  N        -32.2760    1.3600  -20.3910 N.3    78  PHE78      -0.1241
     38  CA       -30.8400    1.1000  -20.4050 C.3    78  PHE78       0.1605
     39  C        -30.5410   -0.1940  -19.6640 C.2    78  PHE78       0.2264
     40  O        -31.2020   -0.5350  -18.6830 O.2    78  PHE78      -0.2867
     41  CB       -30.0500    2.2460  -19.7210 C.3    78  PHE78       0.0534
     42  CG       -30.4290    3.6160  -20.2050 C.ar   78  PHE78      -0.0203
     43  CD1      -30.0710    4.0510  -21.4710 C.ar   78  PHE78      -0.0042
     44  CD2      -31.1620    4.4670  -19.3930 C.ar   78  PHE78      -0.0042
     45  CE1      -30.4480    5.3000  -21.9260 C.ar   78  PHE78      -0.0003
     46  CE2      -31.5190    5.7080  -19.8330 C.ar   78  PHE78      -0.0003
     47  CZ       -31.1600    6.1310  -21.1030 C.ar   78  PHE78      -0.0000
     48  N        -26.8630   -2.4100  -18.4160 N.3    80  PHE80      -0.1241
     49  CA       -25.4000   -2.4370  -18.4390 C.3    80  PHE80       0.1605
     50  C        -24.9080   -3.4180  -19.4940 C.2    80  PHE80       0.2264
     51  O        -25.4980   -4.4880  -19.6930 O.2    80  PHE80      -0.2867
     52  CB       -24.8260   -2.8450  -17.0810 C.3    80  PHE80       0.0534
     53  CG       -24.9490   -1.7910  -16.0260 C.ar   80  PHE80      -0.0203
     54  CD1      -24.6360   -0.4650  -16.2970 C.ar   80  PHE80      -0.0042
     55  CD2      -25.3520   -2.1280  -14.7450 C.ar   80  PHE80      -0.0042
     56  CE1      -24.7700    0.5230  -15.2970 C.ar   80  PHE80      -0.0003
     57  CE2      -25.4880   -1.1700  -13.7510 C.ar   80  PHE80      -0.0003
     58  CZ       -25.1910    0.1570  -14.0140 C.ar   80  PHE80      -0.0000
     59  N        -21.3060   -4.4010  -19.6810 N.3    82  TYR82      -0.1241
     60  CA       -19.9100   -4.5700  -19.3030 C.3    82  TYR82       0.1605
     61  C        -19.1870   -5.3600  -20.3880 C.2    82  TYR82       0.2264
     62  O        -19.6970   -6.3680  -20.8780 O.2    82  TYR82      -0.2867
     63  CB       -19.8450   -5.3800  -18.0130 C.3    82  TYR82       0.0534
     64  CG       -20.2210   -4.6620  -16.7420 C.ar   82  TYR82      -0.0201
     65  CD1      -19.2460   -4.0550  -15.9670 C.ar   82  TYR82      -0.0009
     66  CD2      -21.5350   -4.6540  -16.2690 C.ar   82  TYR82      -0.0009
     67  CE1      -19.5510   -3.4110  -14.7650 C.ar   82  TYR82       0.0417
     68  CE2      -21.8490   -4.0140  -15.0620 C.ar   82  TYR82       0.0417
     69  CZ       -20.8450   -3.3980  -14.3180 C.ar   82  TYR82       0.1957
     70  OH       -21.1110   -2.7650  -13.1210 O.3    82  TYR82      -0.2866
     71  N        -20.3620   -9.4310   -6.6590 N.3   157  ASN157     -0.1240
     72  CA       -20.7980   -8.5860   -7.7650 C.3   157  ASN157      0.1653
     73  C        -21.3870   -9.4980   -8.8400 C.2   157  ASN157      0.2266
     74  O        -21.1910  -10.7200   -8.8270 O.2   157  ASN157     -0.2867
     75  CB       -19.5810   -7.8040   -8.2960 C.3   157  ASN157      0.1155
     76  CG       -19.9370   -6.4970   -8.9940 C.2   157  ASN157      0.2627
     77  OD1      -21.0500   -6.2890   -9.4730 O.2   157  ASN157     -0.2716
     78  ND2      -18.9580   -5.6000   -9.0600 N.am  157  ASN157     -0.0877
     79  N        -22.8790   -4.2740   -3.0170 N.3   193  THR193     -0.1203
     80  CA       -23.6860   -3.0920   -3.2340 C.3   193  THR193      0.1994
     81  C        -24.8590   -3.4450   -4.1320 C.2   193  THR193      0.2618
     82  O        -24.8260   -4.4300   -4.8820 O.2   193  THR193     -0.2717
     83  CB       -22.8830   -1.9340   -3.8630 C.3   193  THR193      0.1784
     84  OG1      -22.3350   -2.3430   -5.1250 O.3   193  THR193     -0.2211
     85  CG2      -21.7700   -1.4670   -2.9370 C.3   193  THR193      0.0376
     86  N        -25.9110   -2.6320   -4.0440 N.am  194  ALA194     -0.1965
     87  CA       -27.0660   -2.8190   -4.9080 C.3   194  ALA194      0.1728
     88  C        -27.7740   -1.4930   -5.0680 C.2   194  ALA194      0.2616
     89  O        -27.6730   -0.6120   -4.2070 O.2   194  ALA194     -0.2715
     90  CB       -28.0590   -3.8820   -4.3900 C.3   194  ALA194      0.0334
     91  N        -28.5000   -1.3730   -6.1870 N.am  195  GLY195     -0.1955
     92  CA       -29.3810   -0.2340   -6.3470 C.3   195  GLY195      0.1869
     93  C        -30.6660   -0.3820   -5.5700 C.2   195  GLY195      0.2309
     94  O        -31.2910    0.6230   -5.2230 O.2   195  GLY195     -0.2863
     95  N        -26.4730    8.6960   -6.7990 N.3   207  TYR207     -0.1241
     96  CA       -25.6640    8.8520   -7.9930 C.3   207  TYR207      0.1605
     97  C        -25.6860   10.2930   -8.4800 C.2   207  TYR207      0.2264
     98  O        -26.6830   11.0140   -8.3290 O.2   207  TYR207     -0.2867
     99  CB       -26.1780    7.9450   -9.1090 C.3   207  TYR207      0.0534
    100  CG       -25.6000    6.5530   -9.0670 C.ar  207  TYR207     -0.0201
    101  CD1      -26.1990    5.5430   -8.3220 C.ar  207  TYR207     -0.0009
    102  CD2      -24.4500    6.2390   -9.7800 C.ar  207  TYR207     -0.0009
    103  CE1      -25.6650    4.2570   -8.2850 C.ar  207  TYR207      0.0417
    104  CE2      -23.9130    4.9690   -9.7570 C.ar  207  TYR207      0.0417
    105  CZ       -24.5240    3.9790   -9.0060 C.ar  207  TYR207      0.1957
    106  OH       -23.9760    2.7270   -8.9630 O.3   207  TYR207     -0.2866
    107  N        -24.2160   12.6900  -12.0600 N.3   209  HIS209     -0.1241
    108  CA       -23.9320   12.5740  -13.4810 C.3   209  HIS209      0.1621
    109  C        -23.4630   13.9050  -14.0430 C.2   209  HIS209      0.2264
    110  O        -24.0550   14.9540  -13.7660 O.2   209  HIS209     -0.2867
    111  CB       -25.2000   12.1470  -14.2250 C.3   209  HIS209      0.0745
    112  CG       -25.9040   11.0230  -13.5560 C.ar  209  HIS209      0.0817
    113  ND1      -25.4420    9.7320  -13.6400 N.ar  209  HIS209     -0.2268
    114  CD2      -26.9710   10.9940  -12.7230 C.ar  209  HIS209      0.1154
    115  CE1      -26.2170    8.9410  -12.9150 C.ar  209  HIS209      0.1986
    116  NE2      -27.1530    9.6830  -12.3480 N.ar  209  HIS209     -0.2212
    117  N        -31.9360   10.0480  -21.2410 N.3   222  PHE222     -0.1241
    118  CA       -31.1630    9.9770  -20.0100 C.3   222  PHE222      0.1605
    119  C        -31.2640   11.2860  -19.2480 C.2   222  PHE222      0.2264
    120  O        -31.3510   11.2890  -18.0140 O.2   222  PHE222     -0.2867
    121  CB       -29.6990    9.6890  -20.3490 C.3   222  PHE222      0.0534
    122  CG       -28.7920    9.6170  -19.1490 C.ar  222  PHE222     -0.0203
    123  CD1      -28.2240   10.7650  -18.6090 C.ar  222  PHE222     -0.0042
    124  CD2      -28.4800    8.3940  -18.5700 C.ar  222  PHE222     -0.0042
    125  CE1      -27.3880   10.6890  -17.5120 C.ar  222  PHE222     -0.0003
    126  CE2      -27.6500    8.3130  -17.4700 C.ar  222  PHE222     -0.0003
    127  CZ       -27.0880    9.4500  -16.9480 C.ar  222  PHE222     -0.0000
    128  N        -18.1030    1.7340  -18.4570 N.3   318  ILE318     -0.1245
    129  CA       -19.1890    0.7550  -18.5430 C.3   318  ILE318      0.1561
    130  C        -20.2060    1.3280  -19.5140 C.2   318  ILE318      0.2260
    131  O        -20.8990    2.3160  -19.1950 O.2   318  ILE318     -0.2867
    132  CB       -19.8990    0.4950  -17.2070 C.3   318  ILE318      0.0252
    133  CG1      -18.9370    0.0950  -16.0880 C.3   318  ILE318      0.0019
    134  CG2      -20.9080   -0.6200  -17.3930 C.3   318  ILE318      0.0019
    135  CD1      -19.6390    0.0760  -14.7540 C.3   318  ILE318      0.0001
    136  N        -23.7870    1.2230  -21.5540 N.3   320  SER320     -0.1217
    137  CA       -25.1060    0.6480  -21.3430 C.3   320  SER320      0.1889
    138  C        -25.8110    0.5600  -22.6810 C.2   320  SER320      0.2288
    139  O        -25.7450    1.4880  -23.4860 O.2   320  SER320     -0.2866
    140  CB       -25.9460    1.4950  -20.3740 C.3   320  SER320      0.2089
    141  OG       -25.5140    1.3320  -19.0410 O.3   320  SER320     -0.2183
    142  N        -24.8040    3.8720  -24.6560 N.3   331  LEU331     -0.1245
    143  CA       -24.4550    5.0580  -23.8830 C.3   331  LEU331      0.1561
    144  C        -23.0930    4.7970  -23.2530 C.2   331  LEU331      0.2260
    145  O        -22.9520    3.8680  -22.4610 O.2   331  LEU331     -0.2867
    146  CB       -25.4870    5.2710  -22.7780 C.3   331  LEU331      0.0270
    147  CG       -25.2760    6.4040  -21.7760 C.3   331  LEU331      0.0019
    148  CD1      -25.0630    7.6840  -22.5070 C.3   331  LEU331      0.0001
    149  CD2      -26.4920    6.5110  -20.8910 C.3   331  LEU331      0.0001
    150  N        -20.4750    5.4730  -20.7520 N.3   333  ALA333     -0.1245
    151  CA       -20.3290    6.1290  -19.4540 C.3   333  ALA333      0.1562
    152  C        -18.9380    5.9050  -18.8430 C.2   333  ALA333      0.2260
    153  O        -18.4160    4.7760  -18.8250 O.2   333  ALA333     -0.2867
    154  CB       -21.4200    5.6790  -18.4820 C.3   333  ALA333      0.0290
    155  N        -16.9250    6.2030  -15.2420 N.3   335  TYR335     -0.1241
    156  CA       -17.2370    6.1750  -13.8210 C.3   335  TYR335      0.1605
    157  C        -16.0130    6.6180  -13.0380 C.2   335  TYR335      0.2264
    158  O        -14.9220    6.0860  -13.2420 O.2   335  TYR335     -0.2867
    159  CB       -17.6410    4.7560  -13.3900 C.3   335  TYR335      0.0534
    160  CG       -18.9960    4.3660  -13.9020 C.ar  335  TYR335     -0.0201
    161  CD1      -19.1940    3.9830  -15.2390 C.ar  335  TYR335     -0.0009
    162  CD2      -20.0940    4.4200  -13.0710 C.ar  335  TYR335     -0.0009
    163  CE1      -20.4660    3.6450  -15.7120 C.ar  335  TYR335      0.0417
    164  CE2      -21.3630    4.0960  -13.5360 C.ar  335  TYR335      0.0417
    165  CZ       -21.5500    3.7210  -14.8510 C.ar  335  TYR335      0.1957
    166  OH       -22.8230    3.4110  -15.2980 O.3   335  TYR335     -0.2866
    167  N        -21.0980   10.6480  -20.6850 N.3   364  VAL364     -0.1245
    168  CA       -21.4690   11.0890  -19.3520 C.3   364  VAL364      0.1561
    169  C        -20.4140   10.5600  -18.3990 C.2   364  VAL364      0.2260
    170  O        -19.7900    9.5200  -18.6520 O.2   364  VAL364     -0.2867
    171  CB       -22.8840   10.5540  -19.0050 C.3   364  VAL364      0.0252
    172  CG1      -22.8700    9.0220  -18.8080 C.3   364  VAL364      0.0019
    173  CG2      -23.4530   11.2420  -17.7600 C.3   364  VAL364      0.0019
    174  N        -20.2370    9.3550  -14.4350 N.3   366  ASN366     -0.1240
    175  CA       -21.0590    8.9510  -13.3010 C.3   366  ASN366      0.1653
    176  C        -20.2050    8.7330  -12.0570 C.2   366  ASN366      0.2266
    177  O        -19.0380    8.3320  -12.1360 O.2   366  ASN366     -0.2867
    178  CB       -21.7580    7.6220  -13.6020 C.3   366  ASN366      0.1155
    179  CG       -22.8110    7.7280  -14.6920 C.2   366  ASN366      0.2627
    180  OD1      -23.3560    8.8040  -14.9640 O.2   366  ASN366     -0.2716
    181  ND2      -23.1560    6.5770  -15.2850 N.am  366  ASN366     -0.0877
    182  N        -31.5400    9.8160  -10.3210 N.3   386  ASP386     -0.1225
    183  CA       -32.5960    9.0230   -9.6980 C.3   386  ASP386      0.1805
    184  C        -32.0330    7.8910   -8.8530 C.2   386  ASP386      0.2598
    185  O        -32.7090    7.4080   -7.9270 O.2   386  ASP386     -0.2718
    186  CB       -33.4370    8.3460  -10.7830 C.3   386  ASP386      0.1424
    187  CG       -34.2360    9.3130  -11.6060 C.2   386  ASP386      0.3668
    188  OD1      -34.6370   10.3560  -11.0600 O.co2 386  ASP386     -0.2456
    189  OD2      -34.4890    9.0080  -12.7980 O.co2 386  ASP386     -0.2456
    190  N        -30.8360    7.4060   -9.1820 N.am  387  GLY387     -0.1942
    191  CA       -30.3670    6.1790   -8.5740 C.3   387  GLY387      0.2014
    192  C        -29.6540    6.3860   -7.2470 C.2   387  GLY387      0.2639
    193  O        -29.1870    7.4640   -6.9100 O.2   387  GLY387     -0.2714
    194  N        -29.5700    5.3050   -6.4810 N.am  388  HIS388     -0.1959
    195  CA       -28.7610    5.2590   -5.2860 C.3   388  HIS388      0.1787
    196  C        -27.9500    3.9880   -5.3370 C.2   388  HIS388      0.2620
    197  O        -28.3310    3.0270   -6.0030 O.2   388  HIS388     -0.2715
    198  CB       -29.6200    5.2310   -4.0450 C.3   388  HIS388      0.0785
    199  CG       -30.4610    6.4520   -3.8940 C.ar  388  HIS388      0.0821
    200  ND1      -31.6870    6.5910   -4.5090 N.ar  388  HIS388     -0.2267
    201  CD2      -30.2320    7.6140   -3.2390 C.ar  388  HIS388      0.1154
    202  CE1      -32.1930    7.7730   -4.2090 C.ar  388  HIS388      0.1986
    203  NE2      -31.3220    8.4200   -3.4550 N.ar  388  HIS388     -0.2212
    204  N        -26.8120    4.0080   -4.6650 N.am  389  LEU389     -0.1977
    205  CA       -26.0510    2.7960   -4.4390 C.3   389  LEU389      0.1596
    206  C        -26.0450    2.5440   -2.9410 C.2   389  LEU389      0.2287
    207  O        -25.6380    3.4170   -2.1710 O.2   389  LEU389     -0.2864
    208  CB       -24.6350    2.9350   -4.9940 C.3   389  LEU389      0.0297
    209  CG       -23.8960    1.5800   -4.9920 C.3   389  LEU389      0.0022
    210  CD1      -24.6080    0.5840   -5.9090 C.3   389  LEU389      0.0001
    211  CD2      -22.4380    1.7560   -5.3840 C.3   389  LEU389      0.0001
    212  N        -17.1110    0.2130   -6.0150 N.3   410  MET410     -0.1230
    213  CA       -17.5460   -1.0920   -6.5000 C.3   410  MET410      0.1702
    214  C        -17.8130   -1.0010   -7.9940 C.2   410  MET410      0.2592
    215  O        -18.5310   -0.1010   -8.4510 O.2   410  MET410     -0.2718
    216  CB       -18.7720   -1.6110   -5.7330 C.3   410  MET410      0.0401
    217  CG       -18.4420   -2.1140   -4.3240 C.3   410  MET410      0.0596
    218  SD       -19.3580   -3.6430   -3.9660 S.3   410  MET410     -0.1393
    219  CE       -18.8570   -4.5630   -5.4320 C.3   410  MET410      0.0692
    220  N        -17.2110   -1.9140   -8.7510 N.am  411  LEU411     -0.1980
    221  CA       -17.2750   -1.8730  -10.2080 C.3   411  LEU411      0.1596
    222  C        -18.6220   -2.3510  -10.7640 C.2   411  LEU411      0.2287
    223  O        -19.2900   -3.2250  -10.1930 O.2   411  LEU411     -0.2864
    224  CB       -16.1340   -2.7100  -10.8000 C.3   411  LEU411      0.0297
    225  CG       -14.7320   -2.2810  -10.3480 C.3   411  LEU411      0.0022
    226  CD1      -13.6820   -3.3250  -10.7230 C.3   411  LEU411      0.0001
    227  CD2      -14.3620   -0.9200  -10.9100 C.3   411  LEU411      0.0001
@<TRIPOS>BOND
     1   142   143    1
     2   143   144    1
     3   143   146    1
     4   139   138    2
     5   144   145    2
     6   146   147    1
     7   138   137    1
     8   148   147    1
     9    45    43   ar
    10    45    47   ar
    11   147   149    1
    12   136   137    1
    13    43    42   ar
    14   137   140    1
    15   117   118    1
    16    47    46   ar
    17    62    61    2
    18   150   151    1
    19   167   168    1
    20    38    37    1
    21    38    41    1
    22    38    39    1
    23    61    60    1
    24   140   141    1
    25   121   118    1
    26   121   122    1
    27    42    41    1
    28    42    44   ar
    29   118   119    1
    30    46    44   ar
    31    51    50    2
    32    59    60    1
    33    39    40    2
    34   130   131    2
    35   130   129    1
    36    50    49    1
    37   151   152    1
    38   151   154    1
    39   168   171    1
    40   168   169    1
    41    60    63    1
    42   119   120    2
    43    27    26   ar
    44   122   123   ar
    45   122   124   ar
    46   171   172    1
    47   171   173    1
    48   152   153    2
    49   170   169    2
    50   123   125   ar
    51   124   126   ar
    52   129   128    1
    53   129   132    1
    54    26    28   ar
    55    26    25    1
    56    49    48    1
    57    49    52    1
    58    63    64    1
    59    35    34   ar
    60    25    24    1
    61   125   127   ar
    62   126   127   ar
    63   134   132    1
    64    36    34   ar
    65     1     2    1
    66   132   133    1
    67    34    33    1
    68    52    53    1
    69    24    21    1
    70    64    66   ar
    71    64    65   ar
    72    16    15    2
    73    54    53   ar
    74    54    56   ar
    75    66    68   ar
    76     4     3    2
    77     5     2    1
    78     5     6    1
    79    21    20    1
    80    21    22    1
    81   133   135    1
    82     2     3    1
    83    53    55   ar
    84    65    67   ar
    85    29    22   am
    86    29    30    1
    87    33    30    1
    88     3    13   am
    89   163   161   ar
    90   163   165   ar
    91    32    31    2
    92    15    20   am
    93    15    14    1
    94   166   165    1
    95    56    58   ar
    96   181   179   am
    97    22    23    2
    98   155   156    1
    99   161   160   ar
   100    30    31    1
   101    68    69   ar
   102    13    14    1
   103   180   179    2
   104   165   164   ar
   105     6     8   ar
   106     6     7   ar
   107    67    69   ar
   108    55    57   ar
   109     8    10   ar
   110   179   178    1
   111   174   175    1
   112    14    17    1
   113    69    70    1
   114   111   112    1
   115   111   108    1
   116   109   110    2
   117   109   108    1
   118    58    57   ar
   119   160   159    1
   120   160   162   ar
   121   156   159    1
   122   156   157    1
   123     7     9   ar
   124   113   112   ar
   125   113   115   ar
   126   178   175    1
   127   112   114   ar
   128   164   162   ar
   129    10    11   ar
   130   108   107    1
   131    17    18    1
   132    17    19    1
   133   175   176    1
   134   158   157    2
   135   115   116   ar
   136   189   187   ar
   137   114   116   ar
   138     9    11   ar
   139    11    12    1
   140   177   176    2
   141   187   188   ar
   142   187   186    1
   143   227   225    1
   144   224   225    1
   145   224   221    1
   146   186   183    1
   147   222   221    1
   148   222   223    2
   149   226   225    1
   150   182   183    1
   151   221   220    1
   152   102   104   ar
   153   102   100   ar
   154   104   105   ar
   155   183   184    1
   156    77    76    2
   157   190   184   am
   158   190   191    1
   159    99   100    1
   160    99    96    1
   161   100   101   ar
   162    78    76   am
   163   105   106    1
   164   105   103   ar
   165    76    75    1
   166   184   185    2
   167    73    74    2
   168    73    72    1
   169   220   214   am
   170   191   192    1
   171    97    98    2
   172    97    96    1
   173   215   214    2
   174   101   103   ar
   175    75    72    1
   176   214   213    1
   177    96    95    1
   178    72    71    1
   179   192   193    2
   180   192   194   am
   181   213   212    1
   182   213   216    1
   183   194   195    1
   184    92    91    1
   185    92    93    1
   186    91    88   am
   187   197   196    2
   188   210   209    1
   189   216   217    1
   190    93    94    2
   191   219   218    1
   192   211   209    1
   193   196   195    1
   194   196   204   am
   195   195   198    1
   196    84    83    1
   197    88    87    1
   198    88    89    2
   199   208   209    1
   200   208   205    1
   201    87    90    1
   202    87    86    1
   203    82    81    2
   204   204   205    1
   205   200   202   ar
   206   200   199   ar
   207   205   206    1
   208   217   218    1
   209   202   203   ar
   210    81    86   am
   211    81    80    1
   212   198   199    1
   213   199   201   ar
   214    83    80    1
   215    83    85    1
   216   203   201   ar
   217    80    79    1
   218   206   207    2
