@<TRIPOS>MOLECULE
tmp/6eu6A00.pdb
 135 130 0 0 0
SMALL
GASTEIGER

@<TRIPOS>ATOM
      1  N          3.0050  -43.5720   10.2260 N.3    99  PHE99      -0.1227
      2  CA         1.5750  -43.6070    9.9220 C.3    99  PHE99       0.1736
      3  C          1.0790  -42.3260    9.2610 C.2    99  PHE99       0.2595
      4  O          0.4760  -42.3510    8.1830 O.2    99  PHE99      -0.2718
      5  CB         0.7990  -43.9580   11.1700 C.3    99  PHE99       0.0547
      6  CG        -0.6810  -44.2530   10.9260 C.ar   99  PHE99      -0.0202
      7  CD1       -1.0950  -45.4630   10.4230 C.ar   99  PHE99      -0.0042
      8  CD2       -1.6370  -43.3150   11.2030 C.ar   99  PHE99      -0.0042
      9  CE1       -2.4860  -45.7390   10.2190 C.ar   99  PHE99      -0.0003
     10  CE2       -3.0010  -43.5850   11.0250 C.ar   99  PHE99      -0.0003
     11  CZ        -3.4280  -44.8010   10.4940 C.ar   99  PHE99      -0.0000
     12  N          1.4690  -41.1960    9.8120 N.am  100  GLN100     -0.1979
     13  CA         1.0220  -39.9570    9.2420 C.3   100  GLN100      0.1601
     14  C          1.7950  -39.6900    7.9460 C.2   100  GLN100      0.2287
     15  O          1.2590  -39.0660    7.0780 O.2   100  GLN100     -0.2864
     16  CB         1.2060  -38.7970   10.2360 C.3   100  GLN100      0.0394
     17  CG         0.3790  -38.9080   11.5220 C.3   100  GLN100      0.0908
     18  CD        -1.1270  -38.8670   11.2280 C.2   100  GLN100      0.2608
     19  OE1       -1.5500  -38.2900   10.2620 O.2   100  GLN100     -0.2717
     20  NE2       -1.9170  -39.5420   12.0470 N.am  100  GLN100     -0.0878
     21  N         -0.1450  -41.4710    5.2790 N.3   103  PHE103     -0.1241
     22  CA        -1.3200  -40.5980    4.9990 C.3   103  PHE103      0.1605
     23  C         -1.0000  -39.4570    4.0240 C.2   103  PHE103      0.2264
     24  O         -1.7100  -39.2170    3.0560 O.2   103  PHE103     -0.2867
     25  CB        -1.9230  -40.0880    6.3310 C.3   103  PHE103      0.0534
     26  CG        -2.9150  -41.0220    6.9510 C.ar  103  PHE103     -0.0203
     27  CD1       -2.7250  -42.3870    6.9090 C.ar  103  PHE103     -0.0042
     28  CD2       -3.9960  -40.5320    7.6350 C.ar  103  PHE103     -0.0042
     29  CE1       -3.6340  -43.2520    7.4740 C.ar  103  PHE103     -0.0003
     30  CE2       -4.9460  -41.3980    8.1480 C.ar  103  PHE103     -0.0003
     31  CZ        -4.7500  -42.7530    8.0980 C.ar  103  PHE103     -0.0000
     32  N         -6.5490  -31.6060   12.7590 N.3   144  TRP144     -0.1241
     33  CA        -5.9880  -32.6450   13.5890 C.3   144  TRP144      0.1605
     34  C         -4.8030  -32.1810   14.4570 C.2   144  TRP144      0.2264
     35  O         -4.1150  -33.0100   14.9950 O.2   144  TRP144     -0.2867
     36  CB        -5.4380  -33.7650   12.6540 C.3   144  TRP144      0.0550
     37  CG        -6.4690  -34.6380   11.9640 C.ar  144  TRP144      0.0003
     38  CD1       -7.8160  -34.6800   12.1740 C.ar  144  TRP144      0.0946
     39  CD2       -6.1940  -35.6010   10.9550 C.ar  144  TRP144      0.0152
     40  NE1       -8.4210  -35.6210   11.3290 N.ar  144  TRP144     -0.2442
     41  CE2       -7.4280  -36.2150   10.5990 C.ar  144  TRP144      0.0810
     42  CE3       -5.0200  -36.0270   10.3350 C.ar  144  TRP144      0.0012
     43  CZ2       -7.5110  -37.2130    9.6640 C.ar  144  TRP144      0.0191
     44  CZ3       -5.0840  -37.0440    9.4060 C.ar  144  TRP144      0.0001
     45  CH2       -6.3490  -37.6110    9.0460 C.ar  144  TRP144      0.0015
     46  N         -4.5120  -31.1410   17.2630 N.3   146  ASN146     -0.1225
     47  CA        -4.5500  -31.5520   18.6680 C.3   146  ASN146      0.1785
     48  C         -3.9310  -32.9060   18.9430 C.2   146  ASN146      0.2597
     49  O         -3.9010  -33.3200   20.0720 O.2   146  ASN146     -0.2718
     50  CB        -5.9990  -31.6070   19.1620 C.3   146  ASN146      0.1169
     51  CG        -6.8410  -32.6690   18.4400 C.2   146  ASN146      0.2627
     52  OD1       -6.8550  -32.7950   17.2470 O.2   146  ASN146     -0.2716
     53  ND2       -7.5690  -33.3540   19.1700 N.am  146  ASN146     -0.0877
     54  N         -3.5400  -33.6590   17.9220 N.am  147  LEU147     -0.1980
     55  CA        -3.4560  -35.1400   18.1190 C.3   147  LEU147      0.1596
     56  C         -2.1300  -35.5860   18.7390 C.2   147  LEU147      0.2287
     57  O         -2.0660  -36.5910   19.3950 O.2   147  LEU147     -0.2864
     58  CB        -3.6010  -35.8490   16.7620 C.3   147  LEU147      0.0297
     59  CG        -3.9490  -37.3220   16.5920 C.3   147  LEU147      0.0022
     60  CD1       -5.3350  -37.6140   17.1250 C.3   147  LEU147      0.0001
     61  CD2       -3.8870  -37.6010   15.0770 C.3   147  LEU147      0.0001
     62  N        -10.7230  -28.1320   14.4580 N.3   157  LYS157     -0.1245
     63  CA       -11.0140  -29.0710   15.5260 C.3   157  LYS157      0.1561
     64  C        -11.6490  -28.3760   16.7700 C.2   157  LYS157      0.2260
     65  O        -12.6430  -28.8640   17.3550 O.2   157  LYS157     -0.2867
     66  CB        -9.7510  -29.7720   15.9350 C.3   157  LYS157      0.0271
     67  CG        -9.8980  -30.6250   17.1750 C.3   157  LYS157      0.0035
     68  CD       -10.9660  -31.7100   17.0780 C.3   157  LYS157      0.0206
     69  CE       -10.5470  -32.8440   16.1310 C.3   157  LYS157      0.1093
     70  NZ       -11.6610  -33.7600   15.8460 N.3   157  LYS157     -0.1314
     71  N        -14.9920  -33.0610   12.8140 N.3   162  ILE162     -0.1231
     72  CA       -14.6660  -34.4690   12.9590 C.3   162  ILE162      0.1692
     73  C        -14.2540  -35.0640   11.5920 C.2   162  ILE162      0.2592
     74  O        -14.9360  -34.8880   10.6130 O.2   162  ILE162     -0.2718
     75  CB       -15.8700  -35.2420   13.4820 C.3   162  ILE162      0.0266
     76  CG1      -16.2080  -34.7710   14.9380 C.3   162  ILE162      0.0019
     77  CG2      -15.6480  -36.7510   13.5020 C.3   162  ILE162      0.0020
     78  CD1      -17.5830  -35.2230   15.3650 C.3   162  ILE162      0.0001
     79  N        -13.1170  -35.7290   11.5720 N.am  163  ASP163     -0.1960
     80  CA       -12.7500  -36.5680   10.4340 C.3   163  ASP163      0.1840
     81  C        -11.8420  -37.6840   10.9850 C.2   163  ASP163      0.2622
     82  O        -10.6660  -37.4810   11.2010 O.2   163  ASP163     -0.2715
     83  CB       -12.0640  -35.7230    9.4100 C.3   163  ASP163      0.1450
     84  CG       -11.7880  -36.4590    8.1230 C.2   163  ASP163      0.3671
     85  OD1      -12.0610  -37.6960    8.0220 O.co2 163  ASP163     -0.2456
     86  OD2      -11.2450  -35.7910    7.2300 O.co2 163  ASP163     -0.2456
     87  N        -12.4270  -38.8390   11.2460 N.am  164  PHE164     -0.1974
     88  CA       -11.6680  -39.9080   11.8610 C.3   164  PHE164      0.1639
     89  C        -10.3490  -40.2640   11.1810 C.2   164  PHE164      0.2290
     90  O         -9.2840  -40.2530   11.8070 O.2   164  PHE164     -0.2864
     91  CB       -12.5800  -41.1500   11.9370 C.3   164  PHE164      0.0560
     92  CG       -11.8790  -42.3470   12.4590 C.ar  164  PHE164     -0.0200
     93  CD1      -11.2810  -42.3160   13.7230 C.ar  164  PHE164     -0.0042
     94  CD2      -11.8970  -43.5470   11.7590 C.ar  164  PHE164     -0.0042
     95  CE1      -10.6290  -43.4350   14.2130 C.ar  164  PHE164     -0.0003
     96  CE2      -11.2360  -44.6530   12.2530 C.ar  164  PHE164     -0.0003
     97  CZ       -10.5730  -44.6090   13.4540 C.ar  164  PHE164     -0.0000
     98  N         -6.3040  -45.8450   12.4620 N.3   227  SER227     -0.1217
     99  CA        -6.6270  -44.4880   12.9580 C.3   227  SER227      0.1889
    100  C         -7.1790  -44.4820   14.3980 C.2   227  SER227      0.2288
    101  O         -7.2920  -43.4180   15.0030 O.2   227  SER227     -0.2866
    102  CB        -7.5000  -43.6860   11.9890 C.3   227  SER227      0.2089
    103  OG        -6.7990  -43.3400   10.7810 O.3   227  SER227     -0.2183
    104  N         -5.3970  -45.5730   16.5730 N.3   229  LEU229     -0.1245
    105  CA        -4.1340  -45.3100   17.2450 C.3   229  LEU229      0.1561
    106  C         -3.9060  -46.1920   18.4810 C.2   229  LEU229      0.2260
    107  O         -3.0590  -45.9230   19.2540 O.2   229  LEU229     -0.2867
    108  CB        -3.9790  -43.8260   17.5540 C.3   229  LEU229      0.0270
    109  CG        -3.9680  -42.9560   16.3280 C.3   229  LEU229      0.0019
    110  CD1       -3.8880  -41.4860   16.7160 C.3   229  LEU229      0.0001
    111  CD2       -2.8490  -43.3130   15.3680 C.3   229  LEU229      0.0001
    112  N        -15.1890  -45.3310   12.9470 N.3   285  ASN285     -0.1225
    113  CA       -15.1000  -45.6800   14.3610 C.3   285  ASN285      0.1785
    114  C        -16.3780  -45.3410   15.1420 C.2   285  ASN285      0.2600
    115  O        -16.5020  -45.7250   16.3100 O.2   285  ASN285     -0.2717
    116  CB       -13.9540  -44.9240   15.0080 C.3   285  ASN285      0.1169
    117  CG       -14.1600  -43.3900   14.9630 C.2   285  ASN285      0.2627
    118  OD1      -14.6520  -42.8110   13.9750 O.2   285  ASN285     -0.2716
    119  ND2      -13.7780  -42.7360   16.0230 N.am  285  ASN285     -0.0877
    120  N        -17.3320  -44.6720   14.5180 N.am  286  MET286     -0.1934
    121  CA       -18.4630  -44.0960   15.2720 C.3   286  MET286      0.1821
    122  C        -19.8050  -44.4400   14.7670 C.2   286  MET286      0.2332
    123  O        -20.8060  -43.9290   15.2920 O.2   286  MET286     -0.2860
    124  CB       -18.3370  -42.5590   15.4150 C.2   286  MET286      0.0096
    125  CG       -18.2110  -41.7390   14.1780 C.2   286  MET286      0.0285
    126  SD       -17.6750  -39.9780   14.4110 S.3   286  MET286     -0.1125
    127  CE       -16.2640  -40.1880   15.3440 C.3   286  MET286      0.0742
    128  N        -18.9580  -33.3830   18.4970 N.3   347  LEU347     -0.1245
    129  CA       -18.2280  -32.3790   19.2240 C.3   347  LEU347      0.1561
    130  C        -18.9660  -31.0610   19.1630 C.2   347  LEU347      0.2260
    131  O        -18.5490  -30.1360   19.8210 O.2   347  LEU347     -0.2867
    132  CB       -16.8340  -32.1710   18.6200 C.3   347  LEU347      0.0270
    133  CG       -15.8500  -33.3230   18.7650 C.3   347  LEU347      0.0019
    134  CD1      -14.5570  -32.9110   18.0240 C.3   347  LEU347      0.0001
    135  CD2      -15.6030  -33.6350   20.2330 C.3   347  LEU347      0.0001
@<TRIPOS>BOND
     1    24    23    2
     2    23    22    1
     3    22    21    1
     4    22    25    1
     5    25    26    1
     6    27    26   ar
     7    27    29   ar
     8    26    28   ar
     9    15    14    2
    10    86    84   ar
    11    29    31   ar
    12    28    30   ar
    13    14    13    1
    14    85    84   ar
    15    31    30   ar
    16    84    83    1
    17     4     3    2
    18    45    44   ar
    19    45    43   ar
    20    13    12    1
    21    13    16    1
    22     3    12   am
    23     3     2    1
    24    44    42   ar
    25    83    80    1
    26    43    41   ar
    27     2     1    1
    28     2     5    1
    29     9     7   ar
    30     9    11   ar
    31    16    17    1
    32    19    18    2
    33    42    39   ar
    34     7     6   ar
    35    80    81    1
    36    80    79    1
    37    11    10   ar
    38    41    39   ar
    39    41    40   ar
    40    74    73    2
    41   103   102    1
    42     6     5    1
    43     6     8   ar
    44    39    37   ar
    45    81    82    2
    46    81    87   am
    47    10     8   ar
    48    89    90    2
    49    89    88    1
    50    18    17    1
    51    18    20   am
    52    87    88    1
    53    40    38   ar
    54    79    73   am
    55    73    72    1
    56    94    96   ar
    57    94    92   ar
    58    88    91    1
    59    91    92    1
    60    37    38   ar
    61    37    36    1
    62   102    99    1
    63    96    97   ar
    64    92    93   ar
    65    98    99    1
    66    36    33    1
    67    32    33    1
    68    71    72    1
    69   112   113    1
    70    99   100    1
    71    72    75    1
    72    97    95   ar
    73    75    77    1
    74    75    76    1
    75    33    34    1
    76    93    95   ar
    77   118   117    2
    78   125   126    1
    79   125   124    2
    80   113   116    1
    81   113   114    1
    82   100   101    2
    83   126   127    1
    84    34    35    2
    85    62    63    1
    86   120   114   am
    87   120   121    1
    88   122   121    1
    89   122   123    2
    90    76    78    1
    91   117   116    1
    92   117   119   am
    93    61    59    1
    94   114   115    2
    95   121   124    1
    96   111   109    1
    97    63    66    1
    98    63    64    1
    99    70    69    1
   100    66    67    1
   101    69    68    1
   102   109   110    1
   103   109   108    1
   104   104   105    1
   105    59    58    1
   106    59    60    1
   107    58    55    1
   108    64    65    2
   109    68    67    1
   110   105   108    1
   111   105   106    1
   112    52    51    2
   113    46    47    1
   114    54    55    1
   115    54    48   am
   116   134   133    1
   117    55    56    1
   118    51    50    1
   119    51    53   am
   120   106   107    2
   121   128   129    1
   122   132   133    1
   123   132   129    1
   124    47    48    1
   125    47    50    1
   126    56    57    2
   127   133   135    1
   128    48    49    2
   129   130   129    1
   130   130   131    2
