@<TRIPOS>MOLECULE
tmp/6eu6A02.pdb
 112 109 0 0 0
SMALL
GASTEIGER

@<TRIPOS>ATOM
      1  N         -8.1720  -31.5170   -8.7210 N.3   179  MET179     -0.1245
      2  CA        -9.1350  -30.8820   -9.6030 C.3   179  MET179      0.1570
      3  C         -8.5670  -29.5670  -10.2200 C.2   179  MET179      0.2261
      4  O         -8.7520  -29.3180  -11.4240 O.2   179  MET179     -0.2867
      5  CB       -10.4210  -30.5380   -8.8710 C.3   179  MET179      0.0387
      6  CG       -11.4080  -29.8300   -9.7690 C.3   179  MET179      0.0595
      7  SD       -12.9790  -29.6770   -8.8950 S.3   179  MET179     -0.1393
      8  CE       -12.8230  -28.0990   -8.1910 C.3   179  MET179      0.0692
      9  N         -7.7740  -28.9340  -14.2880 N.3   183  ILE183     -0.1245
     10  CA        -8.2890  -27.7300  -14.9450 C.3   183  ILE183      0.1561
     11  C         -7.1760  -26.9700  -15.6400 C.2   183  ILE183      0.2260
     12  O         -7.2790  -26.6410  -16.7890 O.2   183  ILE183     -0.2867
     13  CB        -9.0010  -26.7810  -13.9540 C.3   183  ILE183      0.0252
     14  CG1      -10.3770  -27.3420  -13.6570 C.3   183  ILE183      0.0019
     15  CG2       -9.2720  -25.3980  -14.5810 C.3   183  ILE183      0.0019
     16  CD1      -11.0730  -26.6590  -12.4860 C.3   183  ILE183      0.0001
     17  N         -5.7570  -29.0060  -18.6160 N.3   186  GLY186     -0.1210
     18  CA        -6.7360  -29.0750  -19.6590 C.3   186  GLY186      0.1940
     19  C         -7.0220  -30.5080  -20.0220 C.2   186  GLY186      0.2453
     20  O         -6.2970  -31.4200  -19.6230 O.2   186  GLY186     -0.2732
     21  N         -8.0460  -30.7170  -20.8320 N.am  187  PRO187     -0.2728
     22  CA        -8.4040  -32.1000  -21.1980 C.3   187  PRO187      0.1401
     23  C         -7.4580  -32.7880  -22.1300 C.2   187  PRO187      0.2269
     24  O         -6.6280  -32.1760  -22.8150 O.2   187  PRO187     -0.2865
     25  CB        -9.7800  -31.9600  -21.8980 C.3   187  PRO187      0.0296
     26  CG       -10.1530  -30.4890  -21.7550 C.3   187  PRO187      0.0237
     27  CD        -8.8890  -29.7250  -21.5060 C.3   187  PRO187      0.0939
     28  N        -12.9960  -34.6680  -25.8920 N.3   192  TYR192     -0.1227
     29  CA       -14.3100  -34.1080  -26.2250 C.3   192  TYR192      0.1736
     30  C        -14.4580  -33.8810  -27.7010 C.2   192  TYR192      0.2595
     31  O        -13.5300  -33.4550  -28.3310 O.2   192  TYR192     -0.2718
     32  CB       -14.4880  -32.7950  -25.5060 C.3   192  TYR192      0.0548
     33  CG       -14.4560  -32.9840  -23.9990 C.ar  192  TYR192     -0.0200
     34  CD1      -15.4340  -33.7440  -23.3610 C.ar  192  TYR192     -0.0009
     35  CD2      -13.4250  -32.4710  -23.2230 C.ar  192  TYR192     -0.0009
     36  CE1      -15.4090  -33.9620  -21.9710 C.ar  192  TYR192      0.0417
     37  CE2      -13.3990  -32.6510  -21.8140 C.ar  192  TYR192      0.0417
     38  CZ       -14.4340  -33.4060  -21.2000 C.ar  192  TYR192      0.1957
     39  OH       -14.5160  -33.6460  -19.8340 O.3   192  TYR192     -0.2866
     40  N        -15.6160  -34.1770  -28.2660 N.am  193  ASN193     -0.1961
     41  CA       -15.8120  -33.8990  -29.6910 C.3   193  ASN193      0.1804
     42  C        -16.3060  -32.4570  -29.9660 C.2   193  ASN193      0.2463
     43  O        -16.7430  -31.7670  -29.0550 O.2   193  ASN193     -0.2730
     44  CB       -16.7930  -34.9200  -30.2000 C.3   193  ASN193      0.1195
     45  CG       -16.2860  -36.3150  -29.9870 C.2   193  ASN193      0.2630
     46  OD1      -15.1490  -36.5970  -30.3350 O.2   193  ASN193     -0.2716
     47  ND2      -17.0660  -37.1540  -29.3800 N.am  193  ASN193     -0.0877
     48  N        -16.2980  -32.0250  -31.2350 N.am  194  PRO194     -0.2727
     49  CA       -16.7690  -30.6820  -31.5930 C.3   194  PRO194      0.1402
     50  C        -18.2160  -30.4390  -31.1900 C.2   194  PRO194      0.2269
     51  O        -18.5720  -29.2810  -30.8990 O.2   194  PRO194     -0.2865
     52  CB       -16.6080  -30.6660  -33.1030 C.3   194  PRO194      0.0296
     53  CG       -15.5420  -31.6930  -33.3780 C.3   194  PRO194      0.0237
     54  CD       -15.9160  -32.7900  -32.4390 C.3   194  PRO194      0.0939
     55  N        -19.3580  -31.3640  -28.3460 N.3   196  GLY196     -0.1225
     56  CA       -19.4140  -31.4360  -26.8840 C.3   196  GLY196      0.1811
     57  C        -19.5680  -32.8140  -26.2690 C.2   196  GLY196      0.2280
     58  O        -19.3970  -32.9560  -25.0550 O.2   196  GLY196     -0.2866
     59  N        -20.5370  -32.1420  -17.7950 N.3   313  THR313     -0.1203
     60  CA       -21.0600  -30.8220  -17.5700 C.3   313  THR313      0.1994
     61  C        -19.9350  -29.8720  -17.2440 C.2   313  THR313      0.2618
     62  O        -19.8480  -28.8120  -17.8710 O.2   313  THR313     -0.2717
     63  CB       -22.1080  -30.8000  -16.4640 C.3   313  THR313      0.1784
     64  OG1      -23.1020  -31.7540  -16.7770 O.3   313  THR313     -0.2211
     65  CG2      -22.7320  -29.4190  -16.3080 C.3   313  THR313      0.0376
     66  N        -19.0440  -30.1860  -16.3080 N.am  314  LEU314     -0.1965
     67  CA       -17.9430  -29.2500  -16.0300 C.3   314  LEU314      0.1728
     68  C        -16.8680  -29.3380  -17.0880 C.2   314  LEU314      0.2616
     69  O        -16.0320  -28.4420  -17.2530 O.2   314  LEU314     -0.2715
     70  CB       -17.3700  -29.5030  -14.6270 C.3   314  LEU314      0.0311
     71  CG       -18.3290  -29.3810  -13.4830 C.3   314  LEU314      0.0022
     72  CD1      -17.5650  -29.6500  -12.2150 C.3   314  LEU314      0.0001
     73  CD2      -18.8080  -27.9600  -13.4620 C.3   314  LEU314      0.0001
     74  N        -16.8340  -30.4420  -17.8120 N.am  315  LYS315     -0.1963
     75  CA       -15.7910  -30.7080  -18.7980 C.3   315  LYS315      0.1728
     76  C        -14.3770  -30.6610  -18.2400 C.2   315  LYS315      0.2616
     77  O        -13.4110  -30.0830  -18.8520 O.2   315  LYS315     -0.2715
     78  CB       -16.0110  -29.8440  -20.0420 C.3   315  LYS315      0.0311
     79  CG       -17.2410  -30.3670  -20.7940 C.3   315  LYS315      0.0038
     80  CD       -17.1140  -30.3260  -22.2810 C.3   315  LYS315      0.0206
     81  CE       -18.1770  -31.1440  -22.9840 C.3   315  LYS315      0.1093
     82  NZ       -19.5260  -31.0590  -22.3950 N.3   315  LYS315     -0.1314
     83  N        -14.2650  -31.2220  -17.0330 N.am  316  ILE316     -0.1977
     84  CA       -12.9300  -31.5040  -16.4550 C.3   316  ILE316      0.1596
     85  C        -12.5820  -32.9400  -16.7760 C.2   316  ILE316      0.2287
     86  O        -13.3980  -33.8590  -16.5180 O.2   316  ILE316     -0.2864
     87  CB       -12.8720  -31.2330  -14.9610 C.3   316  ILE316      0.0276
     88  CG1      -13.2610  -29.7710  -14.7260 C.3   316  ILE316      0.0022
     89  CG2      -11.4650  -31.5290  -14.3900 C.3   316  ILE316      0.0022
     90  CD1      -13.5570  -29.4400  -13.2860 C.3   316  ILE316      0.0001
     91  N        -12.0630  -27.1540    0.5250 N.3   368  PHE368     -0.1241
     92  CA       -12.1730  -26.7970   -0.8790 C.3   368  PHE368      0.1605
     93  C        -11.4860  -25.5090   -1.1380 C.2   368  PHE368      0.2264
     94  O        -10.6980  -25.4050   -2.0580 O.2   368  PHE368     -0.2867
     95  CB       -13.6590  -26.7840   -1.3490 C.3   368  PHE368      0.0534
     96  CG       -13.8170  -26.4500   -2.7760 C.ar  368  PHE368     -0.0203
     97  CD1      -13.7710  -27.4340   -3.7390 C.ar  368  PHE368     -0.0042
     98  CD2      -13.9290  -25.1170   -3.1870 C.ar  368  PHE368     -0.0042
     99  CE1      -13.8670  -27.1430   -5.0850 C.ar  368  PHE368     -0.0003
    100  CE2      -14.0330  -24.8250   -4.5420 C.ar  368  PHE368     -0.0003
    101  CZ       -14.0100  -25.8280   -5.4940 C.ar  368  PHE368     -0.0000
    102  N         -8.3480  -26.2780   -3.4550 N.3   372  PHE372     -0.1241
    103  CA        -8.5890  -25.8450   -4.8310 C.3   372  PHE372      0.1605
    104  C         -7.9910  -24.4450   -5.0620 C.2   372  PHE372      0.2264
    105  O         -7.3650  -24.2040   -6.0630 O.2   372  PHE372     -0.2867
    106  CB       -10.0650  -25.8470   -5.1040 C.3   372  PHE372      0.0534
    107  CG       -10.3930  -25.5480   -6.5050 C.ar  372  PHE372     -0.0203
    108  CD1      -10.2030  -26.5150   -7.5000 C.ar  372  PHE372     -0.0042
    109  CD2      -10.9020  -24.2860   -6.8550 C.ar  372  PHE372     -0.0042
    110  CE1      -10.4310  -26.2170   -8.8240 C.ar  372  PHE372     -0.0003
    111  CE2      -11.1500  -23.9910   -8.1820 C.ar  372  PHE372     -0.0003
    112  CZ       -10.9430  -24.9660   -9.1630 C.ar  372  PHE372     -0.0000
@<TRIPOS>BOND
     1    53    52    1
     2    53    54    1
     3    52    49    1
     4    54    48    1
     5    49    48    1
     6    49    50    1
     7    48    42   am
     8    50    51    2
     9    46    45    2
    10    44    45    1
    11    44    41    1
    12    45    47   am
    13    42    41    1
    14    42    43    2
    15    41    40    1
    16    55    56    1
    17    31    30    2
    18    40    30   am
    19    30    29    1
    20    56    57    1
    21    57    58    2
    22    29    28    1
    23    29    32    1
    24    32    33    1
    25    33    34   ar
    26    33    35   ar
    27    34    36   ar
    28    35    37   ar
    29    81    82    1
    30    81    80    1
    31    24    23    2
    32    80    79    1
    33    23    22    1
    34    36    38   ar
    35    25    26    1
    36    25    22    1
    37    37    38   ar
    38    26    27    1
    39    27    21    1
    40    38    39    1
    41    22    21    1
    42    21    19   am
    43    79    78    1
    44    78    75    1
    45    19    18    1
    46    19    20    2
    47    18    17    1
    48    77    76    2
    49    75    76    1
    50    75    74    1
    51    76    83   am
    52    62    61    2
    53    74    68   am
    54    59    60    1
    55    60    61    1
    56    60    63    1
    57    69    68    2
    58    61    66   am
    59    68    67    1
    60    83    84    1
    61    12    11    2
    62    64    63    1
    63    85    86    2
    64    85    84    1
    65    63    65    1
    66    84    87    1
    67    66    67    1
    68    67    70    1
    69    11    10    1
    70    87    88    1
    71    87    89    1
    72    10     9    1
    73    10    13    1
    74    88    90    1
    75    70    71    1
    76    15    13    1
    77    13    14    1
    78    14    16    1
    79    71    73    1
    80    71    72    1
    81     4     3    2
    82     3     2    1
    83     6     7    1
    84     6     5    1
    85     2     5    1
    86     2     1    1
    87   112   110   ar
    88   112   111   ar
    89     7     8    1
    90   110   108   ar
    91   111   109   ar
    92   108   107   ar
    93   109   107   ar
    94   107   106    1
    95   105   104    2
    96   101    99   ar
    97   101   100   ar
    98   106   103    1
    99    99    97   ar
   100   104   103    1
   101   103   102    1
   102   100    98   ar
   103    97    96   ar
   104    98    96   ar
   105    96    95    1
   106    94    93    2
   107    95    92    1
   108    93    92    1
   109    92    91    1
