@<TRIPOS>MOLECULE
tmp/6eu6A01.pdb
 86 81 0 0 0
SMALL
GASTEIGER

@<TRIPOS>ATOM
      1  N         -3.5400  -33.6590   17.9220 N.3   147  LEU147     -0.1245
      2  CA        -3.4560  -35.1400   18.1190 C.3   147  LEU147      0.1561
      3  C         -2.1300  -35.5860   18.7390 C.2   147  LEU147      0.2260
      4  O         -2.0660  -36.5910   19.3950 O.2   147  LEU147     -0.2867
      5  CB        -3.6010  -35.8490   16.7620 C.3   147  LEU147      0.0270
      6  CG        -3.9490  -37.3220   16.5920 C.3   147  LEU147      0.0019
      7  CD1       -5.3350  -37.6140   17.1250 C.3   147  LEU147      0.0001
      8  CD2       -3.8870  -37.6010   15.0770 C.3   147  LEU147      0.0001
      9  N        -12.4270  -38.8390   11.2460 N.3   164  PHE164     -0.1241
     10  CA       -11.6680  -39.9080   11.8610 C.3   164  PHE164      0.1605
     11  C        -10.3490  -40.2640   11.1810 C.2   164  PHE164      0.2264
     12  O         -9.2840  -40.2530   11.8070 O.2   164  PHE164     -0.2867
     13  CB       -12.5800  -41.1500   11.9370 C.3   164  PHE164      0.0534
     14  CG       -11.8790  -42.3470   12.4590 C.ar  164  PHE164     -0.0203
     15  CD1      -11.2810  -42.3160   13.7230 C.ar  164  PHE164     -0.0042
     16  CD2      -11.8970  -43.5470   11.7590 C.ar  164  PHE164     -0.0042
     17  CE1      -10.6290  -43.4350   14.2130 C.ar  164  PHE164     -0.0003
     18  CE2      -11.2360  -44.6530   12.2530 C.ar  164  PHE164     -0.0003
     19  CZ       -10.5730  -44.6090   13.4540 C.ar  164  PHE164     -0.0000
     20  N         -6.3040  -45.8450   12.4620 N.3   227  SER227     -0.1202
     21  CA        -6.6270  -44.4880   12.9580 C.3   227  SER227      0.2020
     22  C         -7.1790  -44.4820   14.3980 C.2   227  SER227      0.2619
     23  O         -7.2920  -43.4180   15.0030 O.2   227  SER227     -0.2717
     24  CB        -7.5000  -43.6860   11.9890 C.3   227  SER227      0.2103
     25  OG        -6.7990  -43.3400   10.7810 O.3   227  SER227     -0.2182
     26  N         -7.5730  -45.6400   14.9260 N.am  228  LEU228     -0.1965
     27  CA        -7.8100  -45.7940   16.3640 C.3   228  LEU228      0.1728
     28  C         -6.5720  -45.4240   17.1760 C.2   228  LEU228      0.2616
     29  O         -6.6570  -45.0040   18.3320 O.2   228  LEU228     -0.2715
     30  CB        -8.2100  -47.2250   16.6860 C.3   228  LEU228      0.0311
     31  CG        -9.5710  -47.6430   16.1490 C.3   228  LEU228      0.0022
     32  CD1       -9.8420  -49.1090   16.4250 C.3   228  LEU228      0.0001
     33  CD2      -10.6880  -46.8130   16.7580 C.3   228  LEU228      0.0001
     34  N         -5.3970  -45.5730   16.5730 N.am  229  LEU229     -0.1963
     35  CA        -4.1340  -45.3100   17.2450 C.3   229  LEU229      0.1728
     36  C         -3.9060  -46.1920   18.4810 C.2   229  LEU229      0.2616
     37  O         -3.0590  -45.9230   19.2540 O.2   229  LEU229     -0.2715
     38  CB        -3.9790  -43.8260   17.5540 C.3   229  LEU229      0.0311
     39  CG        -3.9680  -42.9560   16.3280 C.3   229  LEU229      0.0022
     40  CD1       -3.8880  -41.4860   16.7160 C.3   229  LEU229      0.0001
     41  CD2       -2.8490  -43.3130   15.3680 C.3   229  LEU229      0.0001
     42  N         -4.6640  -47.2770   18.6090 N.am  230  ARG230     -0.1977
     43  CA        -4.5470  -48.1740   19.7550 C.3   230  ARG230      0.1597
     44  C         -5.3280  -49.4280   19.4090 C.2   230  ARG230      0.2287
     45  O         -6.1530  -49.4130   18.5020 O.2   230  ARG230     -0.2864
     46  CB        -5.1070  -47.5670   21.0480 C.3   230  ARG230      0.0334
     47  CG        -6.6230  -47.6320   21.1590 C.3   230  ARG230      0.0492
     48  CD        -7.0900  -47.1210   22.5170 C.3   230  ARG230      0.2205
     49  NE        -5.9530  -47.1650   23.4070 N.pl3 230  ARG230     -0.0865
     50  CZ        -5.5890  -48.2350   24.1130 C.cat 230  ARG230      0.5346
     51  NH1       -6.3320  -49.3690   24.0880 N.pl3 230  ARG230      0.1354
     52  NH2       -4.4930  -48.1420   24.8470 N.pl3 230  ARG230      0.1354
     53  N         -8.0720  -52.0080   20.4830 N.3   232  SER232     -0.1217
     54  CA        -9.2130  -52.3370   21.3720 C.3   232  SER232      0.1889
     55  C        -10.1200  -53.2420   20.5670 C.2   232  SER232      0.2288
     56  O         -9.9400  -53.4380   19.3750 O.2   232  SER232     -0.2866
     57  CB       -10.0170  -51.1100   21.8080 C.3   232  SER232      0.2089
     58  OG       -10.3050  -50.1930   20.7550 O.3   232  SER232     -0.2183
     59  N        -12.6800  -52.3050   19.4110 N.3   234  ASN234     -0.1240
     60  CA       -13.1860  -51.4630   18.3520 C.3   234  ASN234      0.1653
     61  C        -12.5480  -51.6920   16.9780 C.2   234  ASN234      0.2266
     62  O        -13.0600  -51.1820   15.9530 O.2   234  ASN234     -0.2867
     63  CB       -12.9830  -49.9930   18.7430 C.3   234  ASN234      0.1155
     64  CG       -13.8470  -49.6310   19.8830 C.2   234  ASN234      0.2627
     65  OD1      -14.9970  -50.0630   19.9290 O.2   234  ASN234     -0.2716
     66  ND2      -13.3030  -48.9020   20.8470 N.am  234  ASN234     -0.0877
     67  N        -15.1890  -45.3310   12.9470 N.3   285  ASN285     -0.1240
     68  CA       -15.1000  -45.6800   14.3610 C.3   285  ASN285      0.1653
     69  C        -16.3780  -45.3410   15.1420 C.2   285  ASN285      0.2266
     70  O        -16.5020  -45.7250   16.3100 O.2   285  ASN285     -0.2867
     71  CB       -13.9540  -44.9240   15.0080 C.3   285  ASN285      0.1155
     72  CG       -14.1600  -43.3900   14.9630 C.2   285  ASN285      0.2627
     73  OD1      -14.6520  -42.8110   13.9750 O.2   285  ASN285     -0.2716
     74  ND2      -13.7780  -42.7360   16.0230 N.am  285  ASN285     -0.0877
     75  N        -19.9650  -39.2200   20.1290 N.3   345  TYR345     -0.1241
     76  CA       -18.8230  -38.7260   19.3640 C.3   345  TYR345      0.1605
     77  C        -18.9310  -37.2770   18.8660 C.2   345  TYR345      0.2264
     78  O        -17.9270  -36.6790   18.4170 O.2   345  TYR345     -0.2867
     79  CB       -18.5750  -39.6580   18.1610 C.3   345  TYR345      0.0534
     80  CG       -17.9720  -40.9370   18.5830 C.ar  345  TYR345     -0.0201
     81  CD1      -16.6050  -41.0410   18.6740 C.ar  345  TYR345     -0.0009
     82  CD2      -18.7480  -42.0050   18.9120 C.ar  345  TYR345     -0.0009
     83  CE1      -16.0190  -42.2000   19.0750 C.ar  345  TYR345      0.0417
     84  CE2      -18.1710  -43.1870   19.3120 C.ar  345  TYR345      0.0417
     85  CZ       -16.7970  -43.2550   19.3600 C.ar  345  TYR345      0.1957
     86  OH       -16.1640  -44.3550   19.7920 O.3   345  TYR345     -0.2866
@<TRIPOS>BOND
     1    25    24    1
     2    11    12    2
     3    11    10    1
     4     9    10    1
     5    16    18   ar
     6    16    14   ar
     7    10    13    1
     8    13    14    1
     9    24    21    1
    10    18    19   ar
    11    14    15   ar
    12    20    21    1
    13    67    68    1
    14    21    22    1
    15    19    17   ar
    16    15    17   ar
    17    73    72    2
    18    68    71    1
    19    68    69    1
    20    22    26   am
    21    22    23    2
    22    26    27    1
    23    72    71    1
    24    72    74   am
    25     8     6    1
    26    69    70    2
    27    41    39    1
    28    62    61    2
    29    31    32    1
    30    31    30    1
    31    31    33    1
    32    39    40    1
    33    39    38    1
    34    27    30    1
    35    27    28    1
    36    34    28   am
    37    34    35    1
    38     6     5    1
    39     6     7    1
    40     5     2    1
    41    61    60    1
    42    28    29    2
    43    35    38    1
    44    35    36    1
    45     1     2    1
    46     2     3    1
    47    79    80    1
    48    79    76    1
    49    60    63    1
    50    60    59    1
    51    78    77    2
    52    36    42   am
    53    36    37    2
    54    45    44    2
    55    80    81   ar
    56    80    82   ar
    57    42    43    1
    58    81    83   ar
    59     3     4    2
    60    63    64    1
    61    77    76    1
    62    82    84   ar
    63    83    85   ar
    64    84    85   ar
    65    85    86    1
    66    76    75    1
    67    56    55    2
    68    44    43    1
    69    43    46    1
    70    64    65    2
    71    64    66   am
    72    53    54    1
    73    55    54    1
    74    58    57    1
    75    46    47    1
    76    47    48    1
    77    54    57    1
    78    48    49    1
    79    49    50    2
    80    51    50    1
    81    50    52    1
