@<TRIPOS>MOLECULE
tmp/6eu6A03.pdb
 120 114 0 0 0
SMALL
GASTEIGER

@<TRIPOS>ATOM
      1  N          9.1690  -38.4240   -3.0440 N.3    53  ILE53      -0.1245
      2  CA         9.0560  -36.9830   -2.7660 C.3    53  ILE53       0.1561
      3  C          8.2330  -36.7090   -1.5200 C.2    53  ILE53       0.2260
      4  O          8.6600  -35.9630   -0.6200 O.2    53  ILE53      -0.2867
      5  CB         8.4640  -36.2180   -3.9470 C.3    53  ILE53       0.0252
      6  CG1        9.2700  -36.3770   -5.2480 C.3    53  ILE53       0.0019
      7  CG2        8.3820  -34.7140   -3.6510 C.3    53  ILE53       0.0019
      8  CD1       10.7440  -36.0460   -5.1310 C.3    53  ILE53       0.0001
      9  N         10.0910  -37.6040    1.7520 N.3    56  LEU56      -0.1231
     10  CA        11.1390  -36.6830    2.1960 C.3    56  LEU56       0.1693
     11  C         10.5760  -35.2950    2.5920 C.2    56  LEU56       0.2591
     12  O         11.0080  -34.6970    3.5670 O.2    56  LEU56      -0.2718
     13  CB        12.2100  -36.4930    1.1270 C.3    56  LEU56       0.0284
     14  CG        13.0870  -37.7040    0.8110 C.3    56  LEU56       0.0019
     15  CD1       14.0790  -37.2950   -0.2490 C.3    56  LEU56       0.0001
     16  CD2       13.8230  -38.1310    2.0190 C.3    56  LEU56       0.0001
     17  N          9.5960  -34.8090    1.8540 N.am   57  VAL57      -0.1980
     18  CA         9.0310  -33.4780    2.1490 C.3    57  VAL57       0.1595
     19  C          8.2660  -33.5480    3.4570 C.2    57  VAL57       0.2287
     20  O          8.3070  -32.6360    4.2830 O.2    57  VAL57      -0.2864
     21  CB         8.1710  -33.0080    0.9790 C.3    57  VAL57       0.0276
     22  CG1        7.3390  -31.7560    1.3570 C.3    57  VAL57       0.0022
     23  CG2        9.0330  -32.7710   -0.2210 C.3    57  VAL57       0.0022
     24  N          3.0200  -32.9110  -18.1450 N.3   120  GLY120     -0.1210
     25  CA         4.4370  -33.2410  -18.1110 C.3   120  GLY120      0.1956
     26  C          4.9020  -33.6070  -16.7410 C.2   120  GLY120      0.2612
     27  O          4.1770  -33.4090  -15.7190 O.2   120  GLY120     -0.2717
     28  N          6.1180  -34.1510  -16.6900 N.am  121  PHE121     -0.1962
     29  CA         6.7300  -34.5750  -15.4210 C.3   121  PHE121      0.1771
     30  C          6.8270  -33.4980  -14.3210 C.2   121  PHE121      0.2619
     31  O          6.4690  -33.7170  -13.1660 O.2   121  PHE121     -0.2715
     32  CB         8.0940  -35.1210  -15.6920 C.3   121  PHE121      0.0574
     33  CG         8.6640  -35.8670  -14.5480 C.ar  121  PHE121     -0.0200
     34  CD1        8.0580  -37.0170  -14.0900 C.ar  121  PHE121     -0.0042
     35  CD2        9.8300  -35.4380  -13.9280 C.ar  121  PHE121     -0.0042
     36  CE1        8.5990  -37.7410  -13.0220 C.ar  121  PHE121     -0.0003
     37  CE2       10.3670  -36.1360  -12.8690 C.ar  121  PHE121     -0.0003
     38  CZ         9.7580  -37.3110  -12.4290 C.ar  121  PHE121     -0.0000
     39  N          7.2460  -32.3140  -14.6700 N.am  122  ILE122     -0.1964
     40  CA         7.5110  -31.3000  -13.6550 C.3   122  ILE122      0.1712
     41  C          6.2600  -30.8930  -12.8730 C.2   122  ILE122      0.2458
     42  O          6.2920  -30.7560  -11.6450 O.2   122  ILE122     -0.2730
     43  CB         8.2100  -30.0470  -14.2840 C.3   122  ILE122      0.0289
     44  CG1        9.6590  -30.3770  -14.7390 C.3   122  ILE122      0.0022
     45  CG2        8.1840  -28.8720  -13.3150 C.3   122  ILE122      0.0023
     46  CD1       10.4920  -31.1160  -13.7360 C.3   122  ILE122      0.0001
     47  N          5.1550  -30.6500  -13.5620 N.am  123  PRO123     -0.2727
     48  CA         3.9070  -30.3810  -12.8100 C.3   123  PRO123      0.1402
     49  C          3.5660  -31.4840  -11.7830 C.2   123  PRO123      0.2269
     50  O          3.0060  -31.2100  -10.7180 O.2   123  PRO123     -0.2865
     51  CB         2.8300  -30.2940  -13.9290 C.3   123  PRO123      0.0296
     52  CG         3.5980  -29.9520  -15.1710 C.3   123  PRO123      0.0237
     53  CD         5.0040  -30.4310  -15.0200 C.3   123  PRO123      0.0939
     54  N          5.8380  -33.7360  -10.1500 N.3   125  ILE125     -0.1245
     55  CA         6.7320  -33.7310   -9.0280 C.3   125  ILE125      0.1561
     56  C          6.6370  -32.4180   -8.2220 C.2   125  ILE125      0.2260
     57  O          6.6910  -32.4450   -6.9860 O.2   125  ILE125     -0.2867
     58  CB         8.1630  -34.0140   -9.3990 C.3   125  ILE125      0.0252
     59  CG1        8.6770  -32.9840  -10.3910 C.3   125  ILE125      0.0019
     60  CG2        8.2530  -35.3760  -10.0190 C.3   125  ILE125      0.0019
     61  CD1       10.1600  -33.1650  -10.6460 C.3   125  ILE125      0.0001
     62  N          5.3940  -31.9490   -4.2500 N.3   129  ALA129     -0.1245
     63  CA         6.1430  -31.2730   -3.2090 C.3   129  ALA129      0.1562
     64  C          5.2960  -30.2020   -2.5530 C.2   129  ALA129      0.2260
     65  O          5.3140  -30.0340   -1.3090 O.2   129  ALA129     -0.2867
     66  CB         7.3870  -30.6360   -3.8470 C.3   129  ALA129      0.0290
     67  N          6.8310  -22.9200  -16.7240 N.3   386  LYS386     -0.1231
     68  CA         6.9750  -24.2260  -17.3660 C.3   386  LYS386      0.1693
     69  C          5.5940  -24.6450  -17.8040 C.2   386  LYS386      0.2591
     70  O          4.6730  -24.6750  -16.9610 O.2   386  LYS386     -0.2718
     71  CB         7.5750  -25.2580  -16.4320 C.3   386  LYS386      0.0285
     72  CG         7.9660  -26.5720  -17.1190 C.3   386  LYS386      0.0035
     73  CD         9.4100  -26.5450  -17.6230 C.3   386  LYS386      0.0206
     74  CE         9.5640  -27.0040  -19.0720 C.3   386  LYS386      0.1093
     75  NZ         8.9470  -26.0820  -20.0840 N.3   386  LYS386     -0.1314
     76  N          5.4390  -24.9210  -19.0980 N.am  387  ARG387     -0.1980
     77  CA         4.1740  -25.4120  -19.6410 C.3   387  ARG387      0.1597
     78  C          3.7560  -26.7380  -18.9060 C.2   387  ARG387      0.2287
     79  O          4.5760  -27.5700  -18.5390 O.2   387  ARG387     -0.2864
     80  CB         4.1970  -25.5710  -21.1670 C.3   387  ARG387      0.0334
     81  CG         3.7620  -24.3160  -21.9570 C.3   387  ARG387      0.0492
     82  CD         2.4250  -23.6580  -21.5490 C.3   387  ARG387      0.2205
     83  NE         1.2200  -24.4710  -21.8460 N.pl3 387  ARG387     -0.0865
     84  CZ         0.4120  -25.0740  -20.9520 C.cat 387  ARG387      0.5346
     85  NH1        0.5970  -24.9720  -19.6720 N.pl3 387  ARG387      0.1354
     86  NH2       -0.6260  -25.7590  -21.3490 N.pl3 387  ARG387      0.1354
     87  N          1.3890  -28.9640  -19.9180 N.3   389  ARG389     -0.1231
     88  CA         1.1650  -30.1200  -20.7700 C.3   389  ARG389      0.1694
     89  C          2.3410  -30.4920  -21.6220 C.2   389  ARG389      0.2592
     90  O          3.2030  -29.6700  -21.9220 O.2   389  ARG389     -0.2718
     91  CB         0.0750  -29.9560  -21.7690 C.3   389  ARG389      0.0321
     92  CG        -1.1380  -29.3120  -21.3580 C.3   389  ARG389      0.0489
     93  CD        -1.9780  -29.0710  -22.5890 C.3   389  ARG389      0.2205
     94  NE        -2.4760  -30.2740  -23.2640 N.pl3 389  ARG389     -0.0865
     95  CZ        -3.6900  -30.8100  -23.1450 C.cat 389  ARG389      0.5346
     96  NH1       -4.6040  -30.3520  -22.2810 N.pl3 389  ARG389      0.1354
     97  NH2       -4.0030  -31.8330  -23.8950 N.pl3 389  ARG389      0.1354
     98  N          2.3300  -31.7310  -22.0770 N.am  390  VAL390     -0.1966
     99  CA         3.2390  -32.1610  -23.1250 C.3   390  VAL390      0.1727
    100  C          2.6870  -31.6930  -24.4890 C.2   390  VAL390      0.2616
    101  O          1.5230  -31.2670  -24.6050 O.2   390  VAL390     -0.2715
    102  CB         3.4880  -33.6910  -23.1220 C.3   390  VAL390      0.0290
    103  CG1        3.9400  -34.1620  -21.7770 C.3   390  VAL390      0.0023
    104  CG2        2.2450  -34.5000  -23.5940 C.3   390  VAL390      0.0023
    105  N          3.5080  -31.7870  -25.5380 N.am  391  THR391     -0.1951
    106  CA         3.0560  -31.3560  -26.8780 C.3   391  THR391      0.1897
    107  C          2.0210  -32.3400  -27.3890 C.2   391  THR391      0.2313
    108  O          1.9730  -33.5100  -26.9670 O.2   391  THR391     -0.2863
    109  CB         4.2160  -31.2430  -27.8880 C.3   391  THR391      0.1794
    110  OG1        4.7670  -32.5530  -28.1420 O.3   391  THR391     -0.2208
    111  CG2        5.3180  -30.3450  -27.3130 C.3   391  THR391      0.0378
    112  N          3.5770  -35.6830  -28.6710 N.3   394  GLU394     -0.1245
    113  CA         3.8940  -36.5400  -27.5570 C.3   394  GLU394      0.1567
    114  C          2.6560  -37.1900  -26.9100 C.2   394  GLU394      0.2260
    115  O          2.5670  -38.4190  -26.6250 O.2   394  GLU394     -0.2867
    116  CB         4.6800  -35.6750  -26.6270 C.3   394  GLU394      0.0388
    117  CG         5.0650  -36.3300  -25.3870 C.3   394  GLU394      0.1160
    118  CD         6.2090  -35.6060  -24.7770 C.2   394  GLU394      0.3649
    119  OE1        6.4830  -34.3780  -25.1610 O.co2 394  GLU394     -0.2457
    120  OE2        6.8010  -36.3710  -23.9500 O.co2 394  GLU394     -0.2457
@<TRIPOS>BOND
     1   112   113    1
     2   110   109    1
     3   109   111    1
     4   109   106    1
     5   113   114    1
     6   113   116    1
     7   107   108    2
     8   107   106    1
     9   114   115    2
    10   106   105    1
    11   116   117    1
    12   105   100   am
    13   117   118    1
    14   119   118   ar
    15   118   120   ar
    16   101   100    2
    17   100    99    1
    18    97    95    1
    19   104   102    1
    20    94    95    2
    21    94    93    1
    22    95    96    1
    23    99   102    1
    24    99    98    1
    25   102   103    1
    26    93    92    1
    27    98    89   am
    28    81    82    1
    29    81    80    1
    30    90    89    2
    31    83    82    1
    32    83    84    2
    33    91    92    1
    34    91    88    1
    35    89    88    1
    36    86    84    1
    37    80    77    1
    38    84    85    1
    39    88    87    1
    40    75    74    1
    41    77    76    1
    42    77    78    1
    43    76    69   am
    44    74    73    1
    45    78    79    2
    46    24    25    1
    47    25    26    1
    48    69    68    1
    49    69    70    2
    50    73    72    1
    51    68    67    1
    52    68    71    1
    53    72    71    1
    54    26    28   am
    55    26    27    2
    56    28    29    1
    57    32    29    1
    58    32    33    1
    59    29    30    1
    60    52    53    1
    61    52    51    1
    62    53    47    1
    63    44    43    1
    64    44    46    1
    65    39    30   am
    66    39    40    1
    67    33    34   ar
    68    33    35   ar
    69    30    31    2
    70    43    40    1
    71    43    45    1
    72    34    36   ar
    73    51    48    1
    74    35    37   ar
    75    40    41    1
    76    47    41   am
    77    47    48    1
    78    36    38   ar
    79    41    42    2
    80    37    38   ar
    81    48    49    1
    82    49    50    2
    83    61    59    1
    84    59    58    1
    85    54    55    1
    86    60    58    1
    87    58    55    1
    88    55    56    1
    89    56    57    2
    90     6     8    1
    91     6     5    1
    92    62    63    1
    93     5     7    1
    94     5     2    1
    95    66    63    1
    96    63    64    1
    97     1     2    1
    98     2     3    1
    99    64    65    2
   100     3     4    2
   101    15    14    1
   102    23    21    1
   103    14    13    1
   104    14    16    1
   105    21    22    1
   106    21    18    1
   107    13    10    1
   108     9    10    1
   109    17    18    1
   110    17    11   am
   111    18    19    1
   112    10    11    1
   113    11    12    2
   114    19    20    2
