@<TRIPOS>MOLECULE
tmp/6eu9B00.pdb
 189 174 0 0 0
SMALL
GASTEIGER

@<TRIPOS>ATOM
      1  N         37.3910   40.8290  -21.7690 N.3    32  LEU32      -0.1245
      2  CA        38.5390   41.4640  -22.4500 C.3    32  LEU32       0.1561
      3  C         38.1350   41.9190  -23.8730 C.2    32  LEU32       0.2260
      4  O         37.1530   41.4560  -24.4290 O.2    32  LEU32      -0.2867
      5  CB        39.7390   40.5470  -22.4420 C.3    32  LEU32       0.0270
      6  CG        40.5230   40.3140  -23.7440 C.3    32  LEU32       0.0019
      7  CD1       41.9650   40.8740  -23.8000 C.3    32  LEU32       0.0001
      8  CD2       40.3890   38.8280  -24.0590 C.3    32  LEU32       0.0001
      9  N         49.8840   32.4070  -22.7220 N.3    36  LEU36      -0.1245
     10  CA        48.6870   31.5600  -23.0080 C.3    36  LEU36       0.1561
     11  C         48.7070   30.2460  -22.2670 C.2    36  LEU36       0.2260
     12  O         47.7850   29.9490  -21.5240 O.2    36  LEU36      -0.2867
     13  CB        48.4930   31.2140  -24.4660 C.3    36  LEU36       0.0270
     14  CG        47.0680   30.9270  -25.0090 C.3    36  LEU36       0.0019
     15  CD1       46.9940   29.7660  -25.9960 C.3    36  LEU36       0.0001
     16  CD2       46.0080   30.7100  -23.9410 C.3    36  LEU36       0.0001
     17  N         48.0180   30.8290  -18.8550 N.3    39  ARG39      -0.1231
     18  CA        46.6130   31.1690  -18.6520 C.3    39  ARG39       0.1694
     19  C         45.7970   29.8750  -18.4970 C.2    39  ARG39       0.2591
     20  O         44.9790   29.7460  -17.5700 O.2    39  ARG39      -0.2718
     21  CB        46.0510   32.0250  -19.7800 C.3    39  ARG39       0.0321
     22  CG        46.2480   33.5050  -19.6350 C.3    39  ARG39       0.0489
     23  CD        45.7610   34.1620  -20.9200 C.3    39  ARG39       0.2205
     24  NE        46.3650   35.4760  -21.1990 N.pl3  39  ARG39      -0.0865
     25  CZ        46.7330   35.9160  -22.4120 C.cat  39  ARG39       0.5346
     26  NH1       47.2620   37.1270  -22.5430 N.pl3  39  ARG39       0.1354
     27  NH2       46.5910   35.1390  -23.4820 N.pl3  39  ARG39       0.1354
     28  N         46.0420   28.9430  -19.4360 N.am   40  VAL40      -0.1980
     29  CA        45.3590   27.6920  -19.4870 C.3    40  VAL40       0.1595
     30  C         45.5550   26.8670  -18.2240 C.2    40  VAL40       0.2287
     31  O         44.5860   26.3680  -17.6630 O.2    40  VAL40      -0.2864
     32  CB        45.7170   26.9410  -20.8010 C.3    40  VAL40       0.0276
     33  CG1       45.1740   25.4910  -20.8060 C.3    40  VAL40       0.0022
     34  CG2       45.1200   27.7150  -21.9790 C.3    40  VAL40       0.0022
     35  N         43.7700   28.0720  -14.8160 N.3    43  LEU43      -0.1231
     36  CA        42.3240   27.9070  -14.8150 C.3    43  LEU43       0.1693
     37  C         41.9440   26.4410  -14.8630 C.2    43  LEU43       0.2592
     38  O         41.0530   25.9890  -14.1120 O.2    43  LEU43      -0.2718
     39  CB        41.7290   28.6020  -16.0090 C.3    43  LEU43       0.0284
     40  CG        41.8280   30.1010  -16.0720 C.3    43  LEU43       0.0019
     41  CD1       41.2120   30.4660  -17.4130 C.3    43  LEU43       0.0001
     42  CD2       41.0720   30.7720  -14.9990 C.3    43  LEU43       0.0001
     43  N         42.6970   25.6780  -15.6700 N.am   44  SER44      -0.1952
     44  CA        42.5120   24.2350  -15.7240 C.3    44  SER44       0.1924
     45  C         42.7630   23.5940  -14.3540 C.2    44  SER44       0.2314
     46  O         42.0700   22.7010  -13.9350 O.2    44  SER44      -0.2863
     47  CB        43.4580   23.6450  -16.7450 C.3    44  SER44       0.2116
     48  OG        42.9100   23.8490  -18.0390 O.3    44  SER44      -0.2180
     49  N         38.5490   15.5070  -17.2210 N.3    78  LEU78      -0.1245
     50  CA        38.4890   16.4300  -18.3760 C.3    78  LEU78       0.1561
     51  C         37.0440   16.4940  -18.9040 C.2    78  LEU78       0.2260
     52  O         36.5900   17.5430  -19.2630 O.2    78  LEU78      -0.2867
     53  CB        39.4350   15.9720  -19.4730 C.3    78  LEU78       0.0270
     54  CG        40.2740   16.9190  -20.3210 C.3    78  LEU78       0.0019
     55  CD1       40.4010   16.3620  -21.7300 C.3    78  LEU78       0.0001
     56  CD2       39.7960   18.3850  -20.4050 C.3    78  LEU78       0.0001
     57  N         34.7830   18.7520  -16.9470 N.3    81  ILE81      -0.1231
     58  CA        35.1740   20.1480  -17.1930 C.3    81  ILE81       0.1692
     59  C         34.6190   20.6640  -18.5180 C.2    81  ILE81       0.2591
     60  O         34.1800   21.7990  -18.6540 O.2    81  ILE81      -0.2718
     61  CB        36.6940   20.2910  -17.1090 C.3    81  ILE81       0.0266
     62  CG1       37.0770   20.1870  -15.6280 C.3    81  ILE81       0.0019
     63  CG2       37.1940   21.6230  -17.6580 C.3    81  ILE81       0.0020
     64  CD1       38.5720   20.1460  -15.4090 C.3    81  ILE81       0.0001
     65  N         34.6260   19.8480  -19.5450 N.am   82  ILE82      -0.1980
     66  CA        33.9240   20.3280  -20.7320 C.3    82  ILE82       0.1595
     67  C         32.4500   20.4970  -20.4730 C.2    82  ILE82       0.2287
     68  O         31.9080   21.5270  -20.6930 O.2    82  ILE82      -0.2864
     69  CB        34.2700   19.5320  -21.9860 C.3    82  ILE82       0.0276
     70  CG1       35.7340   19.8140  -22.2890 C.3    82  ILE82       0.0022
     71  CG2       33.4610   19.9920  -23.1590 C.3    82  ILE82       0.0022
     72  CD1       36.4470   18.5140  -22.4470 C.3    82  ILE82       0.0001
     73  N         31.7280   23.4530  -18.2870 N.3    85  LEU85      -0.1245
     74  CA        32.0270   24.6540  -18.9970 C.3    85  LEU85       0.1561
     75  C         30.9260   24.9840  -19.9290 C.2    85  LEU85       0.2260
     76  O         30.5660   26.1380  -20.1020 O.2    85  LEU85      -0.2867
     77  CB        33.3670   24.4520  -19.6960 C.3    85  LEU85       0.0270
     78  CG        34.0340   25.7830  -19.9830 C.3    85  LEU85       0.0019
     79  CD1       34.8190   26.1500  -18.7200 C.3    85  LEU85       0.0001
     80  CD2       34.8310   25.6910  -21.2920 C.3    85  LEU85       0.0001
     81  N         34.6550   31.2120  -17.6340 N.3    98  PHE98      -0.1241
     82  CA        35.4370   30.4050  -16.7370 C.3    98  PHE98       0.1605
     83  C         35.0810   30.8450  -15.3070 C.2    98  PHE98       0.2264
     84  O         34.3100   31.8000  -15.1350 O.2    98  PHE98      -0.2867
     85  CB        36.8980   30.5500  -17.0240 C.3    98  PHE98       0.0534
     86  CG        37.3070   30.0490  -18.3740 C.ar   98  PHE98      -0.0203
     87  CD1       37.6720   28.7140  -18.5940 C.ar   98  PHE98      -0.0042
     88  CD2       37.3770   30.9470  -19.4710 C.ar   98  PHE98      -0.0042
     89  CE1       38.0750   28.2940  -19.8710 C.ar   98  PHE98      -0.0003
     90  CE2       37.7840   30.5320  -20.7290 C.ar   98  PHE98      -0.0003
     91  CZ        38.1400   29.2130  -20.9250 C.ar   98  PHE98      -0.0000
     92  N         35.8850   35.4130  -16.4130 N.3   102  LEU102     -0.1245
     93  CA        36.3640   35.7320  -17.7660 C.3   102  LEU102      0.1561
     94  C         35.4510   35.0730  -18.8190 C.2   102  LEU102      0.2260
     95  O         35.1410   33.8940  -18.7250 O.2   102  LEU102     -0.2867
     96  CB        37.7960   35.2990  -17.9860 C.3   102  LEU102      0.0270
     97  CG        38.4100   35.9260  -19.2370 C.3   102  LEU102      0.0019
     98  CD1       39.0460   37.1850  -18.7470 C.3   102  LEU102      0.0001
     99  CD2       39.5000   35.0930  -19.9130 C.3   102  LEU102      0.0001
    100  N         34.1780   34.8030  -22.9570 N.3   104  LEU104     -0.1245
    101  CA        34.8500   34.9650  -24.2860 C.3   104  LEU104      0.1561
    102  C         33.9750   34.5510  -25.4440 C.2   104  LEU104      0.2260
    103  O         33.2820   33.5780  -25.3310 O.2   104  LEU104     -0.2867
    104  CB        36.2080   34.2730  -24.3550 C.3   104  LEU104      0.0270
    105  CG        37.2860   34.8100  -23.4140 C.3   104  LEU104      0.0019
    106  CD1       38.4120   33.8300  -23.2050 C.3   104  LEU104      0.0001
    107  CD2       37.8610   36.0970  -23.9810 C.3   104  LEU104      0.0001
    108  N         36.9510   34.8290  -30.2300 N.3   108  GLN108     -0.1231
    109  CA        38.1190   35.0340  -29.4220 C.3   108  GLN108      0.1698
    110  C         38.8230   33.7390  -29.1260 C.2   108  GLN108      0.2592
    111  O         40.0370   33.6840  -29.1450 O.2   108  GLN108     -0.2718
    112  CB        37.8060   35.7530  -28.1040 C.3   108  GLN108      0.0381
    113  CG        36.7600   36.8250  -28.2010 C.3   108  GLN108      0.0905
    114  CD        36.8720   37.8840  -27.1180 C.2   108  GLN108      0.2608
    115  OE1       37.7420   38.7500  -27.2310 O.2   108  GLN108     -0.2717
    116  NE2       35.9560   37.8690  -26.1070 N.am  108  GLN108     -0.0878
    117  N         38.0680   32.6980  -28.8250 N.am  109  LEU109     -0.1980
    118  CA        38.6770   31.4540  -28.3190 C.3   109  LEU109      0.1596
    119  C         39.3280   30.6940  -29.4550 C.2   109  LEU109      0.2287
    120  O         40.2030   29.8730  -29.2410 O.2   109  LEU109     -0.2864
    121  CB        37.5930   30.6290  -27.6280 C.3   109  LEU109      0.0297
    122  CG        37.2850   31.0140  -26.2070 C.3   109  LEU109      0.0022
    123  CD1       35.8730   30.5780  -25.9030 C.3   109  LEU109      0.0001
    124  CD2       38.2380   30.4380  -25.1490 C.3   109  LEU109      0.0001
    125  N         42.6370   31.9540  -29.2520 N.3   112  GLY112     -0.1210
    126  CA        43.1770   31.7840  -27.9130 C.3   112  GLY112      0.1956
    127  C         43.2580   30.3090  -27.5870 C.2   112  GLY112      0.2612
    128  O         43.7730   29.5030  -28.3920 O.2   112  GLY112     -0.2717
    129  N         42.7310   29.9390  -26.4140 N.am  113  GLY113     -0.1942
    130  CA        42.8490   28.5690  -25.8950 C.3   113  GLY113      0.2014
    131  C         42.3580   27.4320  -26.7670 C.2   113  GLY113      0.2638
    132  O         43.0640   26.4350  -26.9560 O.2   113  GLY113     -0.2714
    133  N         41.1550   27.5500  -27.2890 N.am  114  PHE114     -0.1973
    134  CA        40.4750   26.3980  -27.9030 C.3   114  PHE114      0.1639
    135  C         41.0260   26.0130  -29.2750 C.2   114  PHE114      0.2290
    136  O         41.1880   24.8170  -29.5480 O.2   114  PHE114     -0.2864
    137  CB        38.9940   26.6790  -27.9680 C.3   114  PHE114      0.0560
    138  CG        38.2800   26.5340  -26.6380 C.ar  114  PHE114     -0.0200
    139  CD1       38.9660   26.2380  -25.4350 C.ar  114  PHE114     -0.0042
    140  CD2       36.8930   26.7560  -26.5700 C.ar  114  PHE114     -0.0042
    141  CE1       38.2760   26.1210  -24.2390 C.ar  114  PHE114     -0.0003
    142  CE2       36.2130   26.6560  -25.3730 C.ar  114  PHE114     -0.0003
    143  CZ        36.9070   26.3400  -24.2180 C.ar  114  PHE114     -0.0000
    144  N         39.2830   23.2600  -31.7900 N.3   117  LEU117     -0.1245
    145  CA        38.2200   22.6840  -31.0000 C.3   117  LEU117      0.1561
    146  C         36.9500   23.4900  -30.9580 C.2   117  LEU117      0.2260
    147  O         35.8160   22.9460  -30.9310 O.2   117  LEU117     -0.2867
    148  CB        38.6570   22.4460  -29.5500 C.3   117  LEU117      0.0270
    149  CG        38.6790   21.0010  -29.0660 C.3   117  LEU117      0.0019
    150  CD1       37.3410   20.6420  -28.4840 C.3   117  LEU117      0.0001
    151  CD2       38.9070   20.0000  -30.1980 C.3   117  LEU117      0.0001
    152  N         33.1790   22.4230  -29.7930 N.3   121  ILE121     -0.1245
    153  CA        32.7770   22.6880  -28.4200 C.3   121  ILE121      0.1561
    154  C         31.5000   23.5050  -28.3430 C.2   121  ILE121      0.2260
    155  O         30.6500   23.2150  -27.5410 O.2   121  ILE121     -0.2867
    156  CB        33.9130   23.3540  -27.6280 C.3   121  ILE121      0.0252
    157  CG1       34.7650   22.2350  -26.9940 C.3   121  ILE121      0.0019
    158  CG2       33.4050   24.1480  -26.4400 C.3   121  ILE121      0.0019
    159  CD1       36.0310   22.6770  -26.3030 C.3   121  ILE121      0.0001
    160  N         40.0460   17.5930  -27.1090 N.3   203  GLY203     -0.1225
    161  CA        40.4550   18.6230  -26.1780 C.3   203  GLY203      0.1811
    162  C         41.7920   18.3090  -25.5590 C.2   203  GLY203      0.2280
    163  O         42.5610   19.2020  -25.2670 O.2   203  GLY203     -0.2866
    164  N         44.5650   19.0900  -27.7290 N.3   206  ARG206     -0.1231
    165  CA        44.8130   20.4980  -27.7190 C.3   206  ARG206      0.1694
    166  C         45.6860   20.9170  -26.5540 C.2   206  ARG206      0.2591
    167  O         46.4690   21.8200  -26.6670 O.2   206  ARG206     -0.2718
    168  CB        43.4980   21.2560  -27.7440 C.3   206  ARG206      0.0321
    169  CG        43.6110   22.7340  -27.5840 C.3   206  ARG206      0.0489
    170  CD        44.0900   23.4190  -28.8110 C.3   206  ARG206      0.2205
    171  NE        44.2940   24.8210  -28.4840 N.pl3 206  ARG206     -0.0865
    172  CZ        45.2390   25.6040  -29.0100 C.cat 206  ARG206      0.5346
    173  NH1       46.1510   25.0820  -29.8560 N.pl3 206  ARG206      0.1354
    174  NH2       45.3100   26.8740  -28.5850 N.pl3 206  ARG206      0.1354
    175  N         45.5210   20.2990  -25.3910 N.am  207  VAL207     -0.1980
    176  CA        46.3830   20.6180  -24.2210 C.3   207  VAL207      0.1595
    177  C         47.8360   20.2590  -24.5210 C.2   207  VAL207      0.2287
    178  O         48.7680   20.9750  -24.2330 O.2   207  VAL207     -0.2864
    179  CB        45.8480   20.0560  -22.8900 C.3   207  VAL207      0.0276
    180  CG1       46.7580   20.4570  -21.7570 C.3   207  VAL207      0.0022
    181  CG2       44.5210   20.6870  -22.6080 C.3   207  VAL207      0.0022
    182  N         49.6710   22.5630  -27.0340 N.3   210  LEU210     -0.1245
    183  CA        50.0740   23.6880  -26.2640 C.3   210  LEU210      0.1561
    184  C         51.2680   23.4360  -25.3560 C.2   210  LEU210      0.2260
    185  O         52.1510   24.2730  -25.2010 O.2   210  LEU210     -0.2867
    186  CB        48.8940   24.1560  -25.4030 C.3   210  LEU210      0.0270
    187  CG        47.8580   25.0450  -26.0650 C.3   210  LEU210      0.0019
    188  CD1       47.0340   25.7570  -24.9990 C.3   210  LEU210      0.0001
    189  CD2       48.4700   26.0770  -26.9920 C.3   210  LEU210      0.0001
@<TRIPOS>BOND
     1   144   145    1
     2   145   146    1
     3   145   148    1
     4   146   147    2
     5   108   109    1
     6   151   149    1
     7   173   172    1
     8   152   153    1
     9   148   149    1
    10   136   135    2
    11   119   120    2
    12   119   118    1
    13   109   110    1
    14   109   112    1
    15   135   134    1
    16   125   126    1
    17   111   110    2
    18   110   117   am
    19   149   150    1
    20   172   174    1
    21   172   171    2
    22   117   118    1
    23   170   171    1
    24   170   169    1
    25   153   154    1
    26   153   156    1
    27   128   127    2
    28   154   155    2
    29   118   121    1
    30   113   112    1
    31   113   114    1
    32   137   134    1
    33   137   138    1
    34   126   127    1
    35   134   133    1
    36   168   165    1
    37   168   169    1
    38   164   165    1
    39   165   166    1
    40   156   157    1
    41   156   158    1
    42   121   122    1
    43   127   129   am
    44   133   131   am
    45   115   114    2
    46   114   116   am
    47   160   161    1
    48   182   183    1
    49   157   159    1
    50   189   187    1
    51   132   131    2
    52   131   130    1
    53   167   166    2
    54   138   140   ar
    55   138   139   ar
    56   140   142   ar
    57   166   175   am
    58   129   130    1
    59   183   186    1
    60   183   184    1
    61   122   123    1
    62   122   124    1
    63   161   162    1
    64   187   186    1
    65   187   188    1
    66    15    14    1
    67   162   163    2
    68   102   103    2
    69   102   101    1
    70   139   141   ar
    71   175   176    1
    72   142   143   ar
    73   184   185    2
    74    14    13    1
    75    14    16    1
    76   177   178    2
    77   177   176    1
    78    13    10    1
    79     4     3    2
    80   104   101    1
    81   104   105    1
    82   101   100    1
    83   141   143   ar
    84   176   179    1
    85     8     6    1
    86   107   105    1
    87     3     2    1
    88     7     6    1
    89     6     5    1
    90    27    25    1
    91   105   106    1
    92    71    69    1
    93    10     9    1
    94    10    11    1
    95   179   181    1
    96   179   180    1
    97    26    25    1
    98     2     5    1
    99     2     1    1
   100    72    70    1
   101    25    24    2
   102    70    69    1
   103    11    12    2
   104    69    66    1
   105    34    32    1
   106    55    54    1
   107    80    78    1
   108    24    23    1
   109    91    90   ar
   110    91    89   ar
   111    23    22    1
   112    33    32    1
   113    32    29    1
   114    66    67    1
   115    66    65    1
   116    90    88   ar
   117    68    67    2
   118    56    54    1
   119    54    53    1
   120    76    75    2
   121    78    77    1
   122    78    79    1
   123    75    74    1
   124    99    97    1
   125    89    87   ar
   126    21    22    1
   127    21    18    1
   128    77    74    1
   129    65    59   am
   130    29    28    1
   131    29    30    1
   132    53    50    1
   133    88    86   ar
   134    28    19   am
   135    52    51    2
   136    97    98    1
   137    97    96    1
   138    74    73    1
   139    51    50    1
   140    17    18    1
   141    94    95    2
   142    94    93    1
   143    60    59    2
   144    18    19    1
   145    87    86   ar
   146    59    58    1
   147    19    20    2
   148    50    49    1
   149    86    85    1
   150    30    31    2
   151    48    47    1
   152    96    93    1
   153    93    92    1
   154    63    61    1
   155    81    82    1
   156    41    40    1
   157    58    61    1
   158    58    57    1
   159    61    62    1
   160    85    82    1
   161    47    44    1
   162    82    83    1
   163    40    39    1
   164    40    42    1
   165    39    36    1
   166    44    43    1
   167    44    45    1
   168    43    37   am
   169    62    64    1
   170    83    84    2
   171    37    36    1
   172    37    38    2
   173    35    36    1
   174    45    46    2
