@<TRIPOS>MOLECULE
tmp/6eubA00.pdb
 185 178 0 0 0
SMALL
GASTEIGER

@<TRIPOS>ATOM
      1  N        -16.1280  -37.4120    0.5200 N.3    90  LEU90      -0.1245
      2  CA       -16.7800  -38.5720   -0.0730 C.3    90  LEU90       0.1561
      3  C        -17.2340  -39.5090    1.0370 C.2    90  LEU90       0.2260
      4  O        -16.4280  -39.9130    1.8800 O.2    90  LEU90      -0.2867
      5  CB       -15.8290  -39.2970   -1.0160 C.3    90  LEU90       0.0270
      6  CG       -16.3480  -40.4980   -1.7910 C.3    90  LEU90       0.0019
      7  CD1      -17.3950  -40.0900   -2.8180 C.3    90  LEU90       0.0001
      8  CD2      -15.1560  -41.1220   -2.4770 C.3    90  LEU90       0.0001
      9  N        -19.0940  -43.1590    2.0120 N.3    92  VAL92      -0.1245
     10  CA       -19.3230  -44.4790    1.4460 C.3    92  VAL92       0.1561
     11  C        -20.0700  -45.2930    2.4810 C.2    92  VAL92       0.2260
     12  O        -19.5710  -45.4930    3.5930 O.2    92  VAL92      -0.2867
     13  CB       -18.0120  -45.1680    1.0370 C.3    92  VAL92       0.0252
     14  CG1      -18.2630  -46.6390    0.7140 C.3    92  VAL92       0.0019
     15  CG2      -17.3850  -44.4260   -0.1600 C.3    92  VAL92       0.0019
     16  N        -14.0480  -39.8360    3.5050 N.3   106  PHE106     -0.1241
     17  CA       -12.7100  -39.4640    3.0750 C.3   106  PHE106      0.1605
     18  C        -12.8200  -38.1210    2.3950 C.2   106  PHE106      0.2264
     19  O        -13.7780  -37.8880    1.6510 O.2   106  PHE106     -0.2867
     20  CB       -12.0970  -40.4700    2.0720 C.3   106  PHE106      0.0534
     21  CG       -12.3890  -41.8950    2.3920 C.ar  106  PHE106     -0.0203
     22  CD1      -11.5580  -42.6110    3.2590 C.ar  106  PHE106     -0.0042
     23  CD2      -13.4990  -42.5200    1.8500 C.ar  106  PHE106     -0.0042
     24  CE1      -11.8280  -43.9350    3.5810 C.ar  106  PHE106     -0.0003
     25  CE2      -13.7850  -43.8310    2.1540 C.ar  106  PHE106     -0.0003
     26  CZ       -12.9460  -44.5490    3.0310 C.ar  106  PHE106     -0.0000
     27  N        -11.4210  -35.9490   -0.5830 N.3   108  VAL108     -0.1245
     28  CA       -10.7930  -36.2260   -1.8760 C.3   108  VAL108      0.1561
     29  C        -10.8020  -34.9700   -2.7440 C.2   108  VAL108      0.2260
     30  O        -11.4940  -33.9920   -2.4640 O.2   108  VAL108     -0.2867
     31  CB       -11.4990  -37.3560   -2.6480 C.3   108  VAL108      0.0252
     32  CG1      -11.6060  -38.6310   -1.8210 C.3   108  VAL108      0.0019
     33  CG2      -12.8780  -36.8730   -3.1630 C.3   108  VAL108      0.0019
     34  N         -9.1730  -39.7940   -8.7500 N.3   119  LEU119     -0.1245
     35  CA        -9.2720  -39.4090   -7.3550 C.3   119  LEU119      0.1561
     36  C         -7.8900  -39.0070   -6.8740 C.2   119  LEU119      0.2260
     37  O         -6.9440  -39.7970   -6.9850 O.2   119  LEU119     -0.2867
     38  CB        -9.7810  -40.5720   -6.5160 C.3   119  LEU119      0.0270
     39  CG       -11.2790  -40.8350   -6.4390 C.3   119  LEU119      0.0019
     40  CD1      -11.5080  -41.9150   -5.3910 C.3   119  LEU119      0.0001
     41  CD2      -12.0390  -39.5680   -6.0990 C.3   119  LEU119      0.0001
     42  N         -5.7280  -38.2460   -3.6830 N.3   121  LEU121     -0.1245
     43  CA        -5.6840  -38.5600   -2.2600 C.3   121  LEU121      0.1561
     44  C         -4.3890  -38.0670   -1.6270 C.2   121  LEU121      0.2260
     45  O         -3.2990  -38.4070   -2.1040 O.2   121  LEU121     -0.2867
     46  CB        -5.7880  -40.0700   -2.0580 C.3   121  LEU121      0.0270
     47  CG        -6.8910  -40.7110   -2.8950 C.3   121  LEU121      0.0019
     48  CD1       -6.6810  -42.2100   -3.0010 C.3   121  LEU121      0.0001
     49  CD2       -8.2600  -40.3670   -2.2940 C.3   121  LEU121      0.0001
     50  N         -4.9520  -41.6970    1.8710 N.3   126  ALA126     -0.1245
     51  CA        -4.5250  -42.9770    1.3040 C.3   126  ALA126      0.1562
     52  C         -4.1090  -43.9390    2.3950 C.2   126  ALA126      0.2260
     53  O         -4.3050  -45.1530    2.2590 O.2   126  ALA126     -0.2867
     54  CB        -3.3660  -42.7820    0.3200 C.3   126  ALA126      0.0290
     55  N         -7.1740  -45.5600    3.7000 N.3   129  LEU129     -0.1231
     56  CA        -7.6980  -46.6000    2.8350 C.3   129  LEU129      0.1693
     57  C         -6.8180  -47.8390    2.8150 C.2   129  LEU129      0.2593
     58  O         -7.1820  -48.8320    2.1810 O.2   129  LEU129     -0.2718
     59  CB        -7.8890  -46.0610    1.4260 C.3   129  LEU129      0.0284
     60  CG        -8.9970  -45.0170    1.2550 C.3   129  LEU129      0.0019
     61  CD1       -8.5690  -44.0280    0.1970 C.3   129  LEU129      0.0001
     62  CD2      -10.3260  -45.6700    0.8700 C.3   129  LEU129      0.0001
     63  N         -5.6890  -47.8230    3.5110 N.am  130  GLY130     -0.1942
     64  CA        -4.8980  -49.0210    3.6550 C.3   130  GLY130      0.2014
     65  C         -3.5900  -49.0050    2.9170 C.2   130  GLY130      0.2638
     66  O         -2.8830  -50.0170    2.9400 O.2   130  GLY130     -0.2714
     67  N         -3.2280  -47.8960    2.2760 N.am  131  ALA131     -0.1977
     68  CA        -1.9150  -47.7740    1.6470 C.3   131  ALA131      0.1597
     69  C         -0.8470  -47.5050    2.7090 C.2   131  ALA131      0.2287
     70  O         -0.8780  -46.4730    3.3870 O.2   131  ALA131     -0.2864
     71  CB        -1.9360  -46.6730    0.5890 C.3   131  ALA131      0.0319
     72  N         -1.4550  -39.5860   -3.7790 N.3   139  LEU139     -0.1245
     73  CA        -1.7450  -40.6440   -4.7220 C.3   139  LEU139      0.1561
     74  C         -2.8890  -40.1950   -5.6150 C.2   139  LEU139      0.2260
     75  O         -3.8840  -39.6640   -5.1260 O.2   139  LEU139     -0.2867
     76  CB        -2.1210  -41.9120   -3.9550 C.3   139  LEU139      0.0270
     77  CG        -2.1560  -43.2810   -4.6070 C.3   139  LEU139      0.0019
     78  CD1       -0.7360  -43.7470   -4.8810 C.3   139  LEU139      0.0001
     79  CD2       -2.8730  -44.2150   -3.6490 C.3   139  LEU139      0.0001
     80  N         -5.4920  -41.9210   -8.4820 N.3   141  VAL141     -0.1245
     81  CA        -5.9650  -43.1890   -9.0090 C.3   141  VAL141      0.1561
     82  C         -6.9730  -42.8710  -10.1000 C.2   141  VAL141      0.2260
     83  O         -8.0300  -42.2960   -9.8140 O.2   141  VAL141     -0.2867
     84  CB        -6.6110  -44.0690   -7.9320 C.3   141  VAL141      0.0252
     85  CG1       -6.9660  -45.4080   -8.5440 C.3   141  VAL141      0.0019
     86  CG2       -5.6710  -44.2100   -6.7270 C.3   141  VAL141      0.0019
     87  N        -14.4450  -48.5080  -11.8570 N.3   166  TRP166     -0.1227
     88  CA       -14.0020  -48.1870  -10.5110 C.3   166  TRP166      0.1737
     89  C        -12.6260  -47.5470  -10.5560 C.2   166  TRP166      0.2595
     90  O        -11.9010  -47.6250  -11.5550 O.2   166  TRP166     -0.2718
     91  CB       -13.9650  -49.4370   -9.6320 C.3   166  TRP166      0.0564
     92  CG       -13.9000  -49.1480   -8.1800 C.ar  166  TRP166      0.0003
     93  CD1      -12.8880  -49.4740   -7.3310 C.ar  166  TRP166      0.0946
     94  CD2      -14.9010  -48.4950   -7.3830 C.ar  166  TRP166      0.0152
     95  NE1      -13.1900  -49.0510   -6.0520 N.ar  166  TRP166     -0.2442
     96  CE2      -14.4220  -48.4550   -6.0610 C.ar  166  TRP166      0.0810
     97  CE3      -16.1520  -47.9400   -7.6620 C.ar  166  TRP166      0.0012
     98  CZ2      -15.1510  -47.8910   -5.0150 C.ar  166  TRP166      0.0191
     99  CZ3      -16.8740  -47.3750   -6.6240 C.ar  166  TRP166      0.0001
    100  CH2      -16.3680  -47.3560   -5.3190 C.ar  166  TRP166      0.0015
    101  N        -12.2710  -46.9290   -9.4320 N.am  167  TRP167     -0.1976
    102  CA       -10.9110  -46.4670   -9.1700 C.3   167  TRP167      0.1640
    103  C        -10.1180  -47.6410   -8.6170 C.2   167  TRP167      0.2290
    104  O         -9.9540  -47.8100   -7.4050 O.2   167  TRP167     -0.2864
    105  CB       -10.9100  -45.3150   -8.1800 C.3   167  TRP167      0.0576
    106  CG       -11.5880  -44.0910   -8.6590 C.ar  167  TRP167      0.0006
    107  CD1      -11.0520  -43.0980   -9.4200 C.ar  167  TRP167      0.0946
    108  CD2      -12.9250  -43.6990   -8.3600 C.ar  167  TRP167      0.0152
    109  NE1      -11.9880  -42.1180   -9.6340 N.ar  167  TRP167     -0.2442
    110  CE2      -13.1460  -42.4640   -8.9890 C.ar  167  TRP167      0.0810
    111  CE3      -13.9540  -44.2730   -7.6120 C.ar  167  TRP167      0.0012
    112  CZ2      -14.3580  -41.7880   -8.8980 C.ar  167  TRP167      0.0191
    113  CZ3      -15.1610  -43.6190   -7.5540 C.ar  167  TRP167      0.0001
    114  CH2      -15.3550  -42.3850   -8.1830 C.ar  167  TRP167      0.0015
    115  N         -7.1220  -48.7130   -7.7240 N.3   169  GLY169     -0.1210
    116  CA        -5.7420  -48.5540   -7.2790 C.3   169  GLY169      0.1956
    117  C         -4.9940  -49.8760   -7.2650 C.2   169  GLY169      0.2612
    118  O         -3.8740  -49.9860   -7.7720 O.2   169  GLY169     -0.2717
    119  N         -5.5880  -50.8860   -6.6510 N.am  170  THR170     -0.1952
    120  CA        -5.2400  -52.2730   -6.8710 C.3   170  THR170      0.1897
    121  C         -6.4700  -52.9690   -7.4120 C.2   170  THR170      0.2313
    122  O         -7.5340  -52.3600   -7.5930 O.2   170  THR170     -0.2863
    123  CB        -4.7870  -52.9710   -5.5840 C.3   170  THR170      0.1794
    124  OG1       -5.9310  -53.1870   -4.7330 O.3   170  THR170     -0.2208
    125  CG2       -3.7110  -52.1400   -4.8720 C.3   170  THR170      0.0378
    126  N         -7.7520  -55.5100   -5.7210 N.3   172  SER172     -0.1202
    127  CA        -8.3630  -56.2330   -4.6120 C.3   172  SER172      0.2020
    128  C         -8.6820  -55.3330   -3.4190 C.2   172  SER172      0.2619
    129  O         -8.8600  -55.8410   -2.3070 O.2   172  SER172     -0.2717
    130  CB        -7.4760  -57.4090   -4.1640 C.3   172  SER172      0.2103
    131  OG        -6.1010  -57.1020   -4.2670 O.3   172  SER172     -0.2182
    132  N         -8.7740  -54.0170   -3.6150 N.am  173  HIS173     -0.1961
    133  CA        -9.1590  -53.1520   -2.5120 C.3   173  HIS173      0.1787
    134  C        -10.6710  -53.0210   -2.4010 C.2   173  HIS173      0.2620
    135  O        -11.2450  -53.2530   -1.3270 O.2   173  HIS173     -0.2715
    136  CB        -8.4930  -51.7690   -2.6210 C.3   173  HIS173      0.0785
    137  CG        -9.1000  -50.7570   -1.7040 C.ar  173  HIS173      0.0821
    138  ND1       -8.5010  -50.3870   -0.5110 N.ar  173  HIS173     -0.2267
    139  CD2      -10.1780  -49.9480   -1.8480 C.ar  173  HIS173      0.1154
    140  CE1       -9.2340  -49.4550    0.0760 C.ar  173  HIS173      0.1986
    141  NE2      -10.2520  -49.1620   -0.7220 N.ar  173  HIS173     -0.2212
    142  N        -11.3180  -52.5960   -3.4800 N.am  174  SER174     -0.1950
    143  CA       -12.7660  -52.4850   -3.4670 C.3   174  SER174      0.1924
    144  C        -13.2930  -52.4330   -4.8950 C.2   174  SER174      0.2314
    145  O        -12.5330  -52.3320   -5.8620 O.2   174  SER174     -0.2863
    146  CB       -13.2150  -51.2540   -2.6910 C.3   174  SER174      0.2116
    147  OG       -12.5600  -50.0950   -3.1780 O.3   174  SER174     -0.2180
    148  N        -15.6640  -54.5420   -0.5200 N.3   196  TRP196     -0.1227
    149  CA       -14.8370  -53.5410    0.1430 C.3   196  TRP196      0.1737
    150  C        -13.9900  -54.3280    1.1340 C.2   196  TRP196      0.2595
    151  O        -14.4920  -54.7490    2.1800 O.2   196  TRP196     -0.2718
    152  CB       -15.6930  -52.4850    0.8230 C.3   196  TRP196      0.0564
    153  CG       -14.8920  -51.3370    1.3510 C.ar  196  TRP196      0.0003
    154  CD1      -14.1390  -51.3220    2.4890 C.ar  196  TRP196      0.0946
    155  CD2      -14.7360  -50.0440    0.7500 C.ar  196  TRP196      0.0152
    156  NE1      -13.5330  -50.0990    2.6440 N.ar  196  TRP196     -0.2442
    157  CE2      -13.8820  -49.2920    1.5950 C.ar  196  TRP196      0.0810
    158  CE3      -15.2310  -49.4480   -0.4220 C.ar  196  TRP196      0.0012
    159  CZ2      -13.5180  -47.9760    1.3160 C.ar  196  TRP196      0.0191
    160  CZ3      -14.8770  -48.1350   -0.6990 C.ar  196  TRP196      0.0001
    161  CH2      -14.0210  -47.4110    0.1670 C.ar  196  TRP196      0.0015
    162  N        -12.7220  -54.5530    0.7830 N.am  197  LYS197     -0.1966
    163  CA       -11.9730  -55.6320    1.4200 C.3   197  LYS197      0.1728
    164  C        -11.8990  -55.4720    2.9310 C.2   197  LYS197      0.2616
    165  O        -12.0860  -56.4450    3.6770 O.2   197  LYS197     -0.2715
    166  CB       -10.5640  -55.7330    0.8550 C.3   197  LYS197      0.0311
    167  CG        -9.7650  -56.8110    1.5910 C.3   197  LYS197      0.0038
    168  CD        -8.5640  -57.2880    0.8070 C.3   197  LYS197      0.0206
    169  CE        -7.3590  -56.4240    1.0930 C.3   197  LYS197      0.1093
    170  NZ        -6.7480  -55.9990   -0.1900 N.3   197  LYS197     -0.1314
    171  N        -11.6150  -54.2660    3.4070 N.am  198  THR198     -0.1951
    172  CA       -11.3210  -54.1170    4.8220 C.3   198  THR198      0.1897
    173  C        -12.5540  -54.1850    5.7090 C.2   198  THR198      0.2313
    174  O        -12.4080  -54.1580    6.9140 O.2   198  THR198     -0.2863
    175  CB       -10.5940  -52.8070    5.0800 C.3   198  THR198      0.1794
    176  OG1      -11.3050  -51.7550    4.4290 O.3   198  THR198     -0.2208
    177  CG2       -9.1960  -52.8830    4.5290 C.3   198  THR198      0.0378
    178  N        -22.8160  -44.0670   -2.3330 N.3   211  MET211     -0.1245
    179  CA       -21.7400  -43.1090   -2.2510 C.3   211  MET211      0.1570
    180  C        -22.3580  -41.7330   -2.3820 C.2   211  MET211      0.2261
    181  O        -23.3130  -41.5470   -3.1460 O.2   211  MET211     -0.2867
    182  CB       -20.6990  -43.3670   -3.3250 C.3   211  MET211      0.0387
    183  CG       -20.3360  -44.8330   -3.4530 C.3   211  MET211      0.0595
    184  SD       -19.1520  -45.1080   -4.8010 S.3   211  MET211     -0.1393
    185  CE       -17.7210  -44.2160   -4.2210 C.3   211  MET211      0.0692
@<TRIPOS>BOND
     1    87    88    1
     2    90    89    2
     3    89    88    1
     4    89   101   am
     5    88    91    1
     6    82    83    2
     7    82    81    1
     8   109   107   ar
     9   109   110   ar
    10    91    92    1
    11   101   102    1
    12   107   106   ar
    13   102   103    1
    14   102   105    1
    15    81    80    1
    16    81    84    1
    17   110   112   ar
    18   110   108   ar
    19   112   114   ar
    20    34    35    1
    21   106   108   ar
    22   106   105    1
    23   103   104    2
    24    85    84    1
    25   108   111   ar
    26   114   113   ar
    27    92    94   ar
    28    92    93   ar
    29    84    86    1
    30   118   117    2
    31   115   116    1
    32    97    94   ar
    33    97    99   ar
    34   111   113   ar
    35   122   121    2
    36   121   120    1
    37    94    96   ar
    38    35    36    1
    39    35    38    1
    40    93    95   ar
    41   116   117    1
    42   117   119   am
    43    37    36    2
    44   120   119    1
    45   120   123    1
    46    99   100   ar
    47    38    39    1
    48    39    41    1
    49    39    40    1
    50    96    95   ar
    51    96    98   ar
    52   145   144    2
    53   126   127    1
    54    74    75    2
    55    74    73    1
    56   123   125    1
    57   123   124    1
    58   100    98   ar
    59   144   143    1
    60    78    77    1
    61   184   185    1
    62   184   183    1
    63    73    76    1
    64    73    72    1
    65   127   130    1
    66   127   128    1
    67    77    76    1
    68    77    79    1
    69   131   130    1
    70    42    43    1
    71   132   128   am
    72   132   133    1
    73   142   143    1
    74   142   134   am
    75   143   146    1
    76   183   182    1
    77   128   129    2
    78   182   179    1
    79   147   146    1
    80    33    31    1
    81   181   180    2
    82    48    47    1
    83    47    49    1
    84    47    46    1
    85     7     6    1
    86    29    30    2
    87    29    28    1
    88    31    28    1
    89    31    32    1
    90   136   133    1
    91   136   137    1
    92   133   134    1
    93     8     6    1
    94   134   135    2
    95   180   179    1
    96   178   179    1
    97    43    46    1
    98    43    44    1
    99    45    44    2
   100    28    27    1
   101   139   137   ar
   102   139   141   ar
   103     6     5    1
   104   137   138   ar
   105     5     2    1
   106   141   140   ar
   107   160   158   ar
   108   160   161   ar
   109   148   149    1
   110   138   140   ar
   111   158   155   ar
   112   170   169    1
   113    15    13    1
   114     2     1    1
   115     2     3    1
   116   149   152    1
   117   149   150    1
   118   161   159   ar
   119    61    60    1
   120    54    51    1
   121    71    68    1
   122    14    13    1
   123   155   153   ar
   124   155   157   ar
   125   162   150   am
   126   162   163    1
   127   168   169    1
   128   168   167    1
   129   152   153    1
   130   166   163    1
   131   166   167    1
   132    62    60    1
   133    13    10    1
   134     3     4    2
   135   150   151    2
   136    60    59    1
   137    51    50    1
   138    51    52    1
   139   159   157   ar
   140   153   154   ar
   141   163   164    1
   142    59    56    1
   143    10     9    1
   144    10    11    1
   145   157   156   ar
   146    68    67    1
   147    68    69    1
   148    19    18    2
   149    23    25   ar
   150    23    21   ar
   151    20    21    1
   152    20    17    1
   153    25    26   ar
   154    58    57    2
   155    53    52    2
   156    67    65   am
   157    21    22   ar
   158    18    17    1
   159    11    12    2
   160   154   156   ar
   161    69    70    2
   162    57    56    1
   163    57    63   am
   164    56    55    1
   165    65    66    2
   166    65    64    1
   167   164   171   am
   168   164   165    2
   169    26    24   ar
   170    17    16    1
   171    22    24   ar
   172   171   172    1
   173    63    64    1
   174   176   175    1
   175   177   175    1
   176   172   175    1
   177   172   173    1
   178   173   174    2
