@<TRIPOS>MOLECULE
tmp/6eucA01.pdb
 132 129 0 0 0
SMALL
GASTEIGER

@<TRIPOS>ATOM
      1  N         60.5020  152.5270  177.5080 N.3    66  GLN66      -0.1231
      2  CA        60.1890  153.8560  178.0180 C.3    66  GLN66       0.1698
      3  C         59.9600  153.8250  179.5300 C.2    66  GLN66       0.2592
      4  O         59.6170  152.7880  180.1160 O.2    66  GLN66      -0.2718
      5  CB        58.9570  154.4280  177.3160 C.3    66  GLN66       0.0381
      6  CG        57.7070  153.5600  177.4370 C.3    66  GLN66       0.0905
      7  CD        56.6270  153.9890  176.4580 C.2    66  GLN66       0.2608
      8  OE1       55.7640  154.8280  176.7790 O.2    66  GLN66      -0.2717
      9  NE2       56.6810  153.4330  175.2360 N.am   66  GLN66      -0.0878
     10  N         60.1560  154.9910  180.1500 N.am   67  TYR67      -0.1976
     11  CA        59.6860  155.2000  181.5110 C.3    67  TYR67       0.1639
     12  C         58.1760  155.0110  181.5560 C.2    67  TYR67       0.2290
     13  O         57.4530  155.4260  180.6420 O.2    67  TYR67      -0.2864
     14  CB        60.0570  156.6000  182.0080 C.3    67  TYR67       0.0560
     15  CG        59.6050  156.8630  183.4360 C.ar   67  TYR67      -0.0198
     16  CD1       60.4090  156.5110  184.5160 C.ar   67  TYR67      -0.0009
     17  CD2       58.3690  157.4560  183.7010 C.ar   67  TYR67      -0.0009
     18  CE1       59.9900  156.7420  185.8390 C.ar   67  TYR67       0.0417
     19  CE2       57.9430  157.6930  185.0160 C.ar   67  TYR67       0.0417
     20  CZ        58.7600  157.3380  186.0740 C.ar   67  TYR67       0.1957
     21  OH        58.3360  157.5620  187.3660 O.3    67  TYR67      -0.2866
     22  N         54.5800  155.4320  183.7140 N.3    69  ASP69      -0.1239
     23  CA        53.9230  156.2480  184.7280 C.3    69  ASP69       0.1674
     24  C         53.2680  155.3480  185.7680 C.2    69  ASP69       0.2266
     25  O         52.3350  154.6030  185.4550 O.2    69  ASP69      -0.2867
     26  CB        52.8880  157.1480  184.0510 C.3    69  ASP69       0.1410
     27  CG        52.1540  158.0580  185.0190 C.2    69  ASP69       0.3668
     28  OD1       52.3310  157.9470  186.2360 O.co2  69  ASP69      -0.2456
     29  OD2       51.3790  158.9060  184.5450 O.co2  69  ASP69      -0.2456
     30  N         45.8530  158.1360  183.9410 N.3    78  SER78      -0.1217
     31  CA        47.2770  158.0670  183.6370 C.3    78  SER78       0.1889
     32  C         47.6590  156.7880  182.8970 C.2    78  SER78       0.2288
     33  O         48.5170  156.8270  182.0020 O.2    78  SER78      -0.2866
     34  CB        48.0980  158.1930  184.9260 C.3    78  SER78       0.2089
     35  OG        47.5980  157.3510  185.9600 O.3    78  SER78      -0.2183
     36  N         47.6930  156.0630  179.0420 N.3    81  TRP81      -0.1241
     37  CA        48.8270  156.5440  178.2690 C.3    81  TRP81       0.1605
     38  C         50.0330  155.6210  178.3350 C.2    81  TRP81       0.2264
     39  O         50.9350  155.7470  177.4970 O.2    81  TRP81      -0.2867
     40  CB        49.2330  157.9410  178.7440 C.3    81  TRP81       0.0550
     41  CG        48.1150  158.9300  178.6810 C.ar   81  TRP81       0.0003
     42  CD1       47.3350  159.3490  179.7160 C.ar   81  TRP81       0.0946
     43  CD2       47.6410  159.6170  177.5190 C.ar   81  TRP81       0.0152
     44  NE1       46.4100  160.2630  179.2770 N.ar   81  TRP81      -0.2442
     45  CE2       46.5770  160.4470  177.9290 C.ar   81  TRP81       0.0810
     46  CE3       48.0070  159.6050  176.1670 C.ar   81  TRP81       0.0012
     47  CZ2       45.8780  161.2700  177.0380 C.ar   81  TRP81       0.0191
     48  CZ3       47.3110  160.4230  175.2850 C.ar   81  TRP81       0.0001
     49  CH2       46.2570  161.2390  175.7240 C.ar   81  TRP81       0.0015
     50  N         52.7780  161.4250  170.7350 N.3   114  GLY114     -0.1210
     51  CA        53.4860  162.2900  171.6250 C.3   114  GLY114      0.1956
     52  C         54.0150  161.5460  172.8210 C.2   114  GLY114      0.2612
     53  O         53.9990  160.3560  172.8920 O.2   114  GLY114     -0.2717
     54  N         54.4790  162.3110  173.7670 N.am  115  GLY115     -0.1956
     55  CA        55.0450  161.8330  174.9910 C.3   115  GLY115      0.1869
     56  C         56.3940  162.3760  175.3540 C.2   115  GLY115      0.2309
     57  O         57.1750  161.6730  175.9120 O.2   115  GLY115     -0.2863
     58  N         60.1900  161.0230  175.4740 N.3   118  TYR118     -0.1227
     59  CA        60.6490  160.0010  176.4080 C.3   118  TYR118      0.1736
     60  C         59.6900  158.8300  176.5280 C.2   118  TYR118      0.2596
     61  O         60.0230  157.8510  177.2050 O.2   118  TYR118     -0.2718
     62  CB        60.9020  160.5910  177.8090 C.3   118  TYR118      0.0548
     63  CG        59.6520  160.9660  178.5860 C.ar  118  TYR118     -0.0200
     64  CD1       58.9910  160.0310  179.3800 C.ar  118  TYR118     -0.0009
     65  CD2       59.1290  162.2530  178.5130 C.ar  118  TYR118     -0.0009
     66  CE1       57.8480  160.3640  180.0840 C.ar  118  TYR118      0.0417
     67  CE2       57.9800  162.5990  179.2080 C.ar  118  TYR118      0.0417
     68  CZ        57.3510  161.6550  180.0050 C.ar  118  TYR118      0.1957
     69  OH        56.2060  161.9980  180.6990 O.3   118  TYR118     -0.2866
     70  N         58.5180  158.9000  175.9020 N.am  119  SER119     -0.1938
     71  CA        57.5060  157.8650  176.0650 C.3   119  SER119      0.2055
     72  C         56.5690  157.9130  174.8730 C.2   119  SER119      0.2643
     73  O         56.6370  158.8220  174.0460 O.2   119  SER119     -0.2714
     74  CB        56.7160  158.0540  177.3610 C.3   119  SER119      0.2130
     75  OG        56.0940  159.3300  177.3750 O.3   119  SER119     -0.2179
     76  N         55.6710  156.9320  174.8150 N.am  120  GLY120     -0.1954
     77  CA        54.6100  156.9100  173.8310 C.3   120  GLY120      0.1869
     78  C         54.4560  155.5630  173.1540 C.2   120  GLY120      0.2309
     79  O         55.4060  154.7800  173.0900 O.2   120  GLY120     -0.2863
     80  N         47.8690  152.5810  171.8510 N.3   124  LEU124     -0.1245
     81  CA        46.9310  153.0310  172.8690 C.3   124  LEU124      0.1561
     82  C         45.4980  153.0110  172.3470 C.2   124  LEU124      0.2260
     83  O         45.2340  153.3020  171.1720 O.2   124  LEU124     -0.2867
     84  CB        47.2840  154.4480  173.3230 C.3   124  LEU124      0.0270
     85  CG        48.7050  154.6710  173.8410 C.3   124  LEU124      0.0019
     86  CD1       48.8780  156.1170  174.3180 C.3   124  LEU124      0.0001
     87  CD2       49.0300  153.6790  174.9540 C.3   124  LEU124      0.0001
     88  N         44.3840  155.9120  170.3770 N.3   127  TYR127     -0.1241
     89  CA        44.9270  156.0690  169.0280 C.3   127  TYR127      0.1605
     90  C         44.3830  155.0300  168.0560 C.2   127  TYR127      0.2264
     91  O         44.9340  154.8730  166.9570 O.2   127  TYR127     -0.2867
     92  CB        46.4570  155.9730  169.0250 C.3   127  TYR127      0.0534
     93  CG        47.2040  156.9350  169.9180 C.ar  127  TYR127     -0.0201
     94  CD1       46.6570  158.1590  170.2980 C.ar  127  TYR127     -0.0009
     95  CD2       48.4800  156.6150  170.3750 C.ar  127  TYR127     -0.0009
     96  CE1       47.3690  159.0300  171.1160 C.ar  127  TYR127      0.0417
     97  CE2       49.1930  157.4680  171.1760 C.ar  127  TYR127      0.0417
     98  CZ        48.6400  158.6720  171.5560 C.ar  127  TYR127      0.1957
     99  OH        49.3700  159.5050  172.3870 O.3   127  TYR127     -0.2866
    100  N         48.6380  169.2550  183.5220 N.3   327  PHE327     -0.1241
    101  CA        49.2310  167.9200  183.6530 C.3   327  PHE327      0.1605
    102  C         50.6010  167.9860  184.3210 C.2   327  PHE327      0.2264
    103  O         50.9070  167.2200  185.2490 O.2   327  PHE327     -0.2867
    104  CB        49.3610  167.2660  182.2720 C.3   327  PHE327      0.0534
    105  CG        48.8400  165.8510  182.2000 C.ar  327  PHE327     -0.0203
    106  CD1       48.9790  164.9810  183.2700 C.ar  327  PHE327     -0.0042
    107  CD2       48.2170  165.3910  181.0430 C.ar  327  PHE327     -0.0042
    108  CE1       48.4880  163.6790  183.2080 C.ar  327  PHE327     -0.0003
    109  CE2       47.7270  164.0900  180.9570 C.ar  327  PHE327     -0.0003
    110  CZ        47.8590  163.2300  182.0490 C.ar  327  PHE327     -0.0000
    111  N         52.1170  166.7290  188.2090 N.3   331  TYR331     -0.1241
    112  CA        53.1830  165.7500  188.4120 C.3   331  TYR331      0.1605
    113  C         54.4300  166.3330  189.0570 C.2   331  TYR331      0.2264
    114  O         55.2130  165.5730  189.6330 O.2   331  TYR331     -0.2867
    115  CB        53.5780  165.0760  187.0840 C.3   331  TYR331      0.0534
    116  CG        52.6800  163.9110  186.7420 C.ar  331  TYR331     -0.0201
    117  CD1       51.3350  164.1250  186.4680 C.ar  331  TYR331     -0.0009
    118  CD2       53.1590  162.6000  186.7120 C.ar  331  TYR331     -0.0009
    119  CE1       50.4860  163.0860  186.1780 C.ar  331  TYR331      0.0417
    120  CE2       52.3010  161.5340  186.4100 C.ar  331  TYR331      0.0417
    121  CZ        50.9610  161.7980  186.1470 C.ar  331  TYR331      0.1957
    122  OH        50.0680  160.7970  185.8440 O.3   331  TYR331     -0.2866
    123  N         46.0800  168.8980  178.3400 N.3   437  HIS437     -0.1241
    124  CA        47.0390  168.3800  177.3730 C.3   437  HIS437      0.1621
    125  C         46.7270  166.9440  176.9800 C.2   437  HIS437      0.2264
    126  O         46.7610  166.0390  177.8170 O.2   437  HIS437     -0.2867
    127  CB        48.4420  168.4490  177.9740 C.3   437  HIS437      0.0745
    128  CG        49.5420  168.4340  176.9590 C.ar  437  HIS437      0.0817
    129  ND1       49.6490  169.3850  175.9640 N.ar  437  HIS437     -0.2268
    130  CD2       50.6060  167.6070  176.8070 C.ar  437  HIS437      0.1154
    131  CE1       50.7310  169.1420  175.2420 C.ar  437  HIS437      0.1986
    132  NE2       51.3280  168.0680  175.7320 N.ar  437  HIS437     -0.2212
@<TRIPOS>BOND
     1    91    90    2
     2    90    89    1
     3    92    89    1
     4    92    93    1
     5    89    88    1
     6    93    94   ar
     7    93    95   ar
     8    94    96   ar
     9    95    97   ar
    10    50    51    1
    11    96    98   ar
    12    83    82    2
    13    97    98   ar
    14    98    99    1
    15    51    52    1
    16    80    81    1
    17    82    81    1
    18    52    53    2
    19    52    54   am
    20    81    84    1
    21    79    78    2
    22    78    77    1
    23    84    85    1
    24    54    55    1
    25    77    76    1
    26    85    86    1
    27    85    87    1
    28    73    72    2
    29    76    72   am
    30    72    71    1
    31    55    56    1
    32     9     7   am
    33   131   132   ar
    34   131   129   ar
    35    48    49   ar
    36    48    46   ar
    37    56    57    2
    38    58    59    1
    39    49    47   ar
    40   132   130   ar
    41    70    71    1
    42    70    60   am
    43   129   128   ar
    44    71    74    1
    45    46    43   ar
    46    59    60    1
    47    59    62    1
    48     7     8    2
    49     7     6    1
    50    60    61    2
    51   130   128   ar
    52   128   127    1
    53   125   124    1
    54   125   126    2
    55    47    45   ar
    56     5     6    1
    57     5     2    1
    58    74    75    1
    59   124   127    1
    60   124   123    1
    61    39    38    2
    62     1     2    1
    63    43    45   ar
    64    43    41   ar
    65    62    63    1
    66    45    44   ar
    67     2     3    1
    68    37    38    1
    69    37    40    1
    70    37    36    1
    71    65    63   ar
    72    65    67   ar
    73    63    64   ar
    74    41    40    1
    75    41    42   ar
    76    67    68   ar
    77    44    42   ar
    78    64    66   ar
    79     3     4    2
    80     3    10   am
    81    68    66   ar
    82    68    69    1
    83    10    11    1
    84    13    12    2
    85   109   107   ar
    86   109   110   ar
    87   107   105   ar
    88    11    12    1
    89    11    14    1
    90    33    32    2
    91    14    15    1
    92   110   108   ar
    93   105   104    1
    94   105   106   ar
    95   104   101    1
    96    32    31    1
    97   108   106   ar
    98    15    17   ar
    99    15    16   ar
   100   100   101    1
   101    31    30    1
   102    31    34    1
   103   101   102    1
   104    17    19   ar
   105    22    23    1
   106    26    23    1
   107    26    27    1
   108   102   103    2
   109    16    18   ar
   110    29    27   ar
   111    23    24    1
   112    34    35    1
   113    19    20   ar
   114    27    28   ar
   115    25    24    2
   116    18    20   ar
   117   122   121    1
   118    20    21    1
   119   121   119   ar
   120   121   120   ar
   121   119   117   ar
   122   120   118   ar
   123   117   116   ar
   124   118   116   ar
   125   116   115    1
   126   115   112    1
   127   111   112    1
   128   112   113    1
   129   113   114    2
