@<TRIPOS>MOLECULE
tmp/6eucA00.pdb
 137 137 0 0 0
SMALL
GASTEIGER

@<TRIPOS>ATOM
      1  N         60.1560  154.9910  180.1500 N.3    67  TYR67      -0.1241
      2  CA        59.6860  155.2000  181.5110 C.3    67  TYR67       0.1605
      3  C         58.1760  155.0110  181.5560 C.2    67  TYR67       0.2264
      4  O         57.4530  155.4260  180.6420 O.2    67  TYR67      -0.2867
      5  CB        60.0570  156.6000  182.0080 C.3    67  TYR67       0.0534
      6  CG        59.6050  156.8630  183.4360 C.ar   67  TYR67      -0.0201
      7  CD1       60.4090  156.5110  184.5160 C.ar   67  TYR67      -0.0009
      8  CD2       58.3690  157.4560  183.7010 C.ar   67  TYR67      -0.0009
      9  CE1       59.9900  156.7420  185.8390 C.ar   67  TYR67       0.0417
     10  CE2       57.9430  157.6930  185.0160 C.ar   67  TYR67       0.0417
     11  CZ        58.7600  157.3380  186.0740 C.ar   67  TYR67       0.1957
     12  OH        58.3360  157.5620  187.3660 O.3    67  TYR67      -0.2866
     13  N         52.7780  161.4250  170.7350 N.3   114  GLY114     -0.1210
     14  CA        53.4860  162.2900  171.6250 C.3   114  GLY114      0.1956
     15  C         54.0150  161.5460  172.8210 C.2   114  GLY114      0.2612
     16  O         53.9990  160.3560  172.8920 O.2   114  GLY114     -0.2717
     17  N         54.4790  162.3110  173.7670 N.am  115  GLY115     -0.1942
     18  CA        55.0450  161.8330  174.9910 C.3   115  GLY115      0.2014
     19  C         56.3940  162.3760  175.3540 C.2   115  GLY115      0.2639
     20  O         57.1750  161.6730  175.9120 O.2   115  GLY115     -0.2714
     21  N         56.6420  163.6490  175.0670 N.am  116  GLY116     -0.1954
     22  CA        57.8800  164.3150  175.4600 C.3   116  GLY116      0.1869
     23  C         59.1550  163.6850  174.9340 C.2   116  GLY116      0.2309
     24  O         60.2300  163.9160  175.4930 O.2   116  GLY116     -0.2863
     25  N         60.1900  161.0230  175.4740 N.3   118  TYR118     -0.1227
     26  CA        60.6490  160.0010  176.4080 C.3   118  TYR118      0.1736
     27  C         59.6900  158.8300  176.5280 C.2   118  TYR118      0.2596
     28  O         60.0230  157.8510  177.2050 O.2   118  TYR118     -0.2718
     29  CB        60.9020  160.5910  177.8090 C.3   118  TYR118      0.0548
     30  CG        59.6520  160.9660  178.5860 C.ar  118  TYR118     -0.0200
     31  CD1       58.9910  160.0310  179.3800 C.ar  118  TYR118     -0.0009
     32  CD2       59.1290  162.2530  178.5130 C.ar  118  TYR118     -0.0009
     33  CE1       57.8480  160.3640  180.0840 C.ar  118  TYR118      0.0417
     34  CE2       57.9800  162.5990  179.2080 C.ar  118  TYR118      0.0417
     35  CZ        57.3510  161.6550  180.0050 C.ar  118  TYR118      0.1957
     36  OH        56.2060  161.9980  180.6990 O.3   118  TYR118     -0.2866
     37  N         58.5180  158.9000  175.9020 N.am  119  SER119     -0.1952
     38  CA        57.5060  157.8650  176.0650 C.3   119  SER119      0.1924
     39  C         56.5690  157.9130  174.8730 C.2   119  SER119      0.2314
     40  O         56.6370  158.8220  174.0460 O.2   119  SER119     -0.2863
     41  CB        56.7160  158.0540  177.3610 C.3   119  SER119      0.2116
     42  OG        56.0940  159.3300  177.3750 O.3   119  SER119     -0.2180
     43  N         50.4120  164.8550  168.1710 N.3   196  GLU196     -0.1231
     44  CA        50.1540  165.7000  169.3000 C.3   196  GLU196      0.1699
     45  C         51.3650  165.8030  170.1870 C.2   196  GLU196      0.2592
     46  O         52.0600  164.8750  170.3450 O.2   196  GLU196     -0.2718
     47  CB        48.9660  165.1630  170.0810 C.3   196  GLU196      0.0402
     48  CG        48.5210  166.0490  171.2080 C.3   196  GLU196      0.1161
     49  CD        49.1140  165.6820  172.5430 C.2   196  GLU196      0.3649
     50  OE1       49.6040  164.6000  172.7090 O.co2 196  GLU196     -0.2457
     51  OE2       49.0870  166.4950  173.4400 O.co2 196  GLU196     -0.2457
     52  N         51.5900  166.9700  170.7460 N.am  197  SER197     -0.1952
     53  CA        52.6880  167.2060  171.6430 C.3   197  SER197      0.1924
     54  C         54.0290  166.9450  170.9600 C.2   197  SER197      0.2314
     55  O         54.3230  167.5500  170.0040 O.2   197  SER197     -0.2863
     56  CB        52.4970  166.3980  172.9130 C.3   197  SER197      0.2116
     57  OG        53.0450  167.0180  174.0230 O.3   197  SER197     -0.2180
     58  N         66.1600  160.4270  184.1700 N.3   276  TRP276     -0.1241
     59  CA        65.7600  161.7510  184.6450 C.3   276  TRP276      0.1605
     60  C         66.8680  162.4850  185.3830 C.2   276  TRP276      0.2264
     61  O         66.7340  163.6930  185.6000 O.2   276  TRP276     -0.2867
     62  CB        64.5210  161.6470  185.5410 C.3   276  TRP276      0.0550
     63  CG        63.3410  161.1360  184.7860 C.ar  276  TRP276      0.0003
     64  CD1       62.8970  159.8500  184.7490 C.ar  276  TRP276      0.0946
     65  CD2       62.4820  161.8840  183.9160 C.ar  276  TRP276      0.0152
     66  NE1       61.8030  159.7500  183.9330 N.ar  276  TRP276     -0.2442
     67  CE2       61.5280  160.9830  183.4020 C.ar  276  TRP276      0.0810
     68  CE3       62.4280  163.2240  183.5190 C.ar  276  TRP276      0.0012
     69  CZ2       60.5220  161.3770  182.5030 C.ar  276  TRP276      0.0191
     70  CZ3       61.4260  163.6210  182.6310 C.ar  276  TRP276      0.0001
     71  CH2       60.4840  162.6960  182.1330 C.ar  276  TRP276      0.0015
     72  N         58.2690  170.1690  182.5690 N.3   285  PHE285     -0.1241
     73  CA        58.0970  170.2510  181.1120 C.3   285  PHE285      0.1605
     74  C         59.4610  170.3490  180.4290 C.2   285  PHE285      0.2264
     75  O         59.6970  171.1970  179.5650 O.2   285  PHE285     -0.2867
     76  CB        57.1830  171.4190  180.7240 C.3   285  PHE285      0.0534
     77  CG        56.2730  171.1270  179.5610 C.ar  285  PHE285     -0.0203
     78  CD1       56.7350  170.4240  178.4460 C.ar  285  PHE285     -0.0042
     79  CD2       54.9520  171.5430  179.5820 C.ar  285  PHE285     -0.0042
     80  CE1       55.9040  170.1540  177.3800 C.ar  285  PHE285     -0.0003
     81  CE2       54.1200  171.2810  178.5080 C.ar  285  PHE285     -0.0003
     82  CZ        54.5950  170.5840  177.4050 C.ar  285  PHE285     -0.0000
     83  N         62.5620  167.3260  179.2530 N.3   287  PHE287     -0.1241
     84  CA        62.7820  165.9010  179.0680 C.3   287  PHE287      0.1605
     85  C         64.2430  165.6790  178.7070 C.2   287  PHE287      0.2264
     86  O         64.9200  166.5790  178.2070 O.2   287  PHE287     -0.2867
     87  CB        61.8000  165.3520  178.0110 C.3   287  PHE287      0.0534
     88  CG        60.4040  165.9120  178.1630 C.ar  287  PHE287     -0.0203
     89  CD1       59.6470  165.6220  179.2910 C.ar  287  PHE287     -0.0042
     90  CD2       59.8880  166.7880  177.2410 C.ar  287  PHE287     -0.0042
     91  CE1       58.3780  166.1670  179.4640 C.ar  287  PHE287     -0.0003
     92  CE2       58.6240  167.3250  177.4040 C.ar  287  PHE287     -0.0003
     93  CZ        57.8700  167.0160  178.5160 C.ar  287  PHE287     -0.0000
     94  N         48.6380  169.2550  183.5220 N.3   327  PHE327     -0.1227
     95  CA        49.2310  167.9200  183.6530 C.3   327  PHE327      0.1736
     96  C         50.6010  167.9860  184.3210 C.2   327  PHE327      0.2595
     97  O         50.9070  167.2200  185.2490 O.2   327  PHE327     -0.2718
     98  CB        49.3610  167.2660  182.2720 C.3   327  PHE327      0.0547
     99  CG        48.8400  165.8510  182.2000 C.ar  327  PHE327     -0.0202
    100  CD1       48.9790  164.9810  183.2700 C.ar  327  PHE327     -0.0042
    101  CD2       48.2170  165.3910  181.0430 C.ar  327  PHE327     -0.0042
    102  CE1       48.4880  163.6790  183.2080 C.ar  327  PHE327     -0.0003
    103  CE2       47.7270  164.0900  180.9570 C.ar  327  PHE327     -0.0003
    104  CZ        47.8590  163.2300  182.0490 C.ar  327  PHE327     -0.0000
    105  N         51.4370  168.9130  183.8620 N.am  328  PHE328     -0.1976
    106  CA        52.8220  168.9620  184.3030 C.3   328  PHE328      0.1639
    107  C         52.9530  169.5520  185.6970 C.2   328  PHE328      0.2290
    108  O         53.8800  169.1880  186.4240 O.2   328  PHE328     -0.2864
    109  CB        53.6480  169.7450  183.2810 C.3   328  PHE328      0.0560
    110  CG        53.4920  169.2180  181.8780 C.ar  328  PHE328     -0.0200
    111  CD1       52.4020  169.5860  181.1010 C.ar  328  PHE328     -0.0042
    112  CD2       54.4070  168.3180  181.3580 C.ar  328  PHE328     -0.0042
    113  CE1       52.2330  169.0710  179.8230 C.ar  328  PHE328     -0.0003
    114  CE2       54.2590  167.8090  180.0750 C.ar  328  PHE328     -0.0003
    115  CZ        53.1750  168.1850  179.3050 C.ar  328  PHE328     -0.0000
    116  N         52.1170  166.7290  188.2090 N.3   331  TYR331     -0.1241
    117  CA        53.1830  165.7500  188.4120 C.3   331  TYR331      0.1605
    118  C         54.4300  166.3330  189.0570 C.2   331  TYR331      0.2264
    119  O         55.2130  165.5730  189.6330 O.2   331  TYR331     -0.2867
    120  CB        53.5780  165.0760  187.0840 C.3   331  TYR331      0.0534
    121  CG        52.6800  163.9110  186.7420 C.ar  331  TYR331     -0.0201
    122  CD1       51.3350  164.1250  186.4680 C.ar  331  TYR331     -0.0009
    123  CD2       53.1590  162.6000  186.7120 C.ar  331  TYR331     -0.0009
    124  CE1       50.4860  163.0860  186.1780 C.ar  331  TYR331      0.0417
    125  CE2       52.3010  161.5340  186.4100 C.ar  331  TYR331      0.0417
    126  CZ        50.9610  161.7980  186.1470 C.ar  331  TYR331      0.1957
    127  OH        50.0680  160.7970  185.8440 O.3   331  TYR331     -0.2866
    128  N         46.0800  168.8980  178.3400 N.3   437  HIS437     -0.1241
    129  CA        47.0390  168.3800  177.3730 C.3   437  HIS437      0.1621
    130  C         46.7270  166.9440  176.9800 C.2   437  HIS437      0.2264
    131  O         46.7610  166.0390  177.8170 O.2   437  HIS437     -0.2867
    132  CB        48.4420  168.4490  177.9740 C.3   437  HIS437      0.0745
    133  CG        49.5420  168.4340  176.9590 C.ar  437  HIS437      0.0817
    134  ND1       49.6490  169.3850  175.9640 N.ar  437  HIS437     -0.2268
    135  CD2       50.6060  167.6070  176.8070 C.ar  437  HIS437      0.1154
    136  CE1       50.7310  169.1420  175.2420 C.ar  437  HIS437      0.1986
    137  NE2       51.3280  168.0680  175.7320 N.ar  437  HIS437     -0.2212
@<TRIPOS>BOND
     1    43    44    1
     2    44    47    1
     3    44    45    1
     4    55    54    2
     5    47    48    1
     6    45    46    2
     7    45    52   am
     8    13    14    1
     9    52    53    1
    10    54    53    1
    11    48    49    1
    12    14    15    1
    13    53    56    1
    14    49    50   ar
    15    49    51   ar
    16    15    16    2
    17    15    17   am
    18    56    57    1
    19    17    18    1
    20    40    39    2
    21    39    38    1
    22    23    22    1
    23    23    24    2
    24    18    19    1
    25    21    19   am
    26    21    22    1
    27   136   137   ar
    28   136   134   ar
    29    19    20    2
    30    25    26    1
    31   137   135   ar
    32    37    38    1
    33    37    27   am
    34   134   133   ar
    35    38    41    1
    36    26    27    1
    37    26    29    1
    38    27    28    2
    39   135   133   ar
    40   133   132    1
    41   130   129    1
    42   130   131    2
    43    90    92   ar
    44    90    88   ar
    45    41    42    1
    46   129   132    1
    47   129   128    1
    48    80    82   ar
    49    80    78   ar
    50    92    93   ar
    51    82    81   ar
    52    29    30    1
    53    87    88    1
    54    87    84    1
    55    88    89   ar
    56    86    85    2
    57    78    77   ar
    58    81    79   ar
    59    32    30   ar
    60    32    34   ar
    61    93    91   ar
    62    30    31   ar
    63    85    84    1
    64    84    83    1
    65    34    35   ar
    66    89    91   ar
    67   115   113   ar
    68   115   114   ar
    69    31    33   ar
    70    77    79   ar
    71    77    76    1
    72    75    74    2
    73   113   111   ar
    74    35    33   ar
    75    35    36    1
    76   114   112   ar
    77     1     2    1
    78    74    73    1
    79     4     3    2
    80    76    73    1
    81   103   101   ar
    82   103   104   ar
    83   101    99   ar
    84   111   110   ar
    85    73    72    1
    86   112   110   ar
    87     2     3    1
    88     2     5    1
    89   110   109    1
    90     5     6    1
    91   104   102   ar
    92    71    69   ar
    93    71    70   ar
    94    99    98    1
    95    99   100   ar
    96    98    95    1
    97    69    67   ar
    98    70    68   ar
    99   102   100   ar
   100   109   106    1
   101    67    65   ar
   102    67    66   ar
   103     6     8   ar
   104     6     7   ar
   105    68    65   ar
   106    94    95    1
   107    95    96    1
   108     8    10   ar
   109   105   106    1
   110   105    96   am
   111    65    63   ar
   112    66    64   ar
   113    58    59    1
   114   106   107    1
   115    96    97    2
   116     7     9   ar
   117    59    60    1
   118    59    62    1
   119    64    63   ar
   120    63    62    1
   121    10    11   ar
   122    60    61    2
   123   107   108    2
   124     9    11   ar
   125   127   126    1
   126    11    12    1
   127   126   124   ar
   128   126   125   ar
   129   124   122   ar
   130   125   123   ar
   131   122   121   ar
   132   123   121   ar
   133   121   120    1
   134   120   117    1
   135   116   117    1
   136   117   118    1
   137   118   119    2
