@<TRIPOS>MOLECULE
tmp/6eugA00.pdb
 152 147 0 0 0
SMALL
GASTEIGER

@<TRIPOS>ATOM
      1  N        108.6870  129.9710  -36.4690 N.3    35  GLU35      -0.1245
      2  CA       108.4790  128.5160  -36.6820 C.3    35  GLU35       0.1567
      3  C        109.7350  127.8870  -37.2890 C.2    35  GLU35       0.2260
      4  O        110.3040  128.4340  -38.2710 O.2    35  GLU35      -0.2867
      5  CB       107.3420  128.3080  -37.6630 C.3    35  GLU35       0.0388
      6  CG       106.0230  128.9430  -37.2840 C.3    35  GLU35       0.1160
      7  CD       105.1180  129.2500  -38.4700 C.2    35  GLU35       0.3649
      8  OE1      104.0300  129.8130  -38.2290 O.co2  35  GLU35      -0.2457
      9  OE2      105.4820  128.9070  -39.6370 O.co2  35  GLU35      -0.2457
     10  N        110.5820  125.1900  -39.5850 N.3    37  ARG37      -0.1245
     11  CA       109.8760  124.4080  -40.5730 C.3    37  ARG37       0.1563
     12  C        110.7770  123.3330  -41.1720 C.2    37  ARG37       0.2260
     13  O        111.9770  123.5640  -41.3580 O.2    37  ARG37      -0.2867
     14  CB       109.2980  125.2830  -41.7080 C.3    37  ARG37       0.0307
     15  CG       108.1300  126.1950  -41.3160 C.3    37  ARG37       0.0489
     16  CD       106.8430  125.4330  -41.0410 C.3    37  ARG37       0.2205
     17  NE       105.7290  126.3450  -40.8040 N.pl3  37  ARG37      -0.0865
     18  CZ       104.4390  126.0280  -40.9180 C.cat  37  ARG37       0.5346
     19  NH1      103.5140  126.9530  -40.6950 N.pl3  37  ARG37       0.1354
     20  NH2      104.0590  124.8030  -41.2930 N.pl3  37  ARG37       0.1354
     21  N        105.0330  119.6210  -43.3960 N.3    42  PHE42      -0.1241
     22  CA       104.6990  120.9490  -42.8190 C.3    42  PHE42       0.1605
     23  C        104.7340  121.0990  -41.3060 C.2    42  PHE42       0.2264
     24  O        104.9270  122.2180  -40.8030 O.2    42  PHE42      -0.2867
     25  CB       103.3290  121.4530  -43.3580 C.3    42  PHE42       0.0534
     26  CG       102.1360  120.5910  -42.9690 C.ar   42  PHE42      -0.0203
     27  CD1      101.8180  119.4490  -43.6910 C.ar   42  PHE42      -0.0042
     28  CD2      101.3050  120.9680  -41.9240 C.ar   42  PHE42      -0.0042
     29  CE1      100.7270  118.6660  -43.3340 C.ar   42  PHE42      -0.0003
     30  CE2      100.1990  120.2070  -41.5770 C.ar   42  PHE42      -0.0003
     31  CZ        99.9240  119.0550  -42.2670 C.ar   42  PHE42      -0.0000
     32  N        102.4870  127.3750  -34.4830 N.3    83  GLU83      -0.1231
     33  CA       102.5300  128.4550  -35.4950 C.3    83  GLU83       0.1699
     34  C        102.4330  129.8810  -34.9300 C.2    83  GLU83       0.2592
     35  O        101.8810  130.1150  -33.8420 O.2    83  GLU83      -0.2718
     36  CB       101.4350  128.2680  -36.5610 C.3    83  GLU83       0.0402
     37  CG       101.6580  127.0270  -37.4160 C.3    83  GLU83       0.1161
     38  CD       100.5910  126.7540  -38.4690 C.2    83  GLU83       0.3649
     39  OE1       99.5780  127.5070  -38.5630 O.co2  83  GLU83      -0.2457
     40  OE2      100.7480  125.7270  -39.2000 O.co2  83  GLU83      -0.2457
     41  N        103.0400  130.7970  -35.6760 N.am   84  ARG84      -0.1980
     42  CA       102.8990  132.2290  -35.4680 C.3    84  ARG84       0.1597
     43  C        103.2320  132.6900  -34.0520 C.2    84  ARG84       0.2287
     44  O        102.5160  133.4950  -33.4630 O.2    84  ARG84      -0.2864
     45  CB       101.5270  132.7180  -35.9790 C.3    84  ARG84       0.0334
     46  CG       101.3540  132.5830  -37.4850 C.3    84  ARG84       0.0492
     47  CD       100.1030  133.2610  -38.0680 C.3    84  ARG84       0.2205
     48  NE       100.0180  132.9940  -39.5090 N.pl3  84  ARG84      -0.0865
     49  CZ       100.7020  133.6400  -40.4630 C.cat  84  ARG84       0.5346
     50  NH1      101.4600  134.6880  -40.1920 N.pl3  84  ARG84       0.1354
     51  NH2      100.5870  133.2690  -41.7490 N.pl3  84  ARG84       0.1354
     52  N         99.9470  129.8390  -31.7080 N.3   101  HIS101     -0.1241
     53  CA        98.8550  128.9790  -32.1860 C.3   101  HIS101      0.1621
     54  C         99.2730  127.5280  -32.0330 C.2   101  HIS101      0.2264
     55  O        100.2880  127.1430  -32.5530 O.2   101  HIS101     -0.2867
     56  CB        98.5900  129.3420  -33.6620 C.3   101  HIS101      0.0745
     57  CG        97.5940  128.4670  -34.3830 C.ar  101  HIS101      0.0817
     58  ND1       97.4920  128.4720  -35.7620 N.ar  101  HIS101     -0.2268
     59  CD2       96.6660  127.5780  -33.9380 C.ar  101  HIS101      0.1154
     60  CE1       96.5700  127.5980  -36.1310 C.ar  101  HIS101      0.1986
     61  NE2       96.0470  127.0490  -35.0460 N.ar  101  HIS101     -0.2212
     62  N         93.7070  120.6520  -37.7020 N.3   109  TYR109     -0.1241
     63  CA        93.5060  122.0280  -37.2000 C.3   109  TYR109      0.1605
     64  C         92.1740  122.1860  -36.3860 C.2   109  TYR109      0.2264
     65  O         91.6920  123.2990  -36.1590 O.2   109  TYR109     -0.2867
     66  CB        93.6030  123.0460  -38.3700 C.3   109  TYR109      0.0534
     67  CG        95.0240  123.3310  -38.8670 C.ar  109  TYR109     -0.0201
     68  CD1       95.6080  122.5450  -39.8510 C.ar  109  TYR109     -0.0009
     69  CD2       95.7630  124.4100  -38.3760 C.ar  109  TYR109     -0.0009
     70  CE1       96.8990  122.7880  -40.3180 C.ar  109  TYR109      0.0417
     71  CE2       97.0600  124.6580  -38.8280 C.ar  109  TYR109      0.0417
     72  CZ        97.6240  123.8460  -39.8210 C.ar  109  TYR109      0.1957
     73  OH        98.9080  124.0460  -40.3080 O.3   109  TYR109     -0.2866
     74  N         95.3680  131.8540  -36.5100 N.3   187  ASP187     -0.1239
     75  CA        96.3590  132.9000  -36.7350 C.3   187  ASP187      0.1674
     76  C         96.1790  133.9940  -35.6440 C.2   187  ASP187      0.2266
     77  O         95.0370  134.3090  -35.2480 O.2   187  ASP187     -0.2867
     78  CB        96.2190  133.5770  -38.1070 C.3   187  ASP187      0.1410
     79  CG        96.6640  132.7160  -39.2740 C.2   187  ASP187      0.3668
     80  OD1       97.1080  131.5490  -39.1280 O.co2 187  ASP187     -0.2456
     81  OD2       96.6140  133.2670  -40.4020 O.co2 187  ASP187     -0.2456
     82  N         87.7460  130.7300  -38.3960 N.3   207  ASN207     -0.1240
     83  CA        88.5520  131.7190  -39.1540 C.3   207  ASN207      0.1653
     84  C         87.7260  132.8960  -39.7440 C.2   207  ASN207      0.2266
     85  O         88.2890  133.7810  -40.3860 O.2   207  ASN207     -0.2867
     86  CB        89.3760  131.0580  -40.3020 C.3   207  ASN207      0.1155
     87  CG        90.4730  130.1200  -39.8150 C.2   207  ASN207      0.2627
     88  OD1       90.7940  130.0490  -38.6330 O.2   207  ASN207     -0.2716
     89  ND2       91.0210  129.3520  -40.7450 N.am  207  ASN207     -0.0877
     90  N         93.0070  137.2200  -41.7320 N.3   236  GLU236     -0.1245
     91  CA        94.0070  136.2710  -41.2230 C.3   236  GLU236      0.1567
     92  C         95.3660  136.9510  -41.0300 C.2   236  GLU236      0.2260
     93  O         95.5070  138.1320  -41.3190 O.2   236  GLU236     -0.2867
     94  CB        94.1350  135.0810  -42.2030 C.3   236  GLU236      0.0388
     95  CG        92.8150  134.5110  -42.7280 C.3   236  GLU236      0.1160
     96  CD        91.8100  134.0380  -41.6670 C.2   236  GLU236      0.3649
     97  OE1       92.1800  133.5860  -40.5660 O.co2 236  GLU236     -0.2457
     98  OE2       90.5980  134.1080  -41.9520 O.co2 236  GLU236     -0.2457
     99  N         91.8300  134.6210  -46.6900 N.3   254  CYS254     -0.1221
    100  CA        91.9220  133.1940  -46.3510 C.3   254  CYS254      0.1808
    101  C         91.9280  132.3540  -47.6270 C.2   254  CYS254      0.2602
    102  O         90.8680  131.9640  -48.1270 O.2   254  CYS254     -0.2717
    103  CB        90.7480  132.7770  -45.4350 C.3   254  CYS254      0.0970
    104  SG        91.0450  131.2580  -44.5130 S.3   254  CYS254     -0.0800
    105  N         93.1200  132.1490  -48.1870 N.am  255  THR255     -0.1939
    106  CA        93.2830  131.3480  -49.4230 C.3   255  THR255      0.2028
    107  C         94.4210  130.3360  -49.3220 C.2   255  THR255      0.2643
    108  O         95.2360  130.2190  -50.2390 O.2   255  THR255     -0.2714
    109  CB        93.5050  132.2640  -50.6390 C.3   255  THR255      0.1808
    110  OG1       94.6530  133.1040  -50.4180 O.3   255  THR255     -0.2208
    111  CG2       92.2590  133.1390  -50.8660 C.3   255  THR255      0.0379
    112  N         94.4850  129.6040  -48.2070 N.am  256  GLY256     -0.1939
    113  CA        95.5340  128.6010  -48.0200 C.3   256  GLY256      0.2014
    114  C         96.9020  129.2470  -48.0760 C.2   256  GLY256      0.2638
    115  O         97.0870  130.3460  -47.5420 O.2   256  GLY256     -0.2714
    116  N         97.8470  128.5690  -48.7350 N.am  257  TRP257     -0.1973
    117  CA        99.1980  129.0770  -48.9260 C.3   257  TRP257      0.1640
    118  C         99.3090  130.1280  -50.0490 C.2   257  TRP257      0.2290
    119  O        100.3860  130.7340  -50.2480 O.2   257  TRP257     -0.2864
    120  CB       100.1640  127.9060  -49.2260 C.3   257  TRP257      0.0576
    121  CG       100.3290  126.8740  -48.1390 C.ar  257  TRP257      0.0006
    122  CD1       99.9200  125.5610  -48.2010 C.ar  257  TRP257      0.0946
    123  CD2      100.9940  127.0190  -46.8700 C.ar  257  TRP257      0.0152
    124  NE1      100.2730  124.9020  -47.0590 N.ar  257  TRP257     -0.2442
    125  CE2      100.9280  125.7640  -46.2190 C.ar  257  TRP257      0.0810
    126  CE3      101.6160  128.0820  -46.2130 C.ar  257  TRP257      0.0012
    127  CZ2      101.4600  125.5440  -44.9270 C.ar  257  TRP257      0.0191
    128  CZ3      102.1520  127.8650  -44.9190 C.ar  257  TRP257      0.0001
    129  CH2      102.0650  126.6030  -44.2990 C.ar  257  TRP257      0.0015
    130  N        102.6320  137.0760  -47.3500 N.3   293  GLN293     -0.1245
    131  CA       101.5590  137.1400  -46.3590 C.3   293  GLN293      0.1566
    132  C        102.1150  137.7720  -45.0810 C.2   293  GLN293      0.2260
    133  O        103.1560  137.3250  -44.5540 O.2   293  GLN293     -0.2867
    134  CB       101.0000  135.7380  -46.0690 C.3   293  GLN293      0.0367
    135  CG        99.8010  135.6760  -45.1080 C.3   293  GLN293      0.0905
    136  CD        99.3420  134.2610  -44.7740 C.2   293  GLN293      0.2608
    137  OE1      100.1740  133.3190  -44.6970 O.2   293  GLN293     -0.2717
    138  NE2       98.0270  134.1040  -44.4640 N.am  293  GLN293     -0.0878
    139  N        105.7100  132.0780  -48.8170 N.3   313  TRP313     -0.1241
    140  CA       105.6020  130.6550  -48.5090 C.3   313  TRP313      0.1605
    141  C        105.8950  129.7890  -49.7440 C.2   313  TRP313      0.2264
    142  O        105.4090  130.0990  -50.8480 O.2   313  TRP313     -0.2867
    143  CB       104.2070  130.2890  -47.9860 C.3   313  TRP313      0.0550
    144  CG       103.8190  130.9330  -46.6790 C.ar  313  TRP313      0.0003
    145  CD1      102.8700  131.8720  -46.5110 C.ar  313  TRP313      0.0946
    146  CD2      104.3460  130.6470  -45.3820 C.ar  313  TRP313      0.0152
    147  NE1      102.7660  132.2030  -45.1930 N.ar  313  TRP313     -0.2442
    148  CE2      103.7000  131.5020  -44.4810 C.ar  313  TRP313      0.0810
    149  CE3      105.3720  129.8070  -44.9140 C.ar  313  TRP313      0.0012
    150  CZ2      103.9490  131.4770  -43.1290 C.ar  313  TRP313      0.0191
    151  CZ3      105.6270  129.7590  -43.5670 C.ar  313  TRP313      0.0001
    152  CH2      104.9490  130.6280  -42.6750 C.ar  313  TRP313      0.0015
@<TRIPOS>BOND
     1   111   109    1
     2   142   141    2
     3   109   110    1
     4   109   106    1
     5   119   118    2
     6   108   107    2
     7   118   117    1
     8   141   140    1
     9   106   107    1
    10   106   105    1
    11   107   112   am
    12   120   117    1
    13   120   121    1
    14   117   116    1
    15   139   140    1
    16   116   114   am
    17   140   143    1
    18   112   113    1
    19   122   121   ar
    20   122   124   ar
    21   105   101   am
    22   121   123   ar
    23   102   101    2
    24   114   113    1
    25   114   115    2
    26   143   144    1
    27   101   100    1
    28   130   131    1
    29   124   125   ar
    30   123   125   ar
    31   123   126   ar
    32    99   100    1
    33   144   145   ar
    34   144   146   ar
    35   145   147   ar
    36   131   134    1
    37   131   132    1
    38   100   103    1
    39   125   127   ar
    40   126   128   ar
    41   134   135    1
    42   103   104    1
    43   146   149   ar
    44   146   148   ar
    45   147   148   ar
    46   135   136    1
    47   132   133    2
    48   127   129   ar
    49   128   129   ar
    50   149   151   ar
    51   136   137    2
    52   136   138   am
    53   148   150   ar
    54    27    29   ar
    55    27    26   ar
    56   151   152   ar
    57    21    22    1
    58    25    26    1
    59    25    22    1
    60    29    31   ar
    61   150   152   ar
    62    26    28   ar
    63    22    23    1
    64    95    94    1
    65    95    96    1
    66    31    30   ar
    67    94    91    1
    68    98    96   ar
    69    28    30   ar
    70    51    49    1
    71    90    91    1
    72    14    15    1
    73    14    11    1
    74    96    97   ar
    75    13    12    2
    76    93    92    2
    77    15    16    1
    78    23    24    2
    79    20    18    1
    80    91    92    1
    81    12    11    1
    82    16    17    1
    83    18    17    2
    84    18    19    1
    85    89    87   am
    86    11    10    1
    87    49    50    1
    88    49    48    2
    89    81    79   ar
    90    85    84    2
    91    70    68   ar
    92    70    72   ar
    93    73    72    1
    94    86    87    1
    95    86    83    1
    96    68    67   ar
    97    72    71   ar
    98    87    88    2
    99    84    83    1
   100     9     7   ar
   101    48    47    1
   102    79    80   ar
   103    79    78    1
   104    40    38   ar
   105    83    82    1
   106    67    69   ar
   107    67    66    1
   108    71    69   ar
   109    39    38   ar
   110     7     8   ar
   111     7     6    1
   112    38    37    1
   113    66    63    1
   114     4     3    2
   115    78    75    1
   116    47    46    1
   117    62    63    1
   118     5     6    1
   119     5     2    1
   120    46    45    1
   121    37    36    1
   122     3     2    1
   123    63    64    1
   124    75    74    1
   125    75    76    1
   126     2     1    1
   127    36    33    1
   128    64    65    2
   129    60    58   ar
   130    60    61   ar
   131    45    42    1
   132    58    57   ar
   133    41    42    1
   134    41    34   am
   135    76    77    2
   136    33    34    1
   137    33    32    1
   138    42    43    1
   139    61    59   ar
   140    34    35    2
   141    57    59   ar
   142    57    56    1
   143    43    44    2
   144    56    53    1
   145    55    54    2
   146    53    54    1
   147    53    52    1
