@<TRIPOS>MOLECULE
tmp/6euhA00.pdb
 137 132 0 0 0
SMALL
GASTEIGER

@<TRIPOS>ATOM
      1  N         33.4460 -106.2040   33.2620 N.3    34  GLU34      -0.1245
      2  CA        33.5740 -106.7270   31.9360 C.3    34  GLU34       0.1567
      3  C         34.1290 -108.1410   31.9970 C.2    34  GLU34       0.2260
      4  O         35.1560 -108.3640   32.6460 O.2    34  GLU34      -0.2867
      5  CB        34.6210 -105.9160   31.1900 C.3    34  GLU34       0.0388
      6  CG        34.2630 -104.4520   30.9650 C.3    34  GLU34       0.1160
      7  CD        35.4740 -103.5480   30.8340 C.2    34  GLU34       0.3649
      8  OE1       35.2260 -102.3290   30.8580 O.co2  34  GLU34      -0.2457
      9  OE2       36.6430 -104.0490   30.7340 O.co2  34  GLU34      -0.2457
     10  N         36.2520 -110.2900   30.0410 N.3    36  ARG36      -0.1245
     11  CA        37.2280 -110.1450   28.9650 C.3    36  ARG36       0.1563
     12  C         37.6770 -111.5020   28.4840 C.2    36  ARG36       0.2260
     13  O         37.8600 -112.3910   29.2820 O.2    36  ARG36      -0.2867
     14  CB        38.4340 -109.3410   29.4660 C.3    36  ARG36       0.0307
     15  CG        38.1160 -107.8800   29.7640 C.3    36  ARG36       0.0489
     16  CD        37.8890 -107.1110   28.4820 C.3    36  ARG36       0.2205
     17  NE        37.7950 -105.6770   28.7260 N.pl3  36  ARG36      -0.0865
     18  CZ        37.9550 -104.7310   27.7970 C.cat  36  ARG36       0.5346
     19  NH1       37.8550 -103.4720   28.1440 N.pl3  36  ARG36       0.1354
     20  NH2       38.2090 -105.0210   26.5220 N.pl3  36  ARG36       0.1354
     21  N         39.8030 -108.2810   22.3460 N.3    41  PHE41      -0.1241
     22  CA        39.3860 -107.2670   23.2910 C.3    41  PHE41       0.1605
     23  C         37.8860 -107.2410   23.5200 C.2    41  PHE41       0.2264
     24  O         37.4540 -106.9290   24.6230 O.2    41  PHE41      -0.2867
     25  CB        39.9940 -105.8780   22.9330 C.3    41  PHE41       0.0534
     26  CG        39.4480 -105.2330   21.6780 C.ar   41  PHE41      -0.0203
     27  CD1       39.8890 -105.6310   20.4040 C.ar   41  PHE41      -0.0042
     28  CD2       38.5510 -104.1550   21.7580 C.ar   41  PHE41      -0.0042
     29  CE1       39.4000 -105.0040   19.2460 C.ar   41  PHE41      -0.0003
     30  CE2       38.0710 -103.5380   20.6050 C.ar   41  PHE41      -0.0003
     31  CZ        38.4830 -103.9610   19.3520 C.ar   41  PHE41      -0.0000
     32  N         31.6800 -101.8880   28.0400 N.3    82  GLU82      -0.1231
     33  CA        32.7280 -101.5050   28.9870 C.3    82  GLU82       0.1699
     34  C         32.1820 -100.7250   30.1730 C.2    82  GLU82       0.2592
     35  O         31.1120 -100.1180   30.1100 O.2    82  GLU82      -0.2718
     36  CB        33.8650 -100.7250   28.2890 C.3    82  GLU82       0.0402
     37  CG        34.6190 -101.5870   27.2750 C.3    82  GLU82       0.1161
     38  CD        35.6820 -100.8620   26.4380 C.2    82  GLU82       0.3649
     39  OE1       35.9170  -99.6280   26.6320 O.co2  82  GLU82      -0.2457
     40  OE2       36.2970 -101.5580   25.5760 O.co2  82  GLU82      -0.2457
     41  N         32.9220 -100.8090   31.2640 N.am   83  ARG83      -0.1980
     42  CA        32.7370  -99.9760   32.4650 C.3    83  ARG83       0.1597
     43  C         31.3260  -99.9650   33.0060 C.2    83  ARG83       0.2287
     44  O         30.7310  -98.8970   33.1910 O.2    83  ARG83      -0.2864
     45  CB        33.2970  -98.5650   32.2370 C.3    83  ARG83       0.0334
     46  CG        34.8040  -98.6290   31.9060 C.3    83  ARG83       0.0492
     47  CD        35.5030  -97.2560   32.0200 C.3    83  ARG83       0.2205
     48  NE        36.9350  -97.3970   31.7350 N.pl3  83  ARG83      -0.0865
     49  CZ        37.8870  -97.7050   32.6190 C.cat  83  ARG83       0.5346
     50  NH1       37.6370  -97.8440   33.9050 N.pl3  83  ARG83       0.1354
     51  NH2       39.1280  -97.8290   32.2050 N.pl3  83  ARG83       0.1354
     52  N         29.1080  -98.5380   28.9750 N.3   100  HIS100     -0.1241
     53  CA        29.5400  -97.9570   27.7150 C.3   100  HIS100      0.1621
     54  C         29.3370  -99.0500   26.6680 C.2   100  HIS100      0.2264
     55  O         29.8100 -100.1850   26.8400 O.2   100  HIS100     -0.2867
     56  CB        30.9710  -97.4900   27.8490 C.3   100  HIS100      0.0745
     57  CG        31.6550  -97.1440   26.5570 C.ar  100  HIS100      0.0817
     58  ND1       33.0280  -97.1470   26.4350 N.ar  100  HIS100     -0.2268
     59  CD2       31.1700  -96.7990   25.3410 C.ar  100  HIS100      0.1154
     60  CE1       33.3600  -96.8170   25.1970 C.ar  100  HIS100      0.1986
     61  NE2       32.2530  -96.5920   24.5160 N.ar  100  HIS100     -0.2212
     62  N         34.8800  -97.7330   18.0140 N.3   108  TYR108     -0.1241
     63  CA        34.4630  -96.8730   19.0980 C.3   108  TYR108      0.1605
     64  C         33.6540  -95.6520   18.6030 C.2   108  TYR108      0.2264
     65  O         33.4510  -94.7010   19.3470 O.2   108  TYR108     -0.2867
     66  CB        35.6840  -96.4980   19.9500 C.3   108  TYR108      0.0534
     67  CG        36.1360  -97.6110   20.8800 C.ar  108  TYR108     -0.0201
     68  CD1       35.5780  -97.7450   22.1740 C.ar  108  TYR108     -0.0009
     69  CD2       37.1110  -98.5360   20.4870 C.ar  108  TYR108     -0.0009
     70  CE1       35.9710  -98.7800   23.0310 C.ar  108  TYR108      0.0417
     71  CE2       37.5160  -99.5720   21.3330 C.ar  108  TYR108      0.0417
     72  CZ        36.9480  -99.6970   22.6090 C.ar  108  TYR108      0.1957
     73  OH        37.3570 -100.7070   23.4560 O.3   108  TYR108     -0.2866
     74  N         34.0100  -93.8290   28.3800 N.3   186  ASP186     -0.1239
     75  CA        34.2930  -94.1400   29.7710 C.3   186  ASP186      0.1674
     76  C         33.2750  -93.4260   30.6590 C.2   186  ASP186      0.2266
     77  O         32.9970  -92.2150   30.4810 O.2   186  ASP186     -0.2867
     78  CB        35.6780  -93.6800   30.1750 C.3   186  ASP186      0.1410
     79  CG        36.8150  -94.6030   29.7050 C.2   186  ASP186      0.3668
     80  OD1       36.6200  -95.5260   28.8630 O.co2 186  ASP186     -0.2456
     81  OD2       37.9460  -94.3310   30.1850 O.co2 186  ASP186     -0.2456
     82  N         39.8420  -89.5010   31.7190 N.3   235  GLU235     -0.1245
     83  CA        39.1710  -90.7700   31.4460 C.3   235  GLU235      0.1567
     84  C         38.9240  -91.5890   32.7300 C.2   235  GLU235      0.2260
     85  O         39.2980  -91.1950   33.8280 O.2   235  GLU235     -0.2867
     86  CB        39.9820  -91.5930   30.3990 C.3   235  GLU235      0.0388
     87  CG        40.5150  -90.8040   29.1920 C.3   235  GLU235      0.1160
     88  CD        39.4550  -89.9840   28.4420 C.2   235  GLU235      0.3649
     89  OE1       38.2920  -90.4430   28.3070 O.co2 235  GLU235     -0.2457
     90  OE2       39.7850  -88.8570   27.9770 O.co2 235  GLU235     -0.2457
     91  N         44.6060  -89.8790   29.0010 N.3   253  CYS253     -0.1235
     92  CA        44.1220  -90.6630   27.8220 C.3   253  CYS253      0.1677
     93  C         45.3580  -91.1510   27.0530 C.2   253  CYS253      0.2270
     94  O         45.8600  -90.4680   26.1610 O.2   253  CYS253     -0.2867
     95  CB        43.1570  -89.8140   26.9220 C.3   253  CYS253      0.0956
     96  SG        42.1220  -90.6760   25.6540 S.3   253  CYS253     -0.0801
     97  N         45.6380  -94.6700   25.9060 N.3   255  GLY255     -0.1210
     98  CA        45.1670  -96.0350   25.6190 C.3   255  GLY255      0.1956
     99  C         45.4120  -96.9660   26.7950 C.2   255  GLY255      0.2611
    100  O         45.0130  -96.6630   27.9250 O.2   255  GLY255     -0.2717
    101  N         46.1260  -98.0660   26.5710 N.am  256  TRP256     -0.1976
    102  CA        46.3350  -99.0390   27.6590 C.3   256  TRP256      0.1640
    103  C         47.4520  -98.7190   28.6520 C.2   256  TRP256      0.2290
    104  O         47.5600  -99.3650   29.7030 O.2   256  TRP256     -0.2864
    105  CB        46.5770 -100.4170   27.0870 C.3   256  TRP256      0.0576
    106  CG        45.4530 -100.9630   26.3130 C.ar  256  TRP256      0.0006
    107  CD1       45.4250 -101.1680   24.9600 C.ar  256  TRP256      0.0946
    108  CD2       44.1860 -101.4110   26.8190 C.ar  256  TRP256      0.0152
    109  NE1       44.2280 -101.7370   24.5990 N.ar  256  TRP256     -0.2442
    110  CE2       43.4480 -101.8950   25.7160 C.ar  256  TRP256      0.0810
    111  CE3       43.6090 -101.4770   28.1010 C.ar  256  TRP256      0.0012
    112  CZ2       42.1600 -102.4230   25.8460 C.ar  256  TRP256      0.0191
    113  CZ3       42.3030 -101.9980   28.2300 C.ar  256  TRP256      0.0001
    114  CH2       41.6010 -102.4630   27.1020 C.ar  256  TRP256      0.0015
    115  N         44.7560  -98.1700   36.3550 N.3   292  GLN292     -0.1245
    116  CA        43.7910  -97.1370   35.9060 C.3   292  GLN292      0.1566
    117  C         42.5450  -97.2480   36.7830 C.2   292  GLN292      0.2260
    118  O         41.9780  -98.3550   36.9420 O.2   292  GLN292     -0.2867
    119  CB        43.4040  -97.3770   34.4410 C.3   292  GLN292      0.0367
    120  CG        42.5610  -96.2650   33.8510 C.3   292  GLN292      0.0905
    121  CD        42.1390  -96.5490   32.4270 C.2   292  GLN292      0.2608
    122  OE1       41.9350  -97.7100   32.0440 O.2   292  GLN292     -0.2717
    123  NE2       41.9450  -95.5020   31.6590 N.am  292  GLN292     -0.0878
    124  N         45.8380 -103.2130   33.6010 N.3   312  TRP312     -0.1241
    125  CA        45.5150 -103.6880   32.2710 C.3   312  TRP312      0.1605
    126  C         46.7250 -104.3800   31.6440 C.2   312  TRP312      0.2264
    127  O         47.8350 -103.8290   31.6630 O.2   312  TRP312     -0.2867
    128  CB        45.0910 -102.5290   31.3750 C.3   312  TRP312      0.0550
    129  CG        43.7190 -101.8930   31.7360 C.ar  312  TRP312      0.0003
    130  CD1       43.4730 -100.5780   32.0310 C.ar  312  TRP312      0.0946
    131  CD2       42.4450 -102.5360   31.7180 C.ar  312  TRP312      0.0152
    132  NE1       42.1470 -100.3860   32.2550 N.ar  312  TRP312     -0.2442
    133  CE2       41.4860 -101.5630   32.0570 C.ar  312  TRP312      0.0810
    134  CE3       42.0280 -103.8540   31.5030 C.ar  312  TRP312      0.0012
    135  CZ2       40.1400 -101.8570   32.1800 C.ar  312  TRP312      0.0191
    136  CZ3       40.6880 -104.1500   31.6130 C.ar  312  TRP312      0.0001
    137  CH2       39.7550 -103.1630   31.9640 C.ar  312  TRP312      0.0015
@<TRIPOS>BOND
     1    62    63    1
     2    64    63    1
     3    64    65    2
     4    63    66    1
     5    29    31   ar
     6    29    27   ar
     7    31    30   ar
     8    66    67    1
     9    27    26   ar
    10    69    67   ar
    11    69    71   ar
    12    30    28   ar
    13    67    68   ar
    14    71    72   ar
    15    26    28   ar
    16    26    25    1
    17    68    70   ar
    18    21    22    1
    19    72    70   ar
    20    72    73    1
    21    25    22    1
    22    22    23    1
    23    23    24    2
    24    61    60   ar
    25    61    59   ar
    26   109   107   ar
    27   109   110   ar
    28   107   106   ar
    29    60    58   ar
    30    59    57   ar
    31    40    38   ar
    32    98    97    1
    33    98    99    1
    34    96    95    1
    35   110   112   ar
    36   110   108   ar
    37   112   114   ar
    38    94    93    2
    39   106   108   ar
    40   106   105    1
    41    58    57   ar
    42    38    39   ar
    43    38    37    1
    44    20    18    1
    45    57    56    1
    46   101    99   am
    47   101   102    1
    48    54    55    2
    49    54    53    1
    50    99   100    2
    51   108   111   ar
    52    95    92    1
    53    93    92    1
    54   105   102    1
    55   114   113   ar
    56    37    36    1
    57   102   103    1
    58    53    56    1
    59    53    52    1
    60    18    19    1
    61    18    17    2
    62    92    91    1
    63    90    88   ar
    64    32    33    1
    65   111   113   ar
    66    36    33    1
    67    89    88   ar
    68    74    75    1
    69    88    87    1
    70    16    17    1
    71    16    15    1
    72    12    11    1
    73    12    13    2
    74   103   104    2
    75    80    79   ar
    76    11    14    1
    77    11    10    1
    78    33    34    1
    79    87    86    1
    80    14    15    1
    81    79    78    1
    82    79    81   ar
    83    75    78    1
    84    75    76    1
    85    35    34    2
    86    34    41   am
    87    86    83    1
    88    77    76    2
    89     9     7   ar
    90     7     8   ar
    91     7     6    1
    92     6     5    1
    93     5     2    1
    94    41    42    1
    95   128   129    1
    96   128   125    1
    97    83    82    1
    98    83    84    1
    99   134   136   ar
   100   134   131   ar
   101   136   137   ar
   102   126   127    2
   103   126   125    1
   104   123   121   am
   105   131   129   ar
   106   131   133   ar
   107    48    47    1
   108    48    49    2
   109   129   130   ar
   110    46    47    1
   111    46    45    1
   112     2     3    1
   113     2     1    1
   114   137   135   ar
   115     3     4    2
   116   130   132   ar
   117   122   121    2
   118   133   135   ar
   119   133   132   ar
   120    51    49    1
   121    45    42    1
   122   125   124    1
   123   121   120    1
   124    42    43    1
   125    49    50    1
   126    84    85    2
   127    43    44    2
   128   120   119    1
   129   119   116    1
   130   116   115    1
   131   116   117    1
   132   117   118    2
