@<TRIPOS>MOLECULE
tmp/6euiA00.pdb
 96 95 0 0 0
SMALL
GASTEIGER

@<TRIPOS>ATOM
      1  N        -31.6010  -21.7420  -11.1050 N.3    98  TRP98      -0.1241
      2  CA       -30.5130  -20.8950  -10.6580 C.3    98  TRP98       0.1605
      3  C        -30.1110  -21.3290   -9.2610 C.2    98  TRP98       0.2264
      4  O        -30.9560  -21.8270   -8.4870 O.2    98  TRP98      -0.2867
      5  CB       -30.9270  -19.3850  -10.7160 C.3    98  TRP98       0.0550
      6  CG       -30.9680  -18.7620  -12.1090 C.ar   98  TRP98       0.0003
      7  CD1      -31.9980  -18.7520  -12.9780 C.ar   98  TRP98       0.0946
      8  CD2      -29.8970  -18.0830  -12.7540 C.ar   98  TRP98       0.0152
      9  NE1      -31.6470  -18.1170  -14.1480 N.ar   98  TRP98      -0.2442
     10  CE2      -30.3490  -17.7020  -14.0330 C.ar   98  TRP98       0.0810
     11  CE3      -28.5710  -17.8230  -12.3990 C.ar   98  TRP98       0.0012
     12  CZ2      -29.5440  -17.0070  -14.9430 C.ar   98  TRP98       0.0191
     13  CZ3      -27.7650  -17.1300  -13.3140 C.ar   98  TRP98       0.0001
     14  CH2      -28.2660  -16.7330  -14.5620 C.ar   98  TRP98       0.0015
     15  N        -23.3900  -17.1110   -9.0680 N.3   113  ALA113     -0.1245
     16  CA       -24.6450  -17.7740   -9.3830 C.3   113  ALA113      0.1562
     17  C        -24.3600  -18.6840  -10.5850 C.2   113  ALA113      0.2260
     18  O        -23.4080  -18.4290  -11.3400 O.2   113  ALA113     -0.2867
     19  CB       -25.7320  -16.7660   -9.6920 C.3   113  ALA113      0.0290
     20  N        -26.4870  -21.3330  -13.5890 N.3   115  VAL115     -0.1245
     21  CA       -27.7490  -21.5580  -14.2920 C.3   115  VAL115      0.1561
     22  C        -27.6700  -22.9080  -14.9980 C.2   115  VAL115      0.2260
     23  O        -26.6120  -23.2600  -15.4960 O.2   115  VAL115     -0.2867
     24  CB       -28.0980  -20.3870  -15.2430 C.3   115  VAL115      0.0252
     25  CG1      -27.0700  -20.2200  -16.3610 C.3   115  VAL115      0.0019
     26  CG2      -29.4940  -20.5550  -15.8020 C.3   115  VAL115      0.0019
     27  N        -23.5920  -22.4370  -17.2680 N.3   129  ARG129     -0.1231
     28  CA       -22.4170  -21.6700  -16.8120 C.3   129  ARG129      0.1694
     29  C        -22.5990  -21.1400  -15.3730 C.2   129  ARG129      0.2593
     30  O        -23.6730  -21.2690  -14.7920 O.2   129  ARG129     -0.2718
     31  CB       -22.0950  -20.5070  -17.7830 C.3   129  ARG129      0.0321
     32  CG       -23.2220  -19.5030  -17.9090 C.3   129  ARG129      0.0489
     33  CD       -22.9340  -18.2300  -18.7250 C.3   129  ARG129      0.2205
     34  NE       -23.8880  -17.2460  -18.2310 N.pl3 129  ARG129     -0.0865
     35  CZ       -25.2060  -17.2710  -18.4550 C.cat 129  ARG129      0.5346
     36  NH1      -25.7650  -18.1530  -19.2840 N.pl3 129  ARG129      0.1354
     37  NH2      -25.9920  -16.3870  -17.8580 N.pl3 129  ARG129      0.1354
     38  N        -21.5120  -20.6260  -14.8190 N.am  130  SER130     -0.1938
     39  CA       -21.5070  -19.8800  -13.5790 C.3   130  SER130      0.2055
     40  C        -20.7680  -18.5460  -13.7640 C.2   130  SER130      0.2644
     41  O        -19.9970  -18.3340  -14.7180 O.2   130  SER130     -0.2714
     42  CB       -20.8710  -20.6940  -12.4600 C.3   130  SER130      0.2130
     43  OG       -19.4590  -20.7200  -12.5650 O.3   130  SER130     -0.2179
     44  N        -21.0330  -17.6290  -12.8420 N.am  131  GLY131     -0.1939
     45  CA       -20.2540  -16.3820  -12.7550 C.3   131  GLY131      0.2014
     46  C        -20.9080  -15.3940  -11.8130 C.2   131  GLY131      0.2639
     47  O        -22.0640  -15.5860  -11.3620 O.2   131  GLY131     -0.2714
     48  N        -20.1770  -14.3110  -11.5750 N.am  132  ARG132     -0.1963
     49  CA       -20.6960  -13.1540  -10.8900 C.3   132  ARG132      0.1729
     50  C        -21.5880  -12.4110  -11.8760 C.2   132  ARG132      0.2616
     51  O        -21.5510  -12.6760  -13.0730 O.2   132  ARG132     -0.2715
     52  CB       -19.5710  -12.3070  -10.3270 C.3   132  ARG132      0.0348
     53  CG       -18.8820  -12.9640   -9.1020 C.3   132  ARG132      0.0492
     54  CD       -17.8850  -12.0570   -8.4250 C.3   132  ARG132      0.2205
     55  NE       -17.2310  -12.7150   -7.2890 N.pl3 132  ARG132     -0.0865
     56  CZ       -16.3050  -12.1690   -6.5060 C.cat 132  ARG132      0.5346
     57  NH1      -15.8580  -10.9440   -6.7250 N.pl3 132  ARG132      0.1354
     58  NH2      -15.7900  -12.8630   -5.5010 N.pl3 132  ARG132      0.1354
     59  N        -22.3810  -11.4650  -11.3810 N.am  133  VAL133     -0.1963
     60  CA       -23.5640  -11.0050  -12.1210 C.3   133  VAL133      0.1727
     61  C        -23.3160   -9.6640  -12.8120 C.2   133  VAL133      0.2616
     62  O        -22.8130   -8.7330  -12.2020 O.2   133  VAL133     -0.2715
     63  CB       -24.7840  -10.9410  -11.1820 C.3   133  VAL133      0.0290
     64  CG1      -26.0220  -10.5100  -11.9390 C.3   133  VAL133      0.0023
     65  CG2      -24.9840  -12.2960  -10.5190 C.3   133  VAL133      0.0023
     66  N        -23.7110   -9.5610  -14.0730 N.am  134  ASN134     -0.1959
     67  CA       -23.6830   -8.2880  -14.8450 C.3   134  ASN134      0.1804
     68  C        -22.3170   -7.5670  -14.8220 C.2   134  ASN134      0.2463
     69  O        -22.2200   -6.4380  -14.3570 O.2   134  ASN134     -0.2730
     70  CB       -24.7830   -7.3030  -14.3510 C.3   134  ASN134      0.1195
     71  CG       -26.1720   -7.6830  -14.7820 C.2   134  ASN134      0.2630
     72  OD1      -26.4210   -8.0630  -15.9390 O.2   134  ASN134     -0.2716
     73  ND2      -27.1210   -7.4920  -13.8860 N.am  134  ASN134     -0.0877
     74  N        -21.2430   -8.2260  -15.2970 N.am  135  PRO135     -0.2727
     75  CA       -19.9530   -7.4720  -15.4120 C.3   135  PRO135      0.1402
     76  C        -20.0730   -6.1810  -16.2500 C.2   135  PRO135      0.2269
     77  O        -20.7450   -6.1570  -17.2660 O.2   135  PRO135     -0.2865
     78  CB       -19.0130   -8.4920  -16.0520 C.3   135  PRO135      0.0296
     79  CG       -19.9320   -9.4030  -16.8020 C.3   135  PRO135      0.0237
     80  CD       -21.1690   -9.5430  -15.9470 C.3   135  PRO135      0.0939
     81  N        -29.9420  -15.5910  -18.6820 N.3   220  SER220     -0.1202
     82  CA       -28.9080  -14.5890  -18.4650 C.3   220  SER220      0.2020
     83  C        -29.5580  -13.3480  -17.8990 C.2   220  SER220      0.2618
     84  O        -30.8040  -13.2430  -17.8700 O.2   220  SER220     -0.2717
     85  CB       -28.1510  -14.2330  -19.7780 C.3   220  SER220      0.2103
     86  OG       -29.0440  -13.6060  -20.6890 O.3   220  SER220     -0.2182
     87  N        -28.7070  -12.4130  -17.5120 N.am  221  HIS221     -0.1975
     88  CA       -29.1120  -11.1230  -16.9540 C.3   221  HIS221      0.1656
     89  C        -29.0560  -10.0230  -18.0270 C.2   221  HIS221      0.2291
     90  O        -28.1220  -10.0080  -18.8110 O.2   221  HIS221     -0.2864
     91  CB       -28.1730  -10.7550  -15.8210 C.3   221  HIS221      0.0771
     92  CG       -28.1750  -11.7330  -14.6900 C.ar  221  HIS221      0.0820
     93  ND1      -27.3520  -12.8430  -14.6540 N.ar  221  HIS221     -0.2267
     94  CD2      -28.8890  -11.7520  -13.5380 C.ar  221  HIS221      0.1154
     95  CE1      -27.5770  -13.5050  -13.5330 C.ar  221  HIS221      0.1986
     96  NE2      -28.5000  -12.8590  -12.8410 N.ar  221  HIS221     -0.2212
@<TRIPOS>BOND
     1    86    85    1
     2    85    82    1
     3    36    35    1
     4    90    89    2
     5    33    34    1
     6    33    32    1
     7    81    82    1
     8    82    83    1
     9    35    34    2
    10    35    37    1
    11    89    88    1
    12    32    31    1
    13    83    84    2
    14    83    87   am
    15    31    28    1
    16    87    88    1
    17    27    28    1
    18    77    76    2
    19    88    91    1
    20    28    29    1
    21    79    78    1
    22    79    80    1
    23    25    24    1
    24    76    75    1
    25    78    75    1
    26    80    74    1
    27    72    71    2
    28    91    92    1
    29    26    24    1
    30    23    22    2
    31    75    74    1
    32    29    38   am
    33    29    30    2
    34    74    68   am
    35    24    21    1
    36    22    21    1
    37    12    14   ar
    38    12    10   ar
    39    67    68    1
    40    67    70    1
    41    67    66    1
    42    68    69    2
    43    38    39    1
    44    71    70    1
    45    71    73   am
    46    41    40    2
    47    92    93   ar
    48    92    94   ar
    49    93    95   ar
    50    14    13   ar
    51    21    20    1
    52     9    10   ar
    53     9     7   ar
    54    66    61   am
    55    10     8   ar
    56    40    39    1
    57    40    44   am
    58    39    42    1
    59    94    96   ar
    60    95    96   ar
    61    13    11   ar
    62    51    50    2
    63     7     6   ar
    64    44    45    1
    65    61    62    2
    66    61    60    1
    67    45    46    1
    68     8    11   ar
    69     8     6   ar
    70    43    42    1
    71    60    59    1
    72    60    63    1
    73     6     5    1
    74    64    63    1
    75    50    59   am
    76    50    49    1
    77    46    48   am
    78    46    47    2
    79    48    49    1
    80    18    17    2
    81    63    65    1
    82     1     2    1
    83    49    52    1
    84     5     2    1
    85     2     3    1
    86    17    16    1
    87    52    53    1
    88    19    16    1
    89    16    15    1
    90     3     4    2
    91    53    54    1
    92    54    55    1
    93    55    56    2
    94    57    56    1
    95    56    58    1
