@<TRIPOS>MOLECULE
tmp/6euiA01.pdb
 137 133 0 0 0
SMALL
GASTEIGER

@<TRIPOS>ATOM
      1  N        -31.0830  -28.6120   -1.6650 N.3    34  GLU34      -0.1245
      2  CA       -29.7210  -29.1470   -1.4870 C.3    34  GLU34       0.1567
      3  C        -29.8060  -30.5600   -0.9640 C.2    34  GLU34       0.2260
      4  O        -30.5030  -30.8180    0.0200 O.2    34  GLU34      -0.2867
      5  CB       -28.9600  -28.3270   -0.4470 C.3    34  GLU34       0.0388
      6  CG       -28.7610  -26.8620   -0.8010 C.3    34  GLU34       0.1160
      7  CD       -28.7190  -25.9240    0.4090 C.2    34  GLU34       0.3649
      8  OE1      -28.8690  -24.6880    0.2110 O.co2  34  GLU34      -0.2457
      9  OE2      -28.5290  -26.4120    1.5690 O.co2  34  GLU34      -0.2457
     10  N        -27.8600  -32.6790    1.2370 N.3    36  ARG36      -0.1245
     11  CA       -26.7860  -32.4820    2.1990 C.3    36  ARG36       0.1563
     12  C        -26.3340  -33.8600    2.6890 C.2    36  ARG36       0.2260
     13  O        -27.1700  -34.7300    3.0050 O.2    36  ARG36      -0.2867
     14  CB       -27.2400  -31.6020    3.3800 C.3    36  ARG36       0.0307
     15  CG       -27.4590  -30.1500    3.0050 C.3    36  ARG36       0.0489
     16  CD       -26.1640  -29.3730    2.8610 C.3    36  ARG36       0.2205
     17  NE       -26.4060  -27.9470    2.6160 N.pl3  36  ARG36      -0.0865
     18  CZ       -25.4460  -27.0240    2.5280 C.cat  36  ARG36       0.5346
     19  NH1      -25.7770  -25.7590    2.3230 N.pl3  36  ARG36       0.1354
     20  NH2      -24.1570  -27.3440    2.6960 N.pl3  36  ARG36       0.1354
     21  N        -25.8280  -24.2570   -3.2830 N.3    82  GLU82      -0.1231
     22  CA       -26.8250  -23.8360   -2.2860 C.3    82  GLU82       0.1699
     23  C        -28.0350  -23.1050   -2.8850 C.2    82  GLU82       0.2592
     24  O        -27.9800  -22.4860   -3.9540 O.2    82  GLU82      -0.2718
     25  CB       -26.1980  -22.9420   -1.1990 C.3    82  GLU82       0.0402
     26  CG       -25.0870  -23.6200   -0.3860 C.3    82  GLU82       0.1161
     27  CD       -24.5730  -22.8070    0.7730 C.2    82  GLU82       0.3649
     28  OE1      -24.7870  -21.5540    0.7770 O.co2  82  GLU82      -0.2457
     29  OE2      -23.9140  -23.4450    1.6570 O.co2  82  GLU82      -0.2457
     30  N        -29.1170  -23.1710   -2.1330 N.am   83  ARG83      -0.1980
     31  CA       -30.3500  -22.4070   -2.4040 C.3    83  ARG83       0.1597
     32  C        -30.8780  -22.4410   -3.8520 C.2    83  ARG83       0.2287
     33  O        -31.2200  -21.4310   -4.4510 O.2    83  ARG83      -0.2864
     34  CB       -30.1830  -20.9970   -1.8560 C.3    83  ARG83       0.0334
     35  CG       -29.9620  -20.9820   -0.3500 C.3    83  ARG83       0.0492
     36  CD       -29.9470  -19.5440    0.2530 C.3    83  ARG83       0.2205
     37  NE       -29.7440  -19.6120    1.7130 N.pl3  83  ARG83      -0.0865
     38  CZ       -30.6940  -19.9540    2.5950 C.cat  83  ARG83       0.5346
     39  NH1      -31.9390  -20.1960    2.2010 N.pl3  83  ARG83       0.1354
     40  NH2      -30.4090  -19.9830    3.9040 N.pl3  83  ARG83       0.1354
     41  N        -26.7700  -20.8850   -5.9910 N.3   100  HIS100     -0.1241
     42  CA       -25.5510  -20.3470   -5.4720 C.3   100  HIS100      0.1621
     43  C        -24.4440  -21.4150   -5.6130 C.2   100  HIS100      0.2264
     44  O        -24.5450  -22.4830   -5.0650 O.2   100  HIS100     -0.2867
     45  CB       -25.7910  -19.9360   -4.0130 C.3   100  HIS100      0.0745
     46  CG       -24.5720  -19.5150   -3.2530 C.ar  100  HIS100      0.0817
     47  ND1      -24.5560  -19.4900   -1.8720 N.ar  100  HIS100     -0.2268
     48  CD2      -23.3600  -19.0610   -3.6530 C.ar  100  HIS100      0.1154
     49  CE1      -23.3580  -19.1190   -1.4600 C.ar  100  HIS100      0.1986
     50  NE2      -22.6250  -18.8130   -2.5170 N.ar  100  HIS100     -0.2212
     51  N        -16.1010  -19.7820    0.3660 N.3   108  TYR108     -0.1241
     52  CA       -17.2020  -18.9470   -0.1540 C.3   108  TYR108      0.1605
     53  C        -16.6970  -17.7190   -0.9300 C.2   108  TYR108      0.2264
     54  O        -17.4430  -16.7660   -1.1520 O.2   108  TYR108     -0.2867
     55  CB       -18.1300  -18.5140    1.0030 C.3   108  TYR108      0.0534
     56  CG       -19.0560  -19.6150    1.4620 C.ar  108  TYR108     -0.0201
     57  CD1      -18.6600  -20.5290    2.4270 C.ar  108  TYR108     -0.0009
     58  CD2      -20.3280  -19.7540    0.9150 C.ar  108  TYR108     -0.0009
     59  CE1      -19.4960  -21.5610    2.8340 C.ar  108  TYR108      0.0417
     60  CE2      -21.1890  -20.7630    1.3190 C.ar  108  TYR108      0.0417
     61  CZ       -20.7830  -21.6740    2.2810 C.ar  108  TYR108      0.1957
     62  OH       -21.6230  -22.6920    2.6940 O.3   108  TYR108     -0.2866
     63  N        -26.5570  -15.9620   -1.1690 N.3   186  ASP186     -0.1239
     64  CA       -27.9500  -16.3710   -0.9640 C.3   186  ASP186      0.1674
     65  C        -28.7950  -15.7140   -2.0550 C.2   186  ASP186      0.2266
     66  O        -28.5540  -14.5610   -2.3720 O.2   186  ASP186     -0.2867
     67  CB       -28.5100  -15.9520    0.3870 C.3   186  ASP186      0.1410
     68  CG       -27.9030  -16.7030    1.5610 C.2   186  ASP186      0.3668
     69  OD1      -27.0080  -17.5710    1.3870 O.co2 186  ASP186     -0.2456
     70  OD2      -28.3650  -16.3960    2.6920 O.co2 186  ASP186     -0.2456
     71  N        -30.1070  -11.5020    4.1370 N.3   235  GLU235     -0.1245
     72  CA       -29.7680  -12.7890    3.5450 C.3   235  GLU235      0.1567
     73  C        -31.0130  -13.6580    3.3470 C.2   235  GLU235      0.2260
     74  O        -32.1420  -13.2660    3.6820 O.2   235  GLU235     -0.2867
     75  CB       -28.7040  -13.5200    4.3960 C.3   235  GLU235      0.0388
     76  CG       -27.6220  -12.6200    5.0280 C.3   235  GLU235      0.1160
     77  CD       -26.7440  -11.8830    4.0320 C.2   235  GLU235      0.3649
     78  OE1      -26.4230  -12.4490    2.9390 O.co2 235  GLU235     -0.2457
     79  OE2      -26.3650  -10.7070    4.3420 O.co2 235  GLU235     -0.2457
     80  N        -31.0770  -12.0210    8.9090 N.3   252  GLY252     -0.1210
     81  CA       -29.7400  -11.4090    9.1220 C.3   252  GLY252      0.1956
     82  C        -28.5960  -12.3010    8.6690 C.2   252  GLY252      0.2612
     83  O        -28.8180  -13.3540    8.0730 O.2   252  GLY252     -0.2717
     84  N        -27.3480  -11.8670    8.9320 N.am  253  CYS253     -0.1956
     85  CA       -26.1450  -12.5670    8.4730 C.3   253  CYS253      0.1843
     86  C        -25.3700  -13.1130    9.6990 C.2   253  CYS253      0.2626
     87  O        -24.5020  -12.4270   10.2160 O.2   253  CYS253     -0.2714
     88  CB       -25.2560  -11.6070    7.6490 C.3   253  CYS253      0.0997
     89  SG       -23.9440  -12.4040    6.6990 S.3   253  CYS253     -0.0797
     90  N        -25.7210  -14.3270   10.1440 N.am  254  THR254     -0.1936
     91  CA       -25.0910  -14.9750   11.3220 C.3   254  THR254      0.2028
     92  C        -24.8060  -16.4480   11.0510 C.2   254  THR254      0.2643
     93  O        -25.0320  -17.3140   11.9040 O.2   254  THR254     -0.2714
     94  CB       -25.9420  -14.7880   12.6100 C.3   254  THR254      0.1808
     95  OG1      -27.2770  -15.3510   12.4740 O.3   254  THR254     -0.2208
     96  CG2      -26.0570  -13.3120   12.9620 C.3   254  THR254      0.0379
     97  N        -24.2950  -16.7240    9.8520 N.am  255  GLY255     -0.1939
     98  CA       -23.9380  -18.0830    9.4680 C.3   255  GLY255      0.2014
     99  C        -25.1330  -19.0210    9.6070 C.2   255  GLY255      0.2638
    100  O        -26.2300  -18.7140    9.1010 O.2   255  GLY255     -0.2714
    101  N        -24.9270  -20.1470   10.3000 N.am  256  TRP256     -0.1973
    102  CA       -26.0050  -21.1300   10.5510 C.3   256  TRP256      0.1640
    103  C        -26.8820  -20.7990   11.7690 C.2   256  TRP256      0.2290
    104  O        -27.8890  -21.4730   12.0150 O.2   256  TRP256     -0.2864
    105  CB       -25.4220  -22.5180   10.7560 C.3   256  TRP256      0.0576
    106  CG       -24.5600  -22.9970    9.6720 C.ar  256  TRP256      0.0006
    107  CD1      -23.1990  -23.1590    9.7200 C.ar  256  TRP256      0.0946
    108  CD2      -24.9700  -23.4390    8.3720 C.ar  256  TRP256      0.0152
    109  NE1      -22.7390  -23.6570    8.5250 N.ar  256  TRP256     -0.2442
    110  CE2      -23.8010  -23.8510    7.6820 C.ar  256  TRP256      0.0810
    111  CE3      -26.2040  -23.5320    7.7270 C.ar  256  TRP256      0.0012
    112  CZ2      -23.8300  -24.3380    6.3640 C.ar  256  TRP256      0.0191
    113  CZ3      -26.2400  -24.0240    6.4050 C.ar  256  TRP256      0.0001
    114  CH2      -25.0630  -24.4040    5.7410 C.ar  256  TRP256      0.0015
    115  N        -34.5480  -20.3160    9.3270 N.3   292  GLN292     -0.1245
    116  CA       -34.0920  -19.2810    8.3910 C.3   292  GLN292      0.1566
    117  C        -34.9210  -19.4240    7.1050 C.2   292  GLN292      0.2260
    118  O        -35.0460  -20.5390    6.5560 O.2   292  GLN292     -0.2867
    119  CB       -32.6250  -19.4580    8.0410 C.3   292  GLN292      0.0367
    120  CG       -32.0340  -18.3270    7.1930 C.3   292  GLN292      0.0905
    121  CD       -30.5590  -18.5240    6.8590 C.2   292  GLN292      0.2608
    122  OE1      -30.0800  -19.6750    6.7440 O.2   292  GLN292     -0.2717
    123  NE2      -29.8390  -17.3850    6.5930 N.am  292  GLN292     -0.0878
    124  N        -31.5650  -25.3110   10.5730 N.3   312  TRP312     -0.1241
    125  CA       -30.2520  -25.8220   10.2290 C.3   312  TRP312      0.1605
    126  C        -29.5850  -26.5250   11.4040 C.2   312  TRP312      0.2264
    127  O        -29.7130  -26.0680   12.5240 O.2   312  TRP312     -0.2867
    128  CB       -29.3400  -24.7060    9.7600 C.3   312  TRP312      0.0550
    129  CG       -29.7260  -24.0680    8.4610 C.ar  312  TRP312      0.0003
    130  CD1      -30.1140  -22.7790    8.2900 C.ar  312  TRP312      0.0946
    131  CD2      -29.6830  -24.6530    7.1670 C.ar  312  TRP312      0.0152
    132  NE1      -30.3510  -22.5240    6.9810 N.ar  312  TRP312     -0.2442
    133  CE2      -30.0990  -23.6540    6.2520 C.ar  312  TRP312      0.0810
    134  CE3      -29.3640  -25.9220    6.6810 C.ar  312  TRP312      0.0012
    135  CZ2      -30.1880  -23.8770    4.8760 C.ar  312  TRP312      0.0191
    136  CZ3      -29.4590  -26.1540    5.2980 C.ar  312  TRP312      0.0001
    137  CH2      -29.8580  -25.1210    4.4050 C.ar  312  TRP312      0.0015
@<TRIPOS>BOND
     1    41    42    1
     2    43    42    1
     3    43    44    2
     4    42    45    1
     5    33    32    2
     6    45    46    1
     7    24    23    2
     8    32    31    1
     9    48    46   ar
    10    48    50   ar
    11    21    22    1
    12    46    47   ar
    13    23    22    1
    14    23    30   am
    15    50    49   ar
    16    31    30    1
    17    31    34    1
    18    66    65    2
    19    22    25    1
    20    65    64    1
    21    47    49   ar
    22    34    35    1
    23     1     2    1
    24     2     3    1
    25     2     5    1
    26    25    26    1
    27    63    64    1
    28    54    53    2
    29     3     4    2
    30    64    67    1
    31    53    52    1
    32     6     5    1
    33     6     7    1
    34    26    27    1
    35    35    36    1
    36    52    51    1
    37    52    55    1
    38     8     7   ar
    39    36    37    1
    40    67    68    1
    41     7     9   ar
    42    27    28   ar
    43    27    29   ar
    44    58    60   ar
    45    58    56   ar
    46    55    56    1
    47    10    11    1
    48    60    61   ar
    49    69    68   ar
    50    56    57   ar
    51    68    70   ar
    52    37    38    2
    53    11    12    1
    54    11    14    1
    55    39    38    1
    56    61    62    1
    57    61    59   ar
    58    19    18    1
    59    57    59   ar
    60    18    17    2
    61    18    20    1
    62    38    40    1
    63    17    16    1
    64    12    13    2
    65    16    15    1
    66    78    77   ar
    67    15    14    1
    68    73    72    1
    69    73    74    2
    70    72    71    1
    71    72    75    1
    72    77    79   ar
    73    77    76    1
    74    75    76    1
    75   137   135   ar
    76   137   136   ar
    77   135   133   ar
    78   136   134   ar
    79   114   112   ar
    80   114   113   ar
    81   133   132   ar
    82   133   131   ar
    83   112   110   ar
    84   113   111   ar
    85   118   117    2
    86   123   121   am
    87   134   131   ar
    88    89    88    1
    89   122   121    2
    90   121   120    1
    91   132   130   ar
    92   117   116    1
    93   131   129   ar
    94   120   119    1
    95    88    85    1
    96   110   108   ar
    97   110   109   ar
    98   111   108   ar
    99   119   116    1
   100    83    82    2
   101   130   129   ar
   102   108   106   ar
   103   116   115    1
   104   129   128    1
   105    85    84    1
   106    85    86    1
   107   109   107   ar
   108    82    84   am
   109    82    81    1
   110    80    81    1
   111   100    99    2
   112    98    99    1
   113    98    97    1
   114    99   101   am
   115   106   107   ar
   116   106   105    1
   117    86    90   am
   118    86    87    2
   119   128   125    1
   120    97    92   am
   121    90    91    1
   122   125   124    1
   123   125   126    1
   124   101   102    1
   125   102   105    1
   126   102   103    1
   127    92    91    1
   128    92    93    2
   129    91    94    1
   130   126   127    2
   131   103   104    2
   132    95    94    1
   133    94    96    1
