@<TRIPOS>MOLECULE
tmp/6eumA00.pdb
 120 118 0 0 0
SMALL
GASTEIGER

@<TRIPOS>ATOM
      1  N         64.1240   19.1900   20.4890 N.3    29  PHE29      -0.1241
      2  CA        63.3220   19.5010   21.6700 C.3    29  PHE29       0.1605
      3  C         64.0030   20.6230   22.4510 C.2    29  PHE29       0.2264
      4  O         64.9760   20.3870   23.1810 O.2    29  PHE29      -0.2867
      5  CB        63.1290   18.2500   22.5150 C.3    29  PHE29       0.0534
      6  CG        62.3930   17.1660   21.7930 C.ar   29  PHE29      -0.0203
      7  CD1       61.0090   17.1100   21.8320 C.ar   29  PHE29      -0.0042
      8  CD2       63.0760   16.2430   21.0450 C.ar   29  PHE29      -0.0042
      9  CE1       60.3230   16.1270   21.1580 C.ar   29  PHE29      -0.0003
     10  CE2       62.4070   15.2610   20.3660 C.ar   29  PHE29      -0.0003
     11  CZ        61.0190   15.2000   20.4220 C.ar   29  PHE29      -0.0000
     12  N         59.5670   10.2260   15.9000 N.3    54  TRP54      -0.1241
     13  CA        59.0250   11.2060   16.8560 C.3    54  TRP54       0.1605
     14  C         57.7330   11.8230   16.4170 C.2    54  TRP54       0.2264
     15  O         56.9650   12.2760   17.2880 O.2    54  TRP54      -0.2867
     16  CB        60.0470   12.3510   17.0140 C.3    54  TRP54       0.0550
     17  CG        61.3570   11.9350   17.6030 C.ar   54  TRP54       0.0003
     18  CD1       62.5580   11.6840   16.9220 C.ar   54  TRP54       0.0946
     19  CD2       61.6570   11.8040   18.9930 C.ar   54  TRP54       0.0152
     20  NE1       63.5420   11.4140   17.8220 N.ar   54  TRP54      -0.2442
     21  CE2       63.0150   11.4380   19.1090 C.ar   54  TRP54       0.0810
     22  CE3       60.8880   11.9310   20.1480 C.ar   54  TRP54       0.0012
     23  CZ2       63.6410   11.2800   20.3620 C.ar   54  TRP54       0.0191
     24  CZ3       61.5280   11.7770   21.3920 C.ar   54  TRP54       0.0001
     25  CH2       62.8690   11.4040   21.4760 C.ar   54  TRP54       0.0015
     26  N         56.7980    0.5810   22.4070 N.3    81  HIS81      -0.1241
     27  CA        56.1010    1.1450   23.5780 C.3    81  HIS81       0.1621
     28  C         55.3760    2.3930   23.1180 C.2    81  HIS81       0.2264
     29  O         55.5200    2.8220   21.9810 O.2    81  HIS81      -0.2867
     30  CB        56.9450    1.3660   24.8320 C.3    81  HIS81       0.0745
     31  CG        58.0020    2.4040   24.7800 C.ar   81  HIS81       0.0817
     32  ND1       59.2270    2.2030   24.2150 N.ar   81  HIS81      -0.2268
     33  CD2       58.0650    3.6280   25.3490 C.ar   81  HIS81       0.1154
     34  CE1       59.9660    3.2860   24.4000 C.ar   81  HIS81       0.1986
     35  NE2       59.2870    4.1810   25.0830 N.ar   81  HIS81      -0.2212
     36  N         55.5080    5.7190   23.8450 N.3    83  HIS83      -0.1226
     37  CA        56.0950    7.0740   23.8560 C.3    83  HIS83       0.1752
     38  C         56.2850    7.6070   22.4130 C.2    83  HIS83       0.2596
     39  O         56.4180    6.8480   21.4530 O.2    83  HIS83      -0.2718
     40  CB        57.4640    7.0850   24.5670 C.3    83  HIS83       0.0759
     41  CG        57.3800    6.9880   26.0570 C.ar   83  HIS83       0.0818
     42  ND1       58.5020    6.6010   26.7980 N.ar   83  HIS83      -0.2268
     43  CD2       56.4240    7.3570   26.9560 C.ar   83  HIS83       0.1154
     44  CE1       58.1770    6.7750   28.0630 C.ar   83  HIS83       0.1986
     45  NE2       56.9480    7.2050   28.2050 N.ar   83  HIS83      -0.2212
     46  N         56.4490    8.9290   22.2790 N.am   84  ALA84      -0.1966
     47  CA        56.4580    9.6110   20.9920 C.3    84  ALA84       0.1728
     48  C         57.5850    9.1140   20.0670 C.2    84  ALA84       0.2616
     49  O         57.3670    9.0660   18.8550 O.2    84  ALA84      -0.2715
     50  CB        56.5940   11.1180   21.1840 C.3    84  ALA84       0.0334
     51  N         58.7670    8.7880   20.5970 N.am   85  ASP85      -0.1971
     52  CA        59.8500    8.3150   19.7210 C.3    85  ASP85       0.1709
     53  C         59.4630    7.0490   18.9880 C.2    85  ASP85       0.2293
     54  O         59.9590    6.8190   17.8810 O.2    85  ASP85      -0.2864
     55  CB        61.1910    8.1730   20.5060 C.3    85  ASP85       0.1436
     56  CG        61.2010    7.1940   21.6590 C.2    85  ASP85       0.3671
     57  OD1       60.1090    7.0010   22.2820 O.co2  85  ASP85      -0.2456
     58  OD2       62.2750    6.5820   21.9880 O.co2  85  ASP85      -0.2456
     59  N         61.6610    0.5120   31.4220 N.3   144  HIS144     -0.1241
     60  CA        61.5730    1.8890   31.0000 C.3   144  HIS144      0.1621
     61  C         60.1340    2.4070   30.9740 C.2   144  HIS144      0.2264
     62  O         59.8760    3.5260   31.3870 O.2   144  HIS144     -0.2867
     63  CB        62.2160    2.0180   29.6240 C.3   144  HIS144      0.0745
     64  CG        61.9110    3.2740   28.9020 C.ar  144  HIS144      0.0817
     65  ND1       62.4130    4.4770   29.2690 N.ar  144  HIS144     -0.2268
     66  CD2       61.0710    3.5140   27.8570 C.ar  144  HIS144      0.1154
     67  CE1       61.9380    5.4200   28.4560 C.ar  144  HIS144      0.1986
     68  NE2       61.0820    4.8860   27.5880 N.ar  144  HIS144     -0.2212
     69  N         69.8440    0.8480   27.6650 N.3   165  LYS165     -0.1245
     70  CA        70.6250    2.0500   27.5180 C.3   165  LYS165      0.1561
     71  C         71.9070    1.8080   26.7510 C.2   165  LYS165      0.2260
     72  O         72.5770    0.7840   26.9050 O.2   165  LYS165     -0.2867
     73  CB        70.9470    2.6260   28.8860 C.3   165  LYS165      0.0271
     74  CG        69.7080    2.8310   29.8110 C.3   165  LYS165      0.0035
     75  CD        68.6220    3.6610   29.2970 C.3   165  LYS165      0.0206
     76  CE        68.9000    5.0280   29.1180 C.3   165  LYS165      0.1093
     77  NZ        67.6420    5.8170   28.7080 N.3   165  LYS165     -0.1314
     78  N         69.4690    6.8260   33.8040 N.3   172  LEU172     -0.1231
     79  CA        68.3360    6.1420   33.2240 C.3   172  LEU172      0.1693
     80  C         67.4640    7.0150   32.3560 C.2   172  LEU172      0.2593
     81  O         66.5430    6.4840   31.6990 O.2   172  LEU172     -0.2718
     82  CB        67.5100    5.5090   34.3260 C.3   172  LEU172      0.0284
     83  CG        68.2600    4.4240   35.0910 C.3   172  LEU172      0.0019
     84  CD1       67.4140    4.0970   36.3410 C.3   172  LEU172      0.0001
     85  CD2       68.4510    3.2240   34.2030 C.3   172  LEU172      0.0001
     86  N         67.7050    8.3170   32.3420 N.am  173  GLY173     -0.1942
     87  CA        66.8770    9.2190   31.5850 C.3   173  GLY173      0.2014
     88  C         65.5320    9.4810   32.2430 C.2   173  GLY173      0.2638
     89  O         65.4120    9.5230   33.4640 O.2   173  GLY173     -0.2714
     90  N         64.5020    9.6680   31.4370 N.am  174  ASN174     -0.1972
     91  CA        63.2070   10.0250   31.9930 C.3   174  ASN174      0.1688
     92  C         62.5660    8.7740   32.5820 C.2   174  ASN174      0.2292
     93  O         62.2640    7.8120   31.8720 O.2   174  ASN174     -0.2864
     94  CB        62.3500   10.6260   30.8880 C.3   174  ASN174      0.1181
     95  CG        61.0680   11.2180   31.4090 C.2   174  ASN174      0.2629
     96  OD1       60.4290   10.6120   32.1890 O.2   174  ASN174     -0.2716
     97  ND2       60.6890   12.3970   30.9520 N.am  174  ASN174     -0.0877
     98  N         59.7380    8.9630   34.5780 N.3   176  ALA176     -0.1231
     99  CA        58.3770    9.2330   35.0180 C.3   176  ALA176      0.1694
    100  C         57.4550    8.0460   34.8390 C.2   176  ALA176      0.2592
    101  O         56.5890    7.7980   35.6930 O.2   176  ALA176     -0.2718
    102  CB        57.8020   10.4240   34.2680 C.3   176  ALA176      0.0304
    103  N         57.6130    7.2880   33.7570 N.am  177  ASP177     -0.1974
    104  CA        56.7770    6.1710   33.4500 C.3   177  ASP177      0.1709
    105  C         57.4680    4.8480   33.7040 C.2   177  ASP177      0.2293
    106  O         56.9290    3.8050   33.3130 O.2   177  ASP177     -0.2864
    107  CB        56.3440    6.2590   31.9910 C.3   177  ASP177      0.1436
    108  CG        55.5070    7.5040   31.6770 C.2   177  ASP177      0.3671
    109  OD1       54.7510    7.9450   32.5320 O.co2 177  ASP177     -0.2456
    110  OD2       55.6120    7.9870   30.5270 O.co2 177  ASP177     -0.2456
    111  N         68.1890    4.5580   21.9220 N.3   204  HIS204     -0.1241
    112  CA        68.9400    5.7700   21.6660 C.3   204  HIS204      0.1621
    113  C         70.4150    5.4020   21.7800 C.2   204  HIS204      0.2264
    114  O         70.8080    4.7450   22.7330 O.2   204  HIS204     -0.2867
    115  CB        68.5480    6.9140   22.7010 C.3   204  HIS204      0.0745
    116  CG        67.0410    7.1130   22.7840 C.ar  204  HIS204      0.0817
    117  ND1       66.3200    7.9400   21.9530 N.ar  204  HIS204     -0.2268
    118  CD2       66.1000    6.5170   23.5700 C.ar  204  HIS204      0.1154
    119  CE1       65.0340    7.8350   22.2500 C.ar  204  HIS204      0.1986
    120  NE2       64.8610    6.9910   23.2320 N.ar  204  HIS204     -0.2212
@<TRIPOS>BOND
     1    12    13    1
     2    14    13    1
     3    14    15    2
     4    13    16    1
     5    18    17   ar
     6    18    20   ar
     7    16    17    1
     8    17    19   ar
     9    20    21   ar
    10    54    53    2
    11    49    48    2
    12    53    52    1
    13    19    21   ar
    14    19    22   ar
    15    21    23   ar
    16    52    55    1
    17    52    51    1
    18    48    51   am
    19    48    47    1
    20    22    24   ar
    21    23    25   ar
    22    10    11   ar
    23    10     8   ar
    24    11     9   ar
    25     1     2    1
    26    55    56    1
    27    47    50    1
    28    47    46    1
    29     8     6   ar
    30     9     7   ar
    31    24    25   ar
    32    39    38    2
    33    56    58   ar
    34    56    57   ar
    35   112   113    1
    36   112   111    1
    37   112   115    1
    38     2     3    1
    39     2     5    1
    40   113   114    2
    41     6     7   ar
    42     6     5    1
    43   117   119   ar
    44   117   116   ar
    45    29    28    2
    46   119   120   ar
    47    46    38   am
    48    26    27    1
    49    38    37    1
    50     3     4    2
    51   115   116    1
    52   116   118   ar
    53    28    27    1
    54   120   118   ar
    55    27    30    1
    56    36    37    1
    57    37    40    1
    58    32    34   ar
    59    32    31   ar
    60    34    35   ar
    61    40    41    1
    62    31    30    1
    63    31    33   ar
    64    35    33   ar
    65    41    42   ar
    66    41    43   ar
    67    71    72    2
    68    71    70    1
    69    42    44   ar
    70    43    45   ar
    71    70    69    1
    72    70    73    1
    73    68    66   ar
    74    68    67   ar
    75    66    64   ar
    76    44    45   ar
    77    67    65   ar
    78    77    76    1
    79    73    74    1
    80    64    65   ar
    81    64    63    1
    82    76    75    1
    83    75    74    1
    84    63    60    1
    85   110   108   ar
    86    94    95    1
    87    94    91    1
    88    97    95   am
    89    61    60    1
    90    61    62    2
    91    60    59    1
    92    95    96    2
    93    90    91    1
    94    90    88   am
    95    87    88    1
    96    87    86    1
    97   108   107    1
    98   108   109   ar
    99    81    80    2
   100    93    92    2
   101   107   104    1
   102    91    92    1
   103    88    89    2
   104    86    80   am
   105    80    79    1
   106    79    78    1
   107    79    82    1
   108   106   105    2
   109   104   105    1
   110   104   103    1
   111   103   100   am
   112    85    83    1
   113   102    99    1
   114    82    83    1
   115    98    99    1
   116   100    99    1
   117   100   101    2
   118    83    84    1
