@<TRIPOS>MOLECULE
tmp/6euoB00.pdb
 125 119 0 0 0
SMALL
GASTEIGER

@<TRIPOS>ATOM
      1  N        -13.6520   79.4300   -8.5390 N.3    94  TRP94      -0.1241
      2  CA       -13.5720   78.2780   -7.6250 C.3    94  TRP94       0.1605
      3  C        -14.9200   77.5950   -7.3580 C.2    94  TRP94       0.2264
      4  O        -14.9430   76.4010   -7.0510 O.2    94  TRP94      -0.2867
      5  CB       -12.8620   78.6290   -6.3000 C.3    94  TRP94       0.0550
      6  CG       -13.5550   79.6320   -5.4230 C.ar   94  TRP94       0.0003
      7  CD1      -13.2420   80.9530   -5.2910 C.ar   94  TRP94       0.0946
      8  CD2      -14.5940   79.3670   -4.4610 C.ar   94  TRP94       0.0152
      9  NE1      -14.0600   81.5440   -4.3530 N.ar   94  TRP94      -0.2442
     10  CE2      -14.9050   80.5950   -3.8320 C.ar   94  TRP94       0.0810
     11  CE3      -15.3270   78.2180   -4.1010 C.ar   94  TRP94       0.0012
     12  CZ2      -15.9180   80.7080   -2.8660 C.ar   94  TRP94       0.0191
     13  CZ3      -16.3300   78.3320   -3.1480 C.ar   94  TRP94       0.0001
     14  CH2      -16.6180   79.5640   -2.5430 C.ar   94  TRP94       0.0015
     15  N        -12.6580   81.1430    5.6520 N.3   126  GLN126     -0.1231
     16  CA       -12.3400   80.8780    4.2550 C.3   126  GLN126      0.1698
     17  C        -13.4770   80.1240    3.5740 C.2   126  GLN126      0.2592
     18  O        -13.5960   78.9100    3.7360 O.2   126  GLN126     -0.2718
     19  CB       -10.9910   80.1280    4.1080 C.3   126  GLN126      0.0381
     20  CG        -9.8140   80.9120    4.6800 C.3   126  GLN126      0.0905
     21  CD        -8.5270   80.6580    3.9400 C.2   126  GLN126      0.2608
     22  OE1       -8.3970   80.9260    2.7340 O.2   126  GLN126     -0.2717
     23  NE2       -7.5240   80.1970    4.6690 N.am  126  GLN126     -0.0878
     24  N        -14.3120   80.8630    2.8130 N.am  127  ARG127     -0.1980
     25  CA       -15.4350   80.3400    2.0100 C.3   127  ARG127      0.1597
     26  C        -16.4830   79.5820    2.8440 C.2   127  ARG127      0.2287
     27  O        -17.1180   78.6450    2.3390 O.2   127  ARG127     -0.2864
     28  CB       -14.9340   79.4510    0.8390 C.3   127  ARG127      0.0334
     29  CG       -13.7330   79.9660    0.0510 C.3   127  ARG127      0.0492
     30  CD       -13.2680   78.8800   -0.8880 C.3   127  ARG127      0.2205
     31  NE       -12.1530   79.3220   -1.7160 N.pl3 127  ARG127     -0.0865
     32  CZ       -11.6500   78.6280   -2.7330 C.cat 127  ARG127      0.5346
     33  NH1      -12.1710   77.4470   -3.0660 N.pl3 127  ARG127      0.1354
     34  NH2      -10.6320   79.1140   -3.4350 N.pl3 127  ARG127      0.1354
     35  N         -8.0890   76.8430   -6.1370 N.3   136  VAL136     -0.1245
     36  CA        -7.6340   78.2310   -6.2610 C.3   136  VAL136      0.1561
     37  C         -7.5610   78.5130   -7.7850 C.2   136  VAL136      0.2260
     38  O         -6.6710   78.0090   -8.4760 O.2   136  VAL136     -0.2867
     39  CB        -6.2940   78.4600   -5.5100 C.3   136  VAL136      0.0252
     40  CG1       -5.7750   79.8790   -5.7250 C.3   136  VAL136      0.0019
     41  CG2       -6.4290   78.1300   -4.0180 C.3   136  VAL136      0.0019
     42  N         -6.5680   88.3070   -3.6350 N.3   147  THR147     -0.1203
     43  CA        -7.0460   86.9710   -3.2440 C.3   147  THR147      0.1994
     44  C         -6.4740   85.9060   -4.2060 C.2   147  THR147      0.2618
     45  O         -5.8260   86.2540   -5.1980 O.2   147  THR147     -0.2717
     46  CB        -8.6010   86.9200   -3.2300 C.3   147  THR147      0.1784
     47  OG1       -9.1210   87.3000   -4.5080 O.3   147  THR147     -0.2211
     48  CG2       -9.2300   87.7440   -2.1100 C.3   147  THR147      0.0376
     49  N         -6.7500   84.6330   -3.9140 N.am  148  GLY148     -0.1942
     50  CA        -6.3510   83.4930   -4.7360 C.3   148  GLY148      0.2014
     51  C         -7.0470   83.4820   -6.0840 C.2   148  GLY148      0.2639
     52  O         -6.5740   82.8380   -7.0240 O.2   148  GLY148     -0.2714
     53  N         -8.1640   84.2350   -6.1840 N.am  149  SER149     -0.1949
     54  CA        -8.9770   84.4440   -7.3850 C.3   149  SER149      0.1924
     55  C         -8.4880   85.6920   -8.1820 C.2   149  SER149      0.2314
     56  O         -9.1410   86.1120   -9.1440 O.2   149  SER149     -0.2863
     57  CB       -10.4520   84.5740   -7.0040 C.3   149  SER149      0.2116
     58  OG       -10.8700   83.5290   -6.1380 O.3   149  SER149     -0.2180
     59  N          0.3030   89.3310   -5.7020 N.3   155  LEU155     -0.1245
     60  CA        -0.1400   88.8280   -4.4010 C.3   155  LEU155      0.1561
     61  C          1.1630   88.6570   -3.5800 C.2   155  LEU155      0.2260
     62  O          1.8380   87.6340   -3.7140 O.2   155  LEU155     -0.2867
     63  CB        -0.9090   87.4980   -4.5790 C.3   155  LEU155      0.0270
     64  CG        -1.5600   86.9030   -3.3370 C.3   155  LEU155      0.0019
     65  CD1       -2.9800   86.5580   -3.6000 C.3   155  LEU155      0.0001
     66  CD2       -0.8300   85.6690   -2.8760 C.3   155  LEU155      0.0001
     67  N          2.7980   86.4440    2.3330 N.3   158  HIS158     -0.1241
     68  CA         1.9820   86.3830    3.5220 C.3   158  HIS158      0.1621
     69  C          1.9060   84.9390    4.0440 C.2   158  HIS158      0.2264
     70  O          2.0050   83.9640    3.2830 O.2   158  HIS158     -0.2867
     71  CB         0.5770   86.9770    3.2560 C.3   158  HIS158      0.0745
     72  CG        -0.4100   86.0400    2.6290 C.ar  158  HIS158      0.0817
     73  ND1       -1.7510   86.1080    2.9420 N.ar  158  HIS158     -0.2268
     74  CD2       -0.2270   85.0440    1.7260 C.ar  158  HIS158      0.1154
     75  CE1       -2.3330   85.1420    2.2480 C.ar  158  HIS158      0.1986
     76  NE2       -1.4500   84.4660    1.5140 N.ar  158  HIS158     -0.2212
     77  N         -0.6540   82.2800    5.7700 N.3   160  GLU160     -0.1245
     78  CA        -2.1020   82.1110    5.6610 C.3   160  GLU160      0.1567
     79  C         -2.7930   82.4600    6.9710 C.2   160  GLU160      0.2260
     80  O         -2.3580   82.0130    8.0290 O.2   160  GLU160     -0.2867
     81  CB        -2.4510   80.6650    5.2440 C.3   160  GLU160      0.0388
     82  CG        -3.7940   80.5490    4.5510 C.3   160  GLU160      0.1160
     83  CD        -3.8270   81.0270    3.1100 C.2   160  GLU160      0.3649
     84  OE1       -4.8980   80.8900    2.4770 O.co2 160  GLU160     -0.2457
     85  OE2       -2.8000   81.5410    2.6110 O.co2 160  GLU160     -0.2457
     86  N          0.1090   73.2530   -1.5220 N.3   173  PHE173     -0.1241
     87  CA        -0.3510   73.8660   -2.7580 C.3   173  PHE173      0.1605
     88  C         -0.0110   72.8990   -3.8680 C.2   173  PHE173      0.2264
     89  O          1.1650   72.7050   -4.1670 O.2   173  PHE173     -0.2867
     90  CB         0.3200   75.2270   -3.0090 C.3   173  PHE173      0.0534
     91  CG         0.1110   76.2580   -1.9270 C.ar  173  PHE173     -0.0203
     92  CD1       -1.0920   76.9540   -1.8260 C.ar  173  PHE173     -0.0042
     93  CD2        1.1270   76.5630   -1.0310 C.ar  173  PHE173     -0.0042
     94  CE1       -1.2840   77.9260   -0.8400 C.ar  173  PHE173     -0.0003
     95  CE2        0.9360   77.5410   -0.0420 C.ar  173  PHE173     -0.0003
     96  CZ        -0.2660   78.2250    0.0380 C.ar  173  PHE173     -0.0000
     97  N          4.0640   82.9080    1.6610 N.3   284  HIS284     -0.1241
     98  CA         3.9350   82.6170    0.2470 C.3   284  HIS284      0.1621
     99  C          3.2350   83.7890   -0.4440 C.2   284  HIS284      0.2264
    100  O          2.6140   84.6350    0.2110 O.2   284  HIS284     -0.2867
    101  CB         3.1380   81.3180    0.0340 C.3   284  HIS284      0.0745
    102  CG         1.7430   81.3880    0.5960 C.ar  284  HIS284      0.0817
    103  ND1        1.4850   81.1220    1.9350 N.ar  284  HIS284     -0.2268
    104  CD2        0.5800   81.7360   -0.0060 C.ar  284  HIS284      0.1154
    105  CE1        0.1800   81.2790    2.0860 C.ar  284  HIS284      0.1986
    106  NE2       -0.4070   81.6500    0.9510 N.ar  284  HIS284     -0.2212
    107  N         -4.7650   75.5460   -8.9700 N.3   299  MET299     -0.1245
    108  CA        -3.9970   75.0360   -7.8420 C.3   299  MET299      0.1570
    109  C         -4.9580   74.5860   -6.7320 C.2   299  MET299      0.2261
    110  O         -5.9860   75.2160   -6.5300 O.2   299  MET299     -0.2867
    111  CB        -2.9880   76.1090   -7.3690 C.3   299  MET299      0.0387
    112  CG        -2.1290   75.7030   -6.1800 C.3   299  MET299      0.0595
    113  SD        -2.9050   76.1250   -4.5920 S.3   299  MET299     -0.1393
    114  CE        -2.6770   77.9270   -4.5890 C.3   299  MET299      0.0692
    115  N         -5.4720   73.8620   -2.6330 N.3   301  ARG301     -0.1245
    116  CA        -4.9670   74.1920   -1.3040 C.3   301  ARG301      0.1563
    117  C         -5.6230   73.3590   -0.1770 C.2   301  ARG301      0.2260
    118  O         -6.8470   73.2090   -0.1100 O.2   301  ARG301     -0.2867
    119  CB        -5.0940   75.7100   -1.0500 C.3   301  ARG301      0.0307
    120  CG        -4.6090   76.1750    0.3540 C.3   301  ARG301      0.0489
    121  CD        -4.9850   77.6130    0.6620 C.3   301  ARG301      0.2205
    122  NE        -6.4350   77.8300    0.7070 N.pl3 301  ARG301     -0.0865
    123  CZ        -7.0440   78.8850    0.1780 C.cat 301  ARG301      0.5346
    124  NH1       -6.3390   79.8280   -0.4330 N.pl3 301  ARG301      0.1354
    125  NH2       -8.3610   79.0030    0.2500 N.pl3 301  ARG301      0.1354
@<TRIPOS>BOND
     1    56    55    2
     2   107   108    1
     3     1     2    1
     4    38    37    2
     5    55    54    1
     6   108   111    1
     7   108   109    1
     8    37    36    1
     9     2     3    1
    10     2     5    1
    11    54    57    1
    12    54    53    1
    13   111   112    1
    14     3     4    2
    15    52    51    2
    16    57    58    1
    17   109   110    2
    18     5     6    1
    19    36    35    1
    20    36    39    1
    21    53    51   am
    22   112   113    1
    23    51    50    1
    24    40    39    1
    25    59    60    1
    26    39    41    1
    27     6     7   ar
    28     6     8   ar
    29     7     9   ar
    30    45    44    2
    31    50    49    1
    32   113   114    1
    33    63    60    1
    34    63    64    1
    35    47    46    1
    36     8    11   ar
    37     8    10   ar
    38    60    61    1
    39     9    10   ar
    40    44    49   am
    41    44    43    1
    42    89    88    2
    43    11    13   ar
    44    88    87    1
    45    10    12   ar
    46    62    61    2
    47    42    43    1
    48    65    64    1
    49    34    32    1
    50    64    66    1
    51    43    46    1
    52    46    48    1
    53    13    14   ar
    54    33    32    1
    55    90    87    1
    56    90    91    1
    57    12    14   ar
    58    87    86    1
    59    32    31    2
    60   115   116    1
    61    91    92   ar
    62    91    93   ar
    63    92    94   ar
    64    31    30    1
    65   116   119    1
    66   116   117    1
    67   119   120    1
    68    93    95   ar
    69    30    29    1
    70    94    96   ar
    71    99   100    2
    72    99    98    1
    73   124   123    1
    74   117   118    2
    75    95    96   ar
    76   104   102   ar
    77   104   106   ar
    78   101    98    1
    79   101   102    1
    80    29    28    1
    81   123   125    1
    82   123   122    2
    83    98    97    1
    84   120   121    1
    85   102   103   ar
    86   121   122    1
    87    28    25    1
    88   106   105   ar
    89    76    74   ar
    90    76    75   ar
    91    74    72   ar
    92   103   105   ar
    93    25    24    1
    94    25    26    1
    95    75    73   ar
    96    67    68    1
    97    27    26    2
    98    84    83   ar
    99    85    83   ar
   100    72    73   ar
   101    72    71    1
   102    22    21    2
   103    24    17   am
   104    83    82    1
   105    71    68    1
   106    70    69    2
   107    68    69    1
   108    17    18    2
   109    17    16    1
   110    21    23   am
   111    21    20    1
   112    19    16    1
   113    19    20    1
   114    16    15    1
   115    82    81    1
   116    81    78    1
   117    78    77    1
   118    78    79    1
   119    79    80    2
