@<TRIPOS>MOLECULE
tmp/6euoC00.pdb
 129 121 0 0 0
SMALL
GASTEIGER

@<TRIPOS>ATOM
      1  N         -9.1390   24.9540    5.4230 N.3   142  VAL142     -0.1245
      2  CA        -8.7540   23.5600    5.6510 C.3   142  VAL142      0.1561
      3  C         -8.9240   23.3220    7.1630 C.2   142  VAL142      0.2260
      4  O         -8.1600   23.8430    7.9930 O.2   142  VAL142     -0.2867
      5  CB        -7.3390   23.2380    5.1160 C.3   142  VAL142      0.0252
      6  CG1       -6.9500   21.7930    5.4180 C.3   142  VAL142      0.0019
      7  CG2       -7.2640   23.5080    3.6130 C.3   142  VAL142      0.0019
      8  N         -7.7300   13.3140    3.4840 N.3   153  THR153     -0.1203
      9  CA        -8.1630   14.6170    2.9750 C.3   153  THR153      0.1994
     10  C         -7.7410   15.7320    3.9500 C.2   153  THR153      0.2618
     11  O         -7.2410   15.4340    5.0410 O.2   153  THR153     -0.2717
     12  CB        -9.6820   14.6120    2.6440 C.3   153  THR153      0.1784
     13  OG1      -10.0270   15.8160    1.9590 O.3   153  THR153     -0.2211
     14  CG2      -10.5620   14.4460    3.8640 C.3   153  THR153      0.0376
     15  N         -7.9490   16.9900    3.5350 N.am  154  GLY154     -0.1956
     16  CA        -7.6790   18.1870    4.3260 C.3   154  GLY154      0.1869
     17  C         -8.5950   18.2810    5.5260 C.2   154  GLY154      0.2309
     18  O         -8.2590   18.9410    6.5040 O.2   154  GLY154     -0.2863
     19  N         -1.2580   12.4980    6.6420 N.3   161  LEU161     -0.1245
     20  CA        -1.5460   12.9110    5.2780 C.3   161  LEU161      0.1561
     21  C         -0.1930   12.8330    4.5530 C.2   161  LEU161      0.2260
     22  O          0.6460   13.7220    4.7300 O.2   161  LEU161     -0.2867
     23  CB        -2.1570   14.3240    5.2210 C.3   161  LEU161      0.0270
     24  CG        -2.8000   14.7270    3.8950 C.3   161  LEU161      0.0019
     25  CD1       -4.2310   14.2300    3.8000 C.3   161  LEU161      0.0001
     26  CD2       -2.7750   16.2160    3.7380 C.3   161  LEU161      0.0001
     27  N          2.3200   14.6080   -1.0790 N.3   164  HIS164     -0.1241
     28  CA         1.7320   14.6480   -2.4030 C.3   164  HIS164      0.1621
     29  C          1.8350   16.0700   -2.9470 C.2   164  HIS164      0.2264
     30  O          1.8840   17.0410   -2.1830 O.2   164  HIS164     -0.2867
     31  CB         0.2500   14.2070   -2.3640 C.3   164  HIS164      0.0745
     32  CG        -0.6390   15.1680   -1.6440 C.ar  164  HIS164      0.0817
     33  ND1       -0.6390   15.2480   -0.2600 N.ar  164  HIS164     -0.2268
     34  CD2       -1.4580   16.1280   -2.1380 C.ar  164  HIS164      0.1154
     35  CE1       -1.4780   16.2260    0.0420 C.ar  164  HIS164      0.1986
     36  NE2       -1.9840   16.7940   -1.0530 N.ar  164  HIS164     -0.2212
     37  N         -0.3020   18.7400   -5.1090 N.3   166  GLU166     -0.1245
     38  CA        -1.7380   18.9500   -5.2210 C.3   166  GLU166      0.1567
     39  C         -2.2450   18.5710   -6.6040 C.2   166  GLU166      0.2260
     40  O         -1.6550   18.9760   -7.6100 O.2   166  GLU166     -0.2867
     41  CB        -2.0940   20.4110   -4.9070 C.3   166  GLU166      0.0388
     42  CG        -3.5220   20.5880   -4.4360 C.3   166  GLU166      0.1160
     43  CD        -3.7810   20.2150   -2.9860 C.2   166  GLU166      0.3649
     44  OE1       -2.9990   19.4360   -2.4000 O.co2 166  GLU166     -0.2457
     45  OE2       -4.7420   20.7680   -2.4050 O.co2 166  GLU166     -0.2457
     46  N         -0.2940   28.1100    1.8750 N.3   179  PHE179     -0.1241
     47  CA        -0.9440   27.5560    3.0560 C.3   179  PHE179      0.1605
     48  C         -0.7280   28.5620    4.1730 C.2   179  PHE179      0.2264
     49  O          0.3980   28.7370    4.6340 O.2   179  PHE179     -0.2867
     50  CB        -0.3590   26.1920    3.4360 C.3   179  PHE179      0.0534
     51  CG        -0.4510   25.1330    2.3630 C.ar  179  PHE179     -0.0203
     52  CD1       -1.6440   24.4620    2.1260 C.ar  179  PHE179     -0.0042
     53  CD2        0.6720   24.7470    1.6490 C.ar  179  PHE179     -0.0042
     54  CE1       -1.7200   23.4430    1.1800 C.ar  179  PHE179     -0.0003
     55  CE2        0.5950   23.7260    0.7040 C.ar  179  PHE179     -0.0003
     56  CZ        -0.6010   23.0820    0.4740 C.ar  179  PHE179     -0.0000
     57  N         -1.4620   29.5380    7.9190 N.3   181  TYR181     -0.1241
     58  CA        -1.8850   28.9660    9.2110 C.3   181  TYR181      0.1605
     59  C         -2.4770   30.0060   10.1140 C.2   181  TYR181      0.2264
     60  O         -1.8130   30.9710   10.4590 O.2   181  TYR181     -0.2867
     61  CB        -0.7370   28.2200    9.8790 C.3   181  TYR181      0.0534
     62  CG        -0.2480   27.0870    8.9990 C.ar  181  TYR181     -0.0201
     63  CD1        0.6580   27.3230    7.9590 C.ar  181  TYR181     -0.0009
     64  CD2       -0.7350   25.7890    9.1590 C.ar  181  TYR181     -0.0009
     65  CE1        1.0820   26.2930    7.1240 C.ar  181  TYR181      0.0417
     66  CE2       -0.3190   24.7520    8.3250 C.ar  181  TYR181      0.0417
     67  CZ         0.5920   25.0100    7.3120 C.ar  181  TYR181      0.1957
     68  OH         1.0150   23.9910    6.4990 O.3   181  TYR181     -0.2866
     69  N          4.4620   20.6080    9.5950 N.3   190  SER190     -0.1217
     70  CA         4.2540   20.6950    8.1600 C.3   190  SER190      0.1889
     71  C          5.2900   19.7920    7.5240 C.2   190  SER190      0.2288
     72  O          6.4560   19.7550    7.9560 O.2   190  SER190     -0.2866
     73  CB         4.4040   22.1240    7.6770 C.3   190  SER190      0.2089
     74  OG         3.0910   22.6440    7.5830 O.3   190  SER190     -0.2183
     75  N          3.6910   18.2140   -0.4120 N.3   295  HIS295     -0.1226
     76  CA         3.3670   18.5430    0.9620 C.3   295  HIS295      0.1752
     77  C          2.5330   17.4570    1.5900 C.2   295  HIS295      0.2597
     78  O          1.9510   16.6170    0.8980 O.2   295  HIS295     -0.2718
     79  CB         2.6130   19.8810    1.0270 C.3   295  HIS295      0.0759
     80  CG         1.3000   19.8510    0.3030 C.ar  295  HIS295      0.0818
     81  ND1        1.2350   20.0470   -1.0660 N.ar  295  HIS295     -0.2268
     82  CD2        0.0570   19.5710    0.7640 C.ar  295  HIS295      0.1154
     83  CE1       -0.0410   19.9240   -1.3840 C.ar  295  HIS295      0.1986
     84  NE2       -0.7890   19.6450   -0.3130 N.ar  295  HIS295     -0.2212
     85  N          2.4260   17.5410    2.8980 N.am  296  GLY296     -0.1942
     86  CA         1.6450   16.6490    3.7340 C.3   296  GLY296      0.2014
     87  C          1.6160   17.1960    5.1450 C.2   296  GLY296      0.2638
     88  O          2.0680   18.3240    5.4170 O.2   296  GLY296     -0.2714
     89  N          1.0700   16.4050    6.0500 N.am  297  ARG297     -0.1977
     90  CA         1.0240   16.7490    7.4590 C.3   297  ARG297      0.1597
     91  C          0.8730   15.4900    8.2740 C.2   297  ARG297      0.2287
     92  O          0.3700   14.4720    7.7810 O.2   297  ARG297     -0.2864
     93  CB        -0.0270   17.8350    7.7990 C.3   297  ARG297      0.0334
     94  CG        -1.4370   17.5350    7.3380 C.3   297  ARG297      0.0492
     95  CD        -2.4390   17.5680    8.4780 C.3   297  ARG297      0.2205
     96  NE        -3.6390   16.8460    8.0660 N.pl3 297  ARG297     -0.0865
     97  CZ        -3.9120   15.5890    8.3930 C.cat 297  ARG297      0.5346
     98  NH1       -3.1170   14.9250    9.2250 N.pl3 297  ARG297      0.1354
     99  NH2       -4.9970   14.9970    7.9170 N.pl3 297  ARG297      0.1354
    100  N         -7.3930   23.2570   14.5140 N.3   317  ARG317     -0.1245
    101  CA        -6.5170   23.6880   13.4080 C.3   317  ARG317      0.1563
    102  C         -7.2910   24.3580   12.2930 C.2   317  ARG317      0.2260
    103  O         -8.3660   23.9000   11.8960 O.2   317  ARG317     -0.2867
    104  CB        -5.6890   22.5050   12.8610 C.3   317  ARG317      0.0307
    105  CG        -4.4740   22.8910   12.0090 C.3   317  ARG317      0.0489
    106  CD        -3.6010   21.6640   11.8320 C.3   317  ARG317      0.2205
    107  NE        -2.5560   21.8090   10.8140 N.pl3 317  ARG317     -0.0865
    108  CZ        -2.7060   21.4870    9.5260 C.cat 317  ARG317      0.5346
    109  NH1       -3.8820   21.0740    9.0670 N.pl3 317  ARG317      0.1354
    110  NH2       -1.6900   21.6120    8.6820 N.pl3 317  ARG317      0.1354
    111  N         -6.3120   26.3810    8.6300 N.3   319  MET319     -0.1245
    112  CA        -5.3560   26.7980    7.6230 C.3   319  MET319      0.1570
    113  C         -6.1180   27.2020    6.3630 C.2   319  MET319      0.2261
    114  O         -7.1750   26.6410    6.0710 O.2   319  MET319     -0.2867
    115  CB        -4.3510   25.6620    7.3850 C.3   319  MET319      0.0387
    116  CG        -3.3060   25.9680    6.3450 C.3   319  MET319      0.0595
    117  SD        -3.8170   25.4130    4.6870 S.3   319  MET319     -0.1393
    118  CE        -3.6310   23.6430    4.8770 C.3   319  MET319      0.0692
    119  N         -5.9680   27.6710    2.2050 N.3   321  ARG321     -0.1245
    120  CA        -5.3010   27.2480    0.9820 C.3   321  ARG321      0.1563
    121  C         -5.7810   28.0230   -0.2610 C.2   321  ARG321      0.2260
    122  O         -6.9890   28.1800   -0.5040 O.2   321  ARG321     -0.2867
    123  CB        -5.4520   25.7260    0.7810 C.3   321  ARG321      0.0307
    124  CG        -4.7890   25.1800   -0.5000 C.3   321  ARG321      0.0489
    125  CD        -5.1510   23.7180   -0.8020 C.3   321  ARG321      0.2205
    126  NE        -6.5830   23.5270   -1.0560 N.pl3 321  ARG321     -0.0865
    127  CZ        -7.2970   22.5120   -0.5740 C.cat 321  ARG321      0.5346
    128  NH1       -6.7160   21.5740    0.1610 N.pl3 321  ARG321      0.1354
    129  NH2       -8.5950   22.4230   -0.8330 N.pl3 321  ARG321      0.1354
@<TRIPOS>BOND
     1    40    39    2
     2    39    38    1
     3    38    37    1
     4    38    41    1
     5    41    42    1
     6    42    43    1
     7    43    45   ar
     8    43    44   ar
     9    29    28    1
    10    29    30    2
    11    28    31    1
    12    28    27    1
    13    31    32    1
    14    34    32   ar
    15    34    36   ar
    16    32    33   ar
    17    83    81   ar
    18    83    84   ar
    19    81    80   ar
    20   126   125    1
    21   126   127    2
    22    36    35   ar
    23   129   127    1
    24   125   124    1
    25   127   128    1
    26   122   121    2
    27   124   123    1
    28    75    76    1
    29    84    82   ar
    30   121   120    1
    31    33    35   ar
    32    80    82   ar
    33    80    79    1
    34    56    55   ar
    35    56    54   ar
    36    55    53   ar
    37   123   120    1
    38    78    77    2
    39    76    79    1
    40    76    77    1
    41   120   119    1
    42    54    52   ar
    43    77    85   am
    44    53    51   ar
    45    46    47    1
    46    13    12    1
    47    52    51   ar
    48    51    50    1
    49    12     9    1
    50    12    14    1
    51    85    86    1
    52     9     8    1
    53     9    10    1
    54    47    50    1
    55    47    48    1
    56    15    10   am
    57    15    16    1
    58     7     5    1
    59    86    87    1
    60    26    24    1
    61    25    24    1
    62    24    23    1
    63    10    11    2
    64    48    49    2
    65    16    17    1
    66    21    22    2
    67    21    20    1
    68   117   118    1
    69   117   116    1
    70     5     6    1
    71     5     2    1
    72    87    88    2
    73    87    89   am
    74    23    20    1
    75    20    19    1
    76     1     2    1
    77    17    18    2
    78     2     3    1
    79    89    90    1
    80   114   113    2
    81   116   115    1
    82   113   112    1
    83    68    67    1
    84    65    67   ar
    85    65    63   ar
    86     3     4    2
    87    67    66   ar
    88    94    93    1
    89    94    95    1
    90   115   112    1
    91    90    93    1
    92    90    91    1
    93    71    72    2
    94    71    70    1
    95    74    73    1
    96   112   111    1
    97    73    70    1
    98    92    91    2
    99    99    97    1
   100    57    58    1
   101    63    62   ar
   102    96    97    2
   103    96    95    1
   104    70    69    1
   105    66    64   ar
   106    97    98    1
   107   110   108    1
   108    62    64   ar
   109    62    61    1
   110   109   108    1
   111    58    61    1
   112    58    59    1
   113   108   107    2
   114    59    60    2
   115   107   106    1
   116   106   105    1
   117   103   102    2
   118   105   104    1
   119   102   101    1
   120   104   101    1
   121   101   100    1
