@<TRIPOS>MOLECULE
tmp/6euqA00.pdb
 94 90 0 0 0
SMALL
GASTEIGER

@<TRIPOS>ATOM
      1  N         25.3770    0.7960   13.5010 N.3    13  PHE13      -0.1241
      2  CA        24.2290    1.6700   13.7580 C.3    13  PHE13       0.1605
      3  C         22.9600    0.8750   14.0840 C.2    13  PHE13       0.2264
      4  O         22.2590    1.2050   15.0440 O.2    13  PHE13      -0.2867
      5  CB        23.9770    2.5980   12.5590 C.3    13  PHE13       0.0534
      6  CG        22.8050    3.5260   12.7420 C.ar   13  PHE13      -0.0203
      7  CD1       22.8880    4.6090   13.6140 C.ar   13  PHE13      -0.0042
      8  CD2       21.6140    3.3140   12.0520 C.ar   13  PHE13      -0.0042
      9  CE1       21.8090    5.4630   13.7910 C.ar   13  PHE13      -0.0003
     10  CE2       20.5310    4.1660   12.2270 C.ar   13  PHE13      -0.0003
     11  CZ        20.6300    5.2420   13.0970 C.ar   13  PHE13      -0.0000
     12  N         21.0020    1.2660   17.6840 N.3    17  ILE17      -0.1245
     13  CA        19.5750    1.6280   17.7910 C.3    17  ILE17       0.1561
     14  C         18.7250    0.4280   18.2330 C.2    17  ILE17       0.2260
     15  O         17.6440    0.6090   18.7920 O.2    17  ILE17      -0.2867
     16  CB        18.9970    2.2810   16.5030 C.3    17  ILE17       0.0252
     17  CG1       18.9320    1.3000   15.3190 C.3    17  ILE17       0.0019
     18  CG2       19.7990    3.5230   16.1330 C.3    17  ILE17       0.0019
     19  CD1       18.1560    1.8360   14.1360 C.3    17  ILE17       0.0001
     20  N         16.6040    2.8050   20.3870 N.3    21  MET21      -0.1245
     21  CA        15.1970    2.9820   19.9770 C.3    21  MET21       0.1570
     22  C         14.2300    2.1480   20.8180 C.2    21  MET21       0.2261
     23  O         13.0850    2.5520   21.0110 O.2    21  MET21      -0.2867
     24  CB        14.9800    2.6380   18.4950 C.3    21  MET21       0.0387
     25  CG        15.2890    3.7640   17.5230 C.3    21  MET21       0.0595
     26  SD        14.8260    3.3470   15.8280 S.3    21  MET21      -0.1393
     27  CE        13.0390    3.2860   15.9420 C.3    21  MET21       0.0692
     28  N         13.7450    9.2090   18.2240 N.3   146  VAL146     -0.1245
     29  CA        13.1250    8.4470   17.1340 C.3   146  VAL146      0.1561
     30  C         12.2110    7.3410   17.6800 C.2   146  VAL146      0.2260
     31  O         11.1230    7.1180   17.1460 O.2   146  VAL146     -0.2867
     32  CB        14.1990    7.8560   16.1780 C.3   146  VAL146      0.0252
     33  CG1       13.5810    6.9130   15.1530 C.3   146  VAL146      0.0019
     34  CG2       14.9500    8.9710   15.4590 C.3   146  VAL146      0.0019
     35  N          9.0200    8.9370   19.0670 N.3   149  ALA149     -0.1231
     36  CA         8.2080    9.3390   17.9130 C.3   149  ALA149      0.1694
     37  C          7.5970    8.1410   17.1810 C.2   149  ALA149      0.2592
     38  O          6.4530    8.2110   16.7290 O.2   149  ALA149     -0.2718
     39  CB         9.0380   10.1730   16.9470 C.3   149  ALA149      0.0304
     40  N          8.3650    7.0570   17.0650 N.am  150  TRP150     -0.1976
     41  CA         7.9100    5.8250   16.4030 C.3   150  TRP150      0.1640
     42  C          6.6950    5.2000   17.0910 C.2   150  TRP150      0.2290
     43  O          5.7380    4.8080   16.4220 O.2   150  TRP150     -0.2864
     44  CB         9.0510    4.7940   16.3530 C.3   150  TRP150      0.0576
     45  CG         8.7120    3.5050   15.6420 C.ar  150  TRP150      0.0006
     46  CD1        7.9860    2.4560   16.1360 C.ar  150  TRP150      0.0946
     47  CD2        9.1020    3.1310   14.3160 C.ar  150  TRP150      0.0152
     48  NE1        7.8900    1.4590   15.1950 N.ar  150  TRP150     -0.2442
     49  CE2        8.5680    1.8450   14.0700 C.ar  150  TRP150      0.0810
     50  CE3        9.8490    3.7590   13.3090 C.ar  150  TRP150      0.0012
     51  CZ2        8.7580    1.1750   12.8550 C.ar  150  TRP150      0.0191
     52  CZ3       10.0370    3.0900   12.0990 C.ar  150  TRP150      0.0001
     53  CH2        9.4920    1.8110   11.8850 C.ar  150  TRP150      0.0015
     54  N          4.3040    6.3060   19.0000 N.3   152  HIS152     -0.1226
     55  CA         3.0530    7.0770   18.9500 C.3   152  HIS152      0.1752
     56  C          2.2320    6.7910   17.6810 C.2   152  HIS152      0.2596
     57  O          1.0130    6.9820   17.6670 O.2   152  HIS152     -0.2718
     58  CB         3.3780    8.5800   19.0520 C.3   152  HIS152      0.0759
     59  CG         2.1780    9.4770   19.0100 C.ar  152  HIS152      0.0818
     60  ND1        1.9370   10.3450   17.9670 N.ar  152  HIS152     -0.2268
     61  CD2        1.1520    9.6390   19.8780 C.ar  152  HIS152      0.1154
     62  CE1        0.8150   11.0040   18.1950 C.ar  152  HIS152      0.1986
     63  NE2        0.3190   10.5940   19.3480 N.ar  152  HIS152     -0.2212
     64  N          2.9080    6.3560   16.6130 N.am  153  VAL153     -0.1966
     65  CA         2.2420    6.0300   15.3310 C.3   153  VAL153      0.1727
     66  C          2.3000    4.5460   14.9390 C.2   153  VAL153      0.2616
     67  O          1.3160    4.0120   14.4230 O.2   153  VAL153     -0.2715
     68  CB         2.7590    6.8950   14.1480 C.3   153  VAL153      0.0290
     69  CG1        2.2000    8.3050   14.2450 C.3   153  VAL153      0.0023
     70  CG2        4.2810    6.9250   14.0730 C.3   153  VAL153      0.0023
     71  N          3.4380    3.8910   15.1810 N.am  154  LEU154     -0.1977
     72  CA         3.6720    2.5120   14.7410 C.3   154  LEU154      0.1596
     73  C          3.9240    1.5870   15.9360 C.2   154  LEU154      0.2287
     74  O          4.3710    2.0490   16.9870 O.2   154  LEU154     -0.2864
     75  CB         4.8690    2.4800   13.7900 C.3   154  LEU154      0.0297
     76  CG         4.6460    3.1430   12.4250 C.3   154  LEU154      0.0022
     77  CD1        5.9750    3.4460   11.7490 C.3   154  LEU154      0.0001
     78  CD2        3.7740    2.2760   11.5290 C.3   154  LEU154      0.0001
     79  N         12.6370   -2.8980   11.1710 N.3   162  LEU162     -0.1245
     80  CA        13.5760   -1.8570   10.7270 C.3   162  LEU162      0.1561
     81  C         15.0410   -2.2470   10.9620 C.2   162  LEU162      0.2260
     82  O         15.8720   -2.0600   10.0710 O.2   162  LEU162     -0.2867
     83  CB        13.2690   -0.5130   11.4100 C.3   162  LEU162      0.0270
     84  CG        14.1900    0.6820   11.1270 C.3   162  LEU162      0.0019
     85  CD1       14.1550    1.0660    9.6550 C.3   162  LEU162      0.0001
     86  CD2       13.7970    1.8620   12.0010 C.3   162  LEU162      0.0001
     87  N         17.7460   -2.8660    7.9750 N.3   166  LEU166     -0.1245
     88  CA        19.0450   -2.1740    7.9470 C.3   166  LEU166      0.1561
     89  C         20.2270   -3.1490    8.0130 C.2   166  LEU166      0.2260
     90  O         21.2490   -2.9320    7.3600 O.2   166  LEU166     -0.2867
     91  CB        19.1510   -1.1580    9.0910 C.3   166  LEU166      0.0270
     92  CG        18.2160    0.0540    9.0360 C.3   166  LEU166      0.0019
     93  CD1       18.2090    0.7780   10.3740 C.3   166  LEU166      0.0001
     94  CD2       18.6090    1.0040    7.9130 C.3   166  LEU166      0.0001
@<TRIPOS>BOND
     1    90    89    2
     2    94    92    1
     3    88    87    1
     4    88    89    1
     5    88    91    1
     6    92    91    1
     7    92    93    1
     8    85    84    1
     9    82    81    2
    10    80    81    1
    11    80    79    1
    12    80    83    1
    13    84    83    1
    14    84    86    1
    15    78    76    1
    16    77    76    1
    17    53    52   ar
    18    53    51   ar
    19     8    10   ar
    20     8     6   ar
    21    52    50   ar
    22    10    11   ar
    23    76    75    1
    24     5     6    1
    25     5     2    1
    26     6     7   ar
    27    51    49   ar
    28    11     9   ar
    29    50    47   ar
    30     1     2    1
    31     7     9   ar
    32     2     3    1
    33    75    72    1
    34    49    47   ar
    35    49    48   ar
    36    70    68    1
    37     3     4    2
    38    19    17    1
    39    68    69    1
    40    68    65    1
    41    47    45   ar
    42    67    66    2
    43    72    71    1
    44    72    73    1
    45    66    71   am
    46    66    65    1
    47    33    32    1
    48    48    46   ar
    49    17    16    1
    50    65    64    1
    51    34    32    1
    52    45    46   ar
    53    45    44    1
    54    26    27    1
    55    26    25    1
    56    73    74    2
    57    18    16    1
    58    32    29    1
    59    44    41    1
    60    41    40    1
    61    41    42    1
    62    43    42    2
    63    16    13    1
    64    64    56   am
    65    38    37    2
    66    39    36    1
    67    40    37   am
    68    29    30    1
    69    29    28    1
    70    31    30    2
    71    37    36    1
    72    25    24    1
    73    57    56    2
    74    56    55    1
    75    12    13    1
    76    13    14    1
    77    36    35    1
    78    60    62   ar
    79    60    59   ar
    80    62    63   ar
    81    14    15    2
    82    24    21    1
    83    55    54    1
    84    55    58    1
    85    59    58    1
    86    59    61   ar
    87    63    61   ar
    88    21    20    1
    89    21    22    1
    90    22    23    2
