@<TRIPOS>MOLECULE
tmp/6euqA03.pdb
 126 115 0 0 0
SMALL
GASTEIGER

@<TRIPOS>ATOM
      1  N         23.1410   -0.6290   17.5370 N.3    16  TYR16      -0.1241
      2  CA        23.1380    0.4380   18.5500 C.3    16  TYR16       0.1605
      3  C         21.7390    1.0180   18.7700 C.2    16  TYR16       0.2264
      4  O         21.3410    1.2360   19.9180 O.2    16  TYR16      -0.2867
      5  CB        24.1390    1.5500   18.1910 C.3    16  TYR16       0.0534
      6  CG        25.5510    1.2920   18.6830 C.ar   16  TYR16      -0.0201
      7  CD1       26.1770    0.0570   18.4800 C.ar   16  TYR16      -0.0009
      8  CD2       26.2710    2.2860   19.3490 C.ar   16  TYR16      -0.0009
      9  CE1       27.4700   -0.1780   18.9300 C.ar   16  TYR16       0.0417
     10  CE2       27.5640    2.0560   19.8030 C.ar   16  TYR16       0.0417
     11  CZ        28.1580    0.8250   19.5890 C.ar   16  TYR16       0.1957
     12  OH        29.4380    0.5950   20.0360 O.3    16  TYR16      -0.2866
     13  N         33.1080    5.8200   15.8480 N.3   133  ALA133     -0.1245
     14  CA        32.9550    6.5560   17.1080 C.3   133  ALA133      0.1562
     15  C         31.8280    7.5930   17.0480 C.2   133  ALA133      0.2260
     16  O         31.0900    7.7540   18.0190 O.2   133  ALA133     -0.2867
     17  CB        34.2660    7.2240   17.4990 C.3   133  ALA133      0.0290
     18  N         28.4930    5.8940   17.2850 N.3   136  ALA136     -0.1231
     19  CA        28.2790    5.5320   18.6920 C.3   136  ALA136      0.1694
     20  C         27.7730    6.7010   19.5440 C.2   136  ALA136      0.2591
     21  O         27.0500    6.4830   20.5160 O.2   136  ALA136     -0.2718
     22  CB        29.5550    4.9550   19.2940 C.3   136  ALA136      0.0304
     23  N         28.1650    7.9270   19.1910 N.am  137  LEU137     -0.1980
     24  CA        27.6880    9.1440   19.8680 C.3   137  LEU137      0.1596
     25  C         26.3030    9.6040   19.3930 C.2   137  LEU137      0.2287
     26  O         25.5360   10.1630   20.1820 O.2   137  LEU137     -0.2864
     27  CB        28.6940   10.2880   19.6890 C.3   137  LEU137      0.0297
     28  CG        30.0790   10.0850   20.3140 C.3   137  LEU137      0.0022
     29  CD1       31.0780   11.0770   19.7370 C.3   137  LEU137      0.0001
     30  CD2       30.0260   10.1980   21.8310 C.3   137  LEU137      0.0001
     31  N         22.6320    7.1520   20.7720 N.3   140  PRO140     -0.2116
     32  CA        21.9020    7.4240   22.0200 C.3   140  PRO140      0.1372
     33  C         21.2180    8.7950   22.0980 C.2   140  PRO140      0.2244
     34  O         20.4220    9.0150   23.0120 O.2   140  PRO140     -0.2868
     35  CB        22.9910    7.3120   23.0910 C.3   140  PRO140      0.0268
     36  CG        24.2430    7.6800   22.3850 C.3   140  PRO140      0.0207
     37  CD        24.0880    7.1230   21.0000 C.3   140  PRO140      0.0892
     38  N         36.5580    1.7560   33.5610 N.3   214  LEU214     -0.1245
     39  CA        35.7380    2.1100   32.3870 C.3   214  LEU214      0.1561
     40  C         34.2790    1.6660   32.5300 C.2   214  LEU214      0.2260
     41  O         33.3700    2.3550   32.0590 O.2   214  LEU214     -0.2867
     42  CB        36.3340    1.5190   31.1030 C.3   214  LEU214      0.0270
     43  CG        37.6190    2.1960   30.6150 C.3   214  LEU214      0.0019
     44  CD1       38.3980    1.2920   29.6700 C.3   214  LEU214      0.0001
     45  CD2       37.3110    3.5300   29.9480 C.3   214  LEU214      0.0001
     46  N         31.1770    4.6740   33.1970 N.3   218  SER218     -0.1217
     47  CA        30.1300    4.7760   32.1710 C.3   218  SER218      0.1889
     48  C         28.7690    4.2140   32.6020 C.2   218  SER218      0.2288
     49  O         27.7910    4.3610   31.8720 O.2   218  SER218     -0.2866
     50  CB        30.5830    4.0760   30.8890 C.3   218  SER218      0.2089
     51  OG        31.7400    4.6980   30.3650 O.3   218  SER218     -0.2183
     52  N         25.6850    6.7070   32.8480 N.3   221  LEU221     -0.1231
     53  CA        25.1740    6.9980   31.5040 C.3   221  LEU221      0.1693
     54  C         24.2790    5.8670   30.9890 C.2   221  LEU221      0.2591
     55  O         23.1950    6.1230   30.4680 O.2   221  LEU221     -0.2718
     56  CB        26.3300    7.2300   30.5200 C.3   221  LEU221      0.0284
     57  CG        25.9830    7.8100   29.1420 C.3   221  LEU221      0.0019
     58  CD1       25.3890    9.2060   29.2650 C.3   221  LEU221      0.0001
     59  CD2       27.2180    7.8390   28.2530 C.3   221  LEU221      0.0001
     60  N         24.7420    4.6260   31.1380 N.am  222  LEU222     -0.1980
     61  CA        23.9800    3.4450   30.6920 C.3   222  LEU222      0.1596
     62  C         22.7430    3.1710   31.5550 C.2   222  LEU222      0.2287
     63  O         21.7210    2.7080   31.0450 O.2   222  LEU222     -0.2864
     64  CB        24.8790    2.2000   30.6110 C.3   222  LEU222      0.0297
     65  CG        25.5710    1.9910   29.2590 C.3   222  LEU222      0.0022
     66  CD1       26.3360    3.2280   28.8030 C.3   222  LEU222      0.0001
     67  CD2       26.4930    0.7830   29.3100 C.3   222  LEU222      0.0001
     68  N         27.9130   15.0230   25.9740 N.3   254  LEU254     -0.1245
     69  CA        28.8050   13.8980   25.6590 C.3   254  LEU254      0.1561
     70  C         29.5480   14.1300   24.3420 C.2   254  LEU254      0.2260
     71  O         30.7550   13.8900   24.2540 O.2   254  LEU254     -0.2867
     72  CB        28.0190   12.5790   25.6010 C.3   254  LEU254      0.0270
     73  CG        28.8040   11.2730   25.4110 C.3   254  LEU254      0.0019
     74  CD1       29.8070   11.0580   26.5360 C.3   254  LEU254      0.0001
     75  CD2       27.8480   10.0930   25.3180 C.3   254  LEU254      0.0001
     76  N         33.6640   15.1280   23.6590 N.3   258  ASN258     -0.1240
     77  CA        34.4800   14.4900   22.6160 C.3   258  ASN258      0.1653
     78  C         35.0560   15.4980   21.6150 C.2   258  ASN258      0.2266
     79  O         36.1830   15.3250   21.1510 O.2   258  ASN258     -0.2867
     80  CB        33.6780   13.4120   21.8700 C.3   258  ASN258      0.1155
     81  CG        33.6080   12.1060   22.6350 C.2   258  ASN258      0.2627
     82  OD1       34.5060   11.2700   22.5340 O.2   258  ASN258     -0.2716
     83  ND2       32.5380   11.9190   23.4000 N.am  258  ASN258     -0.0877
     84  N         32.8660   12.5190   30.7440 N.3   313  ILE313     -0.1245
     85  CA        32.9920   11.1890   30.1240 C.3   313  ILE313      0.1561
     86  C         33.5290   11.3030   28.6950 C.2   313  ILE313      0.2260
     87  O         34.4520   10.5780   28.3210 O.2   313  ILE313     -0.2867
     88  CB        31.6330   10.4300   30.1180 C.3   313  ILE313      0.0252
     89  CG1       31.2050   10.0620   31.5440 C.3   313  ILE313      0.0019
     90  CG2       31.6760    9.1700   29.2540 C.3   313  ILE313      0.0019
     91  CD1       31.9930    8.9430   32.1900 C.3   313  ILE313      0.0001
     92  N         37.1210    9.3070   28.7730 N.3   317  ASN317     -0.1240
     93  CA        37.0310    7.8480   28.5360 C.3   317  ASN317      0.1653
     94  C         37.9300    7.2920   27.4310 C.2   317  ASN317      0.2266
     95  O         38.5330    6.2340   27.6120 O.2   317  ASN317     -0.2867
     96  CB        35.5770    7.4030   28.2850 C.3   317  ASN317      0.1155
     97  CG        34.8180    7.1250   29.5700 C.2   317  ASN317      0.2627
     98  OD1       35.1120    7.6940   30.6240 O.2   317  ASN317     -0.2716
     99  ND2       33.8290    6.2450   29.4870 N.am  317  ASN317     -0.0877
    100  N         40.6200    4.2880   27.7670 N.3   321  VAL321     -0.1245
    101  CA        40.5840    3.1170   26.8790 C.3   321  VAL321      0.1561
    102  C         41.9780    2.8480   26.2970 C.2   321  VAL321      0.2260
    103  O         42.4110    1.6970   26.2500 O.2   321  VAL321     -0.2867
    104  CB        39.5310    3.2750   25.7430 C.3   321  VAL321      0.0252
    105  CG1       39.6760    2.1870   24.6780 C.3   321  VAL321      0.0019
    106  CG2       38.1130    3.2630   26.3100 C.3   321  VAL321      0.0019
    107  N         33.7870   -4.5230   31.3380 N.3   343  GLN343     -0.1245
    108  CA        32.8300   -3.4110   31.2980 C.3   343  GLN343      0.1566
    109  C         31.3780   -3.9020   31.2440 C.2   343  GLN343      0.2260
    110  O         30.5240   -3.3990   31.9750 O.2   343  GLN343     -0.2867
    111  CB        33.1050   -2.4980   30.0980 C.3   343  GLN343      0.0367
    112  CG        34.3920   -1.6980   30.2000 C.3   343  GLN343      0.0905
    113  CD        34.7710   -1.0430   28.8830 C.2   343  GLN343      0.2608
    114  OE1       34.0300   -0.2150   28.3540 O.2   343  GLN343     -0.2717
    115  NE2       35.9310   -1.4100   28.3500 N.am  343  GLN343     -0.0878
    116  N         28.1650   -3.2620   33.5850 N.3   347  PHE347     -0.1241
    117  CA        26.9420   -2.6690   33.0270 C.3   347  PHE347      0.1605
    118  C         25.7010   -3.5170   33.3150 C.2   347  PHE347      0.2264
    119  O         24.6790   -2.9860   33.7450 O.2   347  PHE347     -0.2867
    120  CB        27.0440   -2.4450   31.5090 C.3   347  PHE347      0.0534
    121  CG        28.1650   -1.5290   31.0730 C.ar  347  PHE347     -0.0203
    122  CD1       28.5700   -0.4310   31.8410 C.ar  347  PHE347     -0.0042
    123  CD2       28.7900   -1.7430   29.8460 C.ar  347  PHE347     -0.0042
    124  CE1       29.5930    0.4020   31.4040 C.ar  347  PHE347     -0.0003
    125  CE2       29.8080   -0.9090   29.4070 C.ar  347  PHE347     -0.0003
    126  CZ        30.2120    0.1640   30.1870 C.ar  347  PHE347     -0.0000
@<TRIPOS>BOND
     1    13    14    1
     2    15    14    1
     3    15    16    2
     4    14    17    1
     5    18    19    1
     6     1     2    1
     7     5     2    1
     8     5     6    1
     9     7     6   ar
    10     7     9   ar
    11     2     3    1
    12     6     8   ar
    13    19    22    1
    14    19    20    1
    15     3     4    2
    16     9    11   ar
    17    23    20   am
    18    23    24    1
    19     8    10   ar
    20    25    24    1
    21    25    26    2
    22    20    21    2
    23    11    10   ar
    24    11    12    1
    25    27    24    1
    26    27    28    1
    27    29    28    1
    28    28    30    1
    29    31    37    1
    30    31    32    1
    31    37    36    1
    32    79    78    2
    33    78    77    1
    34    80    77    1
    35    80    81    1
    36    32    33    1
    37    32    35    1
    38    33    34    2
    39    36    35    1
    40    82    81    2
    41    77    76    1
    42    81    83   am
    43    71    70    2
    44    70    69    1
    45   105   104    1
    46    75    73    1
    47    73    72    1
    48    73    74    1
    49    72    69    1
    50    69    68    1
    51   104   106    1
    52   104   101    1
    53   103   102    2
    54   102   101    1
    55   101   100    1
    56    94    95    2
    57    94    93    1
    58    59    57    1
    59    96    93    1
    60    96    97    1
    61    87    86    2
    62   115   113   am
    63   114   113    2
    64    93    92    1
    65    86    85    1
    66    66    65    1
    67   113   112    1
    68    57    58    1
    69    57    56    1
    70    90    88    1
    71    65    67    1
    72    65    64    1
    73   125   123   ar
    74   125   126   ar
    75    99    97   am
    76    97    98    2
    77    44    43    1
    78   123   121   ar
    79    45    43    1
    80   111   112    1
    81   111   108    1
    82    88    85    1
    83    88    89    1
    84    85    84    1
    85   126   124   ar
    86    51    50    1
    87    55    54    2
    88    56    53    1
    89    64    61    1
    90    43    42    1
    91    61    60    1
    92    61    62    1
    93    50    47    1
    94    54    60   am
    95    54    53    1
    96    63    62    2
    97   121   120    1
    98   121   122   ar
    99    42    39    1
   100   109   108    1
   101   109   110    2
   102   108   107    1
   103   124   122   ar
   104    53    52    1
   105   120   117    1
   106    89    91    1
   107    49    48    2
   108    41    40    2
   109    47    48    1
   110    47    46    1
   111    39    40    1
   112    39    38    1
   113   117   118    1
   114   117   116    1
   115   118   119    2
