@<TRIPOS>MOLECULE
tmp/6eurD00.pdb
 122 114 0 0 0
SMALL
GASTEIGER

@<TRIPOS>ATOM
      1  N         14.0040   43.5860  -37.7050 N.3   137  VAL137     -0.1245
      2  CA        13.3490   43.0080  -38.8770 C.3   137  VAL137      0.1561
      3  C         13.5640   44.0410  -40.0020 C.2   137  VAL137      0.2260
      4  O         12.9000   45.0780  -40.0250 O.2   137  VAL137     -0.2867
      5  CB        11.8490   42.6520  -38.6100 C.3   137  VAL137      0.0252
      6  CG1       11.1710   42.0500  -39.8360 C.3   137  VAL137      0.0019
      7  CG2       11.6980   41.7090  -37.4130 C.3   137  VAL137      0.0019
      8  N         10.4810   37.8280  -42.8550 N.3   149  GLY149     -0.1225
      9  CA        10.5780   39.1800  -42.3180 C.3   149  GLY149      0.1811
     10  C         11.6000   40.0140  -43.0690 C.2   149  GLY149      0.2280
     11  O         11.4430   41.2330  -43.1910 O.2   149  GLY149     -0.2866
     12  N          3.4180   39.3770  -47.5170 N.3   156  LEU156     -0.1245
     13  CA         3.6470   38.4590  -46.4090 C.3   156  LEU156      0.1561
     14  C          2.2330   38.1160  -45.8880 C.2   156  LEU156      0.2260
     15  O          1.5980   38.9510  -45.2510 O.2   156  LEU156     -0.2867
     16  CB         4.5470   39.0890  -45.3250 C.3   156  LEU156      0.0270
     17  CG         5.0250   38.1750  -44.1940 C.3   156  LEU156      0.0019
     18  CD1        6.1150   37.2300  -44.6620 C.3   156  LEU156      0.0001
     19  CD2        5.5620   38.9800  -43.0780 C.3   156  LEU156      0.0001
     20  N         -0.3610   35.2470  -40.7650 N.3   159  HIS159     -0.1241
     21  CA         0.1050   34.0980  -40.0130 C.3   159  HIS159      0.1621
     22  C          0.2580   34.4680  -38.5370 C.2   159  HIS159      0.2264
     23  O          0.5450   35.6250  -38.1950 O.2   159  HIS159     -0.2867
     24  CB         1.4530   33.5730  -40.5830 C.3   159  HIS159      0.0745
     25  CG         2.6100   34.4990  -40.3530 C.ar  159  HIS159      0.0817
     26  ND1        2.8360   35.6000  -41.1680 N.ar  159  HIS159     -0.2268
     27  CD2        3.5320   34.4930  -39.3640 C.ar  159  HIS159      0.1154
     28  CE1        3.8970   36.2030  -40.6710 C.ar  159  HIS159      0.1986
     29  NE2        4.3390   35.5860  -39.5680 N.ar  159  HIS159     -0.2212
     30  N          2.6640   33.7150  -35.3330 N.3   161  GLU161     -0.1245
     31  CA         4.0930   33.4170  -35.2470 C.3   161  GLU161      0.1567
     32  C          4.3580   31.9770  -34.8070 C.2   161  GLU161      0.2260
     33  O          3.7670   31.5150  -33.8420 O.2   161  GLU161     -0.2867
     34  CB         4.7930   34.4100  -34.2940 C.3   161  GLU161      0.0388
     35  CG         6.2590   34.6450  -34.6080 C.3   161  GLU161      0.1160
     36  CD         6.5330   35.2470  -35.9740 C.2   161  GLU161      0.3649
     37  OE1        7.4680   34.7670  -36.6530 O.co2 161  GLU161     -0.2457
     38  OE2        5.7480   36.1170  -36.4100 O.co2 161  GLU161     -0.2457
     39  N          5.6490   44.6640  -32.1330 N.3   174  PHE174     -0.1241
     40  CA         6.3120   45.1150  -33.3610 C.3   174  PHE174      0.1605
     41  C          6.4700   46.6210  -33.2430 C.2   174  PHE174      0.2264
     42  O          5.4810   47.3450  -33.3200 O.2   174  PHE174     -0.2867
     43  CB         5.5070   44.7550  -34.6280 C.3   174  PHE174      0.0534
     44  CG         5.2100   43.2930  -34.8370 C.ar  174  PHE174     -0.0203
     45  CD1        6.2190   42.4020  -35.1750 C.ar  174  PHE174     -0.0042
     46  CD2        3.9170   42.8100  -34.7330 C.ar  174  PHE174     -0.0042
     47  CE1        5.9410   41.0520  -35.4140 C.ar  174  PHE174     -0.0003
     48  CE2        3.6440   41.4480  -34.9280 C.ar  174  PHE174     -0.0003
     49  CZ         4.6600   40.5820  -35.2800 C.ar  174  PHE174     -0.0000
     50  N          7.8000   49.9560  -34.8270 N.3   176  TYR176     -0.1241
     51  CA         8.1880   50.5140  -36.1170 C.3   176  TYR176      0.1605
     52  C          9.0890   51.7150  -35.9450 C.2   176  TYR176      0.2264
     53  O          8.6650   52.7330  -35.4120 O.2   176  TYR176     -0.2867
     54  CB         6.9580   50.8180  -36.9930 C.3   176  TYR176      0.0534
     55  CG         6.1920   49.5530  -37.3150 C.ar  176  TYR176     -0.0201
     56  CD1        5.2490   49.0410  -36.4280 C.ar  176  TYR176     -0.0009
     57  CD2        6.4600   48.8270  -38.4750 C.ar  176  TYR176     -0.0009
     58  CE1        4.5970   47.8340  -36.6790 C.ar  176  TYR176      0.0417
     59  CE2        5.7910   47.6350  -38.7540 C.ar  176  TYR176      0.0417
     60  CZ         4.8660   47.1370  -37.8470 C.ar  176  TYR176      0.1957
     61  OH         4.2010   45.9630  -38.1150 O.3   176  TYR176     -0.2866
     62  N          0.2650   47.2290  -42.4310 N.3   185  SER185     -0.1217
     63  CA         0.4020   46.0590  -41.5720 C.3   185  SER185      0.1889
     64  C         -0.9350   45.3220  -41.6730 C.2   185  SER185      0.2288
     65  O         -1.9890   45.9400  -41.5020 O.2   185  SER185     -0.2866
     66  CB         0.7160   46.4560  -40.1270 C.3   185  SER185      0.2089
     67  OG         2.1150   46.5630  -39.9400 O.3   185  SER185     -0.2183
     68  N         -0.7530   38.0790  -38.1990 N.3   284  HIS284     -0.1226
     69  CA        -0.1670   39.2950  -38.7540 C.3   284  HIS284      0.1752
     70  C          0.5280   39.0290  -40.0960 C.2   284  HIS284      0.2597
     71  O          0.8360   37.8840  -40.4310 O.2   284  HIS284     -0.2718
     72  CB         0.8270   39.9130  -37.7540 C.3   284  HIS284      0.0759
     73  CG         1.9660   39.0020  -37.4470 C.ar  284  HIS284      0.0818
     74  ND1        1.8340   37.9910  -36.5290 N.ar  284  HIS284     -0.2268
     75  CD2        3.1950   38.9400  -37.9950 C.ar  284  HIS284      0.1154
     76  CE1        2.9860   37.3520  -36.5300 C.ar  284  HIS284      0.1986
     77  NE2        3.8350   37.8830  -37.4030 N.ar  284  HIS284     -0.2212
     78  N          0.8070   40.1080  -40.8070 N.am  285  GLY285     -0.1942
     79  CA         1.5140   40.1140  -42.0790 C.3   285  GLY285      0.2014
     80  C          1.7630   41.5390  -42.5280 C.2   285  GLY285      0.2638
     81  O          1.5300   42.4850  -41.7700 O.2   285  GLY285     -0.2714
     82  N          2.2480   41.7010  -43.7590 N.am  286  ARG286     -0.1977
     83  CA         2.5240   43.0080  -44.3730 C.3   286  ARG286      0.1597
     84  C          2.4060   42.8950  -45.8900 C.2   286  ARG286      0.2287
     85  O          2.7680   41.8580  -46.4500 O.2   286  ARG286     -0.2864
     86  CB         3.8970   43.5990  -43.9420 C.3   286  ARG286      0.0334
     87  CG         5.0890   42.6480  -44.0780 C.3   286  ARG286      0.0492
     88  CD         6.2310   43.2240  -44.8980 C.3   286  ARG286      0.2205
     89  NE         7.0800   42.1640  -45.4490 N.pl3 286  ARG286     -0.0865
     90  CZ         6.9750   41.6750  -46.6820 C.cat 286  ARG286      0.5346
     91  NH1        6.0780   42.1710  -47.5270 N.pl3 286  ARG286      0.1354
     92  NH2        7.7770   40.7010  -47.0860 N.pl3 286  ARG286      0.1354
     93  N         12.8180   50.3530  -44.4020 N.3   306  ARG306     -0.1245
     94  CA        11.9460   49.8810  -43.3320 C.3   306  ARG306      0.1563
     95  C         12.7360   49.1950  -42.2380 C.2   306  ARG306      0.2260
     96  O         13.6670   48.4250  -42.5080 O.2   306  ARG306     -0.2867
     97  CB        10.8890   48.9280  -43.8930 C.3   306  ARG306      0.0307
     98  CG         9.6530   48.7650  -43.0390 C.3   306  ARG306      0.0489
     99  CD         8.6350   47.9940  -43.8290 C.3   306  ARG306      0.2205
    100  NE         7.4270   47.6690  -43.0740 N.pl3 306  ARG306     -0.0865
    101  CZ         7.2230   46.5120  -42.4540 C.cat 306  ARG306      0.5346
    102  NH1        8.1730   45.5820  -42.4380 N.pl3 306  ARG306      0.1354
    103  NH2        6.0770   46.2820  -41.8250 N.pl3 306  ARG306      0.1354
    104  N         11.8310   47.5890  -38.2880 N.3   308  MET308     -0.1245
    105  CA        10.9120   47.2230  -37.2340 C.3   308  MET308      0.1570
    106  C         11.6670   46.3490  -36.2180 C.2   308  MET308      0.2261
    107  O         12.5650   45.5970  -36.6040 O.2   308  MET308     -0.2867
    108  CB         9.6880   46.5130  -37.8480 C.3   308  MET308      0.0387
    109  CG         8.6310   46.0810  -36.8350 C.3   308  MET308      0.0595
    110  SD         8.8280   44.3650  -36.2700 S.3   308  MET308     -0.1393
    111  CE         8.2680   43.4920  -37.7190 C.3   308  MET308      0.0692
    112  N         11.1900   43.4370  -33.2030 N.3   310  ARG310     -0.1245
    113  CA        10.2920   42.4020  -32.7040 C.3   310  ARG310      0.1563
    114  C         10.7530   41.7220  -31.3990 C.2   310  ARG310      0.2260
    115  O         11.8920   41.2610  -31.2690 O.2   310  ARG310     -0.2867
    116  CB        10.0170   41.3490  -33.7940 C.3   310  ARG310      0.0307
    117  CG         8.9430   40.3340  -33.3630 C.3   310  ARG310      0.0489
    118  CD         8.9240   39.0990  -34.2120 C.3   310  ARG310      0.2205
    119  NE        10.2160   38.4140  -34.1890 N.pl3 310  ARG310     -0.0865
    120  CZ        10.5770   37.4880  -35.0640 C.cat 310  ARG310      0.5346
    121  NH1        9.7470   37.1210  -36.0310 N.pl3 310  ARG310      0.1354
    122  NH2       11.7770   36.9310  -34.9910 N.pl3 310  ARG310      0.1354
@<TRIPOS>BOND
     1    91    90    1
     2    12    13    1
     3    92    90    1
     4    90    89    2
     5    85    84    2
     6    13    14    1
     7    13    16    1
     8    84    83    1
     9    14    15    2
    10    89    88    1
    11    16    17    1
    12    88    87    1
    13    18    17    1
    14    93    94    1
    15    83    86    1
    16    83    82    1
    17    17    19    1
    18    87    86    1
    19    97    94    1
    20    97    98    1
    21    99   100    1
    22    99    98    1
    23    82    80   am
    24    94    95    1
    25    11    10    2
    26   100   101    2
    27    10     9    1
    28     8     9    1
    29    80    79    1
    30    80    81    2
    31    96    95    2
    32   101   102    1
    33   101   103    1
    34    62    63    1
    35    79    78    1
    36    64    63    1
    37    64    65    2
    38    63    66    1
    39    26    28   ar
    40    26    25   ar
    41    78    70   am
    42    20    21    1
    43    28    29   ar
    44    24    25    1
    45    24    21    1
    46    71    70    2
    47    25    27   ar
    48    66    67    1
    49    70    69    1
    50     4     3    2
    51    21    22    1
    52     3     2    1
    53     6     5    1
    54    29    27   ar
    55     2     5    1
    56     2     1    1
    57    69    68    1
    58    69    72    1
    59    59    57   ar
    60    59    60   ar
    61     5     7    1
    62    22    23    2
    63    57    55   ar
    64   104   105    1
    65    61    60    1
    66    75    73   ar
    67    75    77   ar
    68   108   105    1
    69   108   109    1
    70    60    58   ar
    71    72    73    1
    72   111   110    1
    73    73    74   ar
    74    77    76   ar
    75    55    54    1
    76    55    56   ar
    77   105   106    1
    78    54    51    1
    79   109   110    1
    80    58    56   ar
    81    37    36   ar
    82   107   106    2
    83    76    74   ar
    84    38    36   ar
    85    51    52    1
    86    51    50    1
    87   121   120    1
    88    36    35    1
    89    52    53    2
    90    47    49   ar
    91    47    45   ar
    92    30    31    1
    93    49    48   ar
    94    31    32    1
    95    31    34    1
    96    45    44   ar
    97   120   122    1
    98   120   119    2
    99    48    46   ar
   100    44    46   ar
   101    44    43    1
   102    32    33    2
   103    43    40    1
   104    35    34    1
   105   118   119    1
   106   118   117    1
   107   116   117    1
   108   116   113    1
   109    40    41    1
   110    40    39    1
   111    42    41    2
   112   112   113    1
   113   113   114    1
   114   114   115    2
