@<TRIPOS>MOLECULE
tmp/6eutB00.pdb
 195 190 0 0 0
SMALL
GASTEIGER

@<TRIPOS>ATOM
      1  N        -10.4640   40.7600  -31.7350 N.3     1  ASN1       -0.1240
      2  CA       -11.4220   41.1100  -30.6960 C.3     1  ASN1        0.1653
      3  C        -10.9960   42.3700  -29.9740 C.2     1  ASN1        0.2266
      4  O         -9.8140   42.5600  -29.6850 O.2     1  ASN1       -0.2867
      5  CB       -11.5790   39.9920  -29.6430 C.3     1  ASN1        0.1155
      6  CG       -12.3030   38.7740  -30.1690 C.2     1  ASN1        0.2627
      7  OD1      -13.0610   38.8510  -31.1380 O.2     1  ASN1       -0.2716
      8  ND2      -12.0730   37.6300  -29.5210 N.am    1  ASN1       -0.0877
      9  N         -0.8100   30.3660  -34.9790 N.3    44  ILE44      -0.1245
     10  CA        -1.5740   29.1250  -34.8720 C.3    44  ILE44       0.1561
     11  C         -0.7210   28.1010  -34.1350 C.2    44  ILE44       0.2260
     12  O          0.4700   27.9350  -34.4370 O.2    44  ILE44      -0.2867
     13  CB        -1.9980   28.5750  -36.2410 C.3    44  ILE44       0.0252
     14  CG1       -2.6770   29.6740  -37.0720 C.3    44  ILE44       0.0019
     15  CG2       -2.8800   27.3480  -36.0530 C.3    44  ILE44       0.0019
     16  CD1       -2.9070   29.2720  -38.4930 C.3    44  ILE44       0.0001
     17  N         -5.8710   19.5420  -30.0560 N.3    60  GLN60      -0.1231
     18  CA        -6.6230   20.7800  -30.1910 C.3    60  GLN60       0.1698
     19  C         -5.7740   21.7890  -30.9520 C.2    60  GLN60       0.2592
     20  O         -4.5660   21.8020  -30.7900 O.2    60  GLN60      -0.2718
     21  CB        -6.9470   21.2930  -28.7870 C.3    60  GLN60       0.0381
     22  CG        -7.6360   22.6120  -28.6590 C.3    60  GLN60       0.0905
     23  CD        -9.0720   22.5340  -29.0510 C.2    60  GLN60       0.2608
     24  OE1       -9.8700   21.7810  -28.4680 O.2    60  GLN60      -0.2717
     25  NE2       -9.4260   23.3320  -30.0510 N.am   60  GLN60      -0.0878
     26  N         -6.4070   22.6160  -31.7760 N.am   61  TYR61      -0.1962
     27  CA        -5.7610   23.7590  -32.4180 C.3    61  TYR61       0.1771
     28  C         -6.2730   25.0460  -31.8010 C.2    61  TYR61       0.2620
     29  O         -7.4560   25.1620  -31.4270 O.2    61  TYR61      -0.2715
     30  CB        -5.9950   23.7700  -33.9460 C.3    61  TYR61       0.0574
     31  CG        -5.4570   22.5660  -34.6370 C.ar   61  TYR61      -0.0198
     32  CD1       -4.1080   22.4830  -34.9830 C.ar   61  TYR61      -0.0009
     33  CD2       -6.2810   21.4920  -34.9460 C.ar   61  TYR61      -0.0009
     34  CE1       -3.5950   21.3450  -35.6130 C.ar   61  TYR61       0.0417
     35  CE2       -5.7780   20.3520  -35.5680 C.ar   61  TYR61       0.0417
     36  CZ        -4.4370   20.2870  -35.9020 C.ar   61  TYR61       0.1957
     37  OH        -3.9470   19.1580  -36.5220 O.3    61  TYR61      -0.2866
     38  N         -5.3760   26.0040  -31.6830 N.am   62  TYR62      -0.1960
     39  CA        -5.7000   27.3430  -31.2090 C.3    62  TYR62       0.1771
     40  C         -5.0820   28.3910  -32.1270 C.2    62  TYR62       0.2619
     41  O         -3.9370   28.2340  -32.5650 O.2    62  TYR62      -0.2715
     42  CB        -5.1570   27.6030  -29.7980 C.3    62  TYR62       0.0574
     43  CG        -5.5720   26.6500  -28.7170 C.ar   62  TYR62      -0.0198
     44  CD1       -6.7420   26.8340  -28.0240 C.ar   62  TYR62      -0.0009
     45  CD2       -4.7380   25.5960  -28.3320 C.ar   62  TYR62      -0.0009
     46  CE1       -7.1240   25.9510  -27.0280 C.ar   62  TYR62       0.0417
     47  CE2       -5.1090   24.7240  -27.3280 C.ar   62  TYR62       0.0417
     48  CZ        -6.2900   24.9160  -26.6760 C.ar   62  TYR62       0.1957
     49  OH        -6.6420   24.0530  -25.6690 O.3    62  TYR62      -0.2866
     50  N         -5.8020   29.4890  -32.3430 N.am   63  LYS63      -0.1977
     51  CA        -5.2770   30.6520  -33.0590 C.3    63  LYS63       0.1596
     52  C         -5.3950   31.8750  -32.1730 C.2    63  LYS63       0.2287
     53  O         -6.2570   31.9520  -31.2880 O.2    63  LYS63      -0.2864
     54  CB        -6.0080   30.9100  -34.3820 C.3    63  LYS63       0.0298
     55  CG        -7.5250   31.2330  -34.2070 C.3    63  LYS63       0.0038
     56  CD        -8.1360   31.8690  -35.4850 C.3    63  LYS63       0.0206
     57  CE        -7.9570   33.4000  -35.5820 C.3    63  LYS63       0.1093
     58  NZ        -8.6270   34.1510  -34.4350 N.3    63  LYS63      -0.1314
     59  N         -6.5140   35.5700  -31.2710 N.3    65  ALA65      -0.1231
     60  CA        -6.2320   35.7400  -29.8690 C.3    65  ALA65       0.1694
     61  C         -6.9790   34.6920  -29.0440 C.2    65  ALA65       0.2592
     62  O         -8.1820   34.5070  -29.2230 O.2    65  ALA65      -0.2718
     63  CB        -6.6660   37.1180  -29.4510 C.3    65  ALA65       0.0304
     64  N         -6.2880   34.0770  -28.1020 N.am   66  PHE66      -0.1976
     65  CA        -6.9130   33.1170  -27.1980 C.3    66  PHE66       0.1639
     66  C         -6.0530   32.9750  -25.9590 C.2    66  PHE66       0.2290
     67  O         -4.9110   33.4420  -25.9170 O.2    66  PHE66      -0.2864
     68  CB        -7.0920   31.7770  -27.8620 C.3    66  PHE66       0.0560
     69  CG        -8.2870   30.9970  -27.3250 C.ar   66  PHE66      -0.0200
     70  CD1       -9.5740   31.4890  -27.4950 C.ar   66  PHE66      -0.0042
     71  CD2       -8.1100   29.7920  -26.6410 C.ar   66  PHE66      -0.0042
     72  CE1      -10.6820   30.7850  -27.0180 C.ar   66  PHE66      -0.0003
     73  CE2       -9.2220   29.0670  -26.1580 C.ar   66  PHE66      -0.0003
     74  CZ       -10.4990   29.5710  -26.3410 C.ar   66  PHE66      -0.0000
     75  N        -15.8670   28.8690  -24.0670 N.3   121  LYS121     -0.1231
     76  CA       -15.8440   28.6530  -25.5080 C.3   121  LYS121      0.1693
     77  C        -15.1510   27.3500  -25.8340 C.2   121  LYS121      0.2591
     78  O        -15.5790   26.6260  -26.7510 O.2   121  LYS121     -0.2718
     79  CB       -15.1400   29.8050  -26.2330 C.3   121  LYS121      0.0285
     80  CG       -16.0510   30.9380  -26.5390 C.3   121  LYS121      0.0035
     81  CD       -15.4880   31.9400  -27.5880 C.3   121  LYS121      0.0206
     82  CE       -16.3340   33.2350  -27.5610 C.3   121  LYS121      0.1093
     83  NZ       -15.5220   34.4920  -27.3770 N.3   121  LYS121     -0.1314
     84  N        -14.1020   27.0140  -25.0690 N.am  122  GLN122     -0.1979
     85  CA       -13.4060   25.7430  -25.2580 C.3   122  GLN122      0.1601
     86  C        -14.2880   24.5500  -24.9040 C.2   122  GLN122      0.2287
     87  O        -14.3160   23.5520  -25.6320 O.2   122  GLN122     -0.2864
     88  CB       -12.1330   25.6510  -24.3950 C.3   122  GLN122      0.0394
     89  CG       -10.9730   26.4740  -24.7490 C.3   122  GLN122      0.0908
     90  CD        -9.6810   25.8460  -24.2090 C.2   122  GLN122      0.2608
     91  OE1       -9.3160   24.7040  -24.5780 O.2   122  GLN122     -0.2717
     92  NE2       -8.9830   26.5820  -23.3260 N.am  122  GLN122     -0.0878
     93  N        -16.8780   24.1490  -27.5520 N.3   125  TYR125     -0.1241
     94  CA       -16.2300   23.6150  -28.7560 C.3   125  TYR125      0.1605
     95  C        -16.0780   22.0920  -28.6960 C.2   125  TYR125      0.2264
     96  O        -16.4300   21.3870  -29.6480 O.2   125  TYR125     -0.2867
     97  CB       -14.8500   24.2730  -28.9470 C.3   125  TYR125      0.0534
     98  CG       -14.0980   23.7580  -30.1610 C.ar  125  TYR125     -0.0201
     99  CD1      -14.4400   24.1580  -31.4580 C.ar  125  TYR125     -0.0009
    100  CD2      -13.0410   22.8580  -30.0000 C.ar  125  TYR125     -0.0009
    101  CE1      -13.7530   23.6500  -32.5780 C.ar  125  TYR125      0.0417
    102  CE2      -12.3330   22.3410  -31.1160 C.ar  125  TYR125      0.0417
    103  CZ       -12.6880   22.7380  -32.3850 C.ar  125  TYR125      0.1957
    104  OH       -11.9660   22.2410  -33.4460 O.3   125  TYR125     -0.2866
    105  N        -13.7520   20.7840  -39.5850 N.3   145  GLN145     -0.1245
    106  CA       -12.4690   21.4800  -39.6590 C.3   145  GLN145      0.1566
    107  C        -12.4280   22.4280  -40.8610 C.2   145  GLN145      0.2260
    108  O        -12.0630   23.6070  -40.7370 O.2   145  GLN145     -0.2867
    109  CB       -11.3310   20.4510  -39.7280 C.3   145  GLN145      0.0367
    110  CG       -10.0750   20.8320  -38.9900 C.3   145  GLN145      0.0905
    111  CD        -8.9930   19.7480  -39.0890 C.2   145  GLN145      0.2608
    112  OE1       -8.4420   19.5080  -40.1650 O.2   145  GLN145     -0.2717
    113  NE2       -8.7070   19.0810  -37.9740 N.am  145  GLN145     -0.0878
    114  N        -14.6250   25.6530  -40.1630 N.3   148  ILE148     -0.1231
    115  CA       -14.0490   26.7220  -39.3480 C.3   148  ILE148      0.1692
    116  C        -12.9260   27.4240  -40.1240 C.2   148  ILE148      0.2591
    117  O        -12.8150   28.6600  -40.1050 O.2   148  ILE148     -0.2718
    118  CB       -13.5810   26.1570  -37.9870 C.3   148  ILE148      0.0266
    119  CG1      -14.7830   25.6370  -37.1520 C.3   148  ILE148      0.0019
    120  CG2      -12.7830   27.1970  -37.1810 C.3   148  ILE148      0.0020
    121  CD1      -15.9990   26.6570  -36.9680 C.3   148  ILE148      0.0001
    122  N        -12.1680   26.6670  -40.9110 N.am  149  LEU149     -0.1980
    123  CA       -11.1400   27.2690  -41.7580 C.3   149  LEU149      0.1596
    124  C        -11.7660   28.1990  -42.7790 C.2   149  LEU149      0.2287
    125  O        -11.2610   29.3020  -43.0260 O.2   149  LEU149     -0.2864
    126  CB       -10.3360   26.1940  -42.4870 C.3   149  LEU149      0.0297
    127  CG        -9.4330   25.2950  -41.6450 C.3   149  LEU149      0.0022
    128  CD1       -8.6090   24.4160  -42.5470 C.3   149  LEU149      0.0001
    129  CD2       -8.5240   26.1110  -40.7690 C.3   149  LEU149      0.0001
    130  N        -12.8920   31.2820  -40.8860 N.3   152  VAL152     -0.1231
    131  CA       -11.8470   32.1100  -40.2820 C.3   152  VAL152      0.1692
    132  C        -10.8500   32.6200  -41.3270 C.2   152  VAL152      0.2592
    133  O        -10.3920   33.7650  -41.2540 O.2   152  VAL152     -0.2718
    134  CB       -11.1260   31.3170  -39.1720 C.3   152  VAL152      0.0266
    135  CG1      -10.0210   32.1510  -38.5910 C.3   152  VAL152      0.0020
    136  CG2      -12.1010   30.9580  -38.0630 C.3   152  VAL152      0.0020
    137  N        -10.4860   31.7820  -42.2920 N.am  153  TYR153     -0.1976
    138  CA        -9.4410   32.1280  -43.2540 C.3   153  TYR153      0.1639
    139  C         -9.9580   32.1820  -44.6830 C.2   153  TYR153      0.2290
    140  O         -9.1510   32.2550  -45.6170 O.2   153  TYR153     -0.2864
    141  CB        -8.2920   31.1270  -43.1580 C.3   153  TYR153      0.0560
    142  CG        -7.6550   31.1200  -41.7960 C.ar  153  TYR153     -0.0198
    143  CD1       -6.9310   32.2220  -41.3450 C.ar  153  TYR153     -0.0009
    144  CD2       -7.7840   30.0180  -40.9490 C.ar  153  TYR153     -0.0009
    145  CE1       -6.3520   32.2380  -40.1000 C.ar  153  TYR153      0.0417
    146  CE2       -7.2080   30.0210  -39.6890 C.ar  153  TYR153      0.0417
    147  CZ        -6.4790   31.1350  -39.2730 C.ar  153  TYR153      0.1957
    148  OH        -5.9140   31.1810  -38.0220 O.3   153  TYR153     -0.2866
    149  N         -1.8170   20.9530  -40.7970 N.3   173  LEU173     -0.1245
    150  CA        -3.1740   20.6500  -40.3500 C.3   173  LEU173      0.1561
    151  C         -3.7090   19.3300  -40.8970 C.2   173  LEU173      0.2260
    152  O         -4.7790   18.8870  -40.4620 O.2   173  LEU173     -0.2867
    153  CB        -4.1320   21.7870  -40.7490 C.3   173  LEU173      0.0270
    154  CG        -3.9330   23.1590  -40.0860 C.3   173  LEU173      0.0019
    155  CD1       -4.7090   24.2270  -40.8170 C.3   173  LEU173      0.0001
    156  CD2       -4.3490   23.1480  -38.6240 C.3   173  LEU173      0.0001
    157  N        -21.0470   22.0600  -34.8390 N.3   213  LEU213     -0.1245
    158  CA       -19.9760   23.0360  -34.8790 C.3   213  LEU213      0.1561
    159  C        -20.4190   24.3300  -35.5490 C.2   213  LEU213      0.2260
    160  O        -19.9360   25.4130  -35.1920 O.2   213  LEU213     -0.2867
    161  CB       -18.7450   22.5060  -35.6230 C.3   213  LEU213      0.0270
    162  CG       -17.4620   22.0840  -34.8940 C.3   213  LEU213      0.0019
    163  CD1      -16.3230   22.0450  -35.9160 C.3   213  LEU213      0.0001
    164  CD2      -17.0730   22.9460  -33.7330 C.3   213  LEU213      0.0001
    165  N        -22.1730   26.0840  -32.8830 N.3   216  TRP216     -0.1227
    166  CA       -21.1700   26.6370  -31.9730 C.3   216  TRP216      0.1737
    167  C        -20.5740   27.9090  -32.5250 C.2   216  TRP216      0.2595
    168  O        -20.4270   28.8870  -31.7870 O.2   216  TRP216     -0.2718
    169  CB       -20.0530   25.6040  -31.6940 C.3   216  TRP216      0.0564
    170  CG       -18.9400   26.1600  -30.8910 C.ar  216  TRP216      0.0003
    171  CD1      -18.8890   26.3070  -29.5500 C.ar  216  TRP216      0.0946
    172  CD2      -17.7150   26.6460  -31.4040 C.ar  216  TRP216      0.0152
    173  NE1      -17.6830   26.8770  -29.1800 N.ar  216  TRP216     -0.2442
    174  CE2      -16.9530   27.0880  -30.3230 C.ar  216  TRP216      0.0810
    175  CE3      -17.1830   26.7440  -32.6990 C.ar  216  TRP216      0.0012
    176  CZ2      -15.7010   27.6430  -30.4910 C.ar  216  TRP216      0.0191
    177  CZ3      -15.9260   27.2770  -32.8600 C.ar  216  TRP216      0.0001
    178  CH2      -15.2170   27.7470  -31.7700 C.ar  216  TRP216      0.0015
    179  N        -20.2590   27.9430  -33.8250 N.am  217  PHE217     -0.1976
    180  CA       -19.6250   29.1390  -34.3630 C.3   217  PHE217      0.1639
    181  C        -20.6040   30.3320  -34.3670 C.2   217  PHE217      0.2290
    182  O        -20.2430   31.4580  -33.9750 O.2   217  PHE217     -0.2864
    183  CB       -19.0640   28.8730  -35.7520 C.3   217  PHE217      0.0560
    184  CG       -17.9420   29.8480  -36.1340 C.ar  217  PHE217     -0.0200
    185  CD1      -16.6690   29.7310  -35.5930 C.ar  217  PHE217     -0.0042
    186  CD2      -18.2020   30.9240  -36.9680 C.ar  217  PHE217     -0.0042
    187  CE1      -15.6810   30.6450  -35.9040 C.ar  217  PHE217     -0.0003
    188  CE2      -17.2110   31.8370  -37.3020 C.ar  217  PHE217     -0.0003
    189  CZ       -15.9490   31.7070  -36.7690 C.ar  217  PHE217     -0.0000
    190  N        -19.0360   32.8160  -32.0720 N.3   221  CYS221     -0.1235
    191  CA       -18.3800   33.8300  -32.9090 C.3   221  CYS221      0.1677
    192  C        -19.3220   34.4400  -33.9460 C.2   221  CYS221      0.2270
    193  O        -19.0990   34.3120  -35.1550 O.2   221  CYS221     -0.2867
    194  CB       -17.1650   33.1960  -33.5900 C.3   221  CYS221      0.0956
    195  SG       -16.3700   31.8090  -32.6610 S.3   221  CYS221     -0.0801
@<TRIPOS>BOND
     1   140   139    2
     2   139   138    1
     3   138   141    1
     4   138   137    1
     5   141   142    1
     6   125   124    2
     7   124   123    1
     8   128   127    1
     9   126   123    1
    10   126   127    1
    11   137   132   am
    12   142   143   ar
    13   142   144   ar
    14   123   122    1
    15   127   129    1
    16   143   145   ar
    17   132   133    2
    18   132   131    1
    19   144   146   ar
    20   122   116   am
    21   151   152    2
    22   151   150    1
    23   130   131    1
    24   107   108    2
    25   107   106    1
    26   155   154    1
    27   149   150    1
    28   153   150    1
    29   153   154    1
    30   131   134    1
    31   112   111    2
    32   114   115    1
    33   116   117    2
    34   116   115    1
    35   145   147   ar
    36   154   156    1
    37   109   106    1
    38   109   110    1
    39   146   147   ar
    40   106   105    1
    41   115   118    1
    42   147   148    1
    43   134   135    1
    44   134   136    1
    45   111   110    1
    46   111   113   am
    47    16    14    1
    48   118   120    1
    49   118   119    1
    50   188   186   ar
    51   188   189   ar
    52   119   121    1
    53    14    13    1
    54   186   184   ar
    55   189   187   ar
    56    37    36    1
    57    13    15    1
    58    13    10    1
    59   184   183    1
    60   184   185   ar
    61   163   162    1
    62   187   185   ar
    63    36    34   ar
    64    36    35   ar
    65   183   180    1
    66   161   162    1
    67   161   158    1
    68    34    32   ar
    69    57    56    1
    70    57    58    1
    71    35    33   ar
    72   159   160    2
    73   159   158    1
    74    56    55    1
    75   193   192    2
    76    32    31   ar
    77     9    10    1
    78    33    31   ar
    79   162   164    1
    80   158   157    1
    81    10    11    1
    82    31    30    1
    83    12    11    2
    84    54    55    1
    85    54    51    1
    86   181   180    1
    87   181   182    2
    88   180   179    1
    89   192   191    1
    90    30    27    1
    91   179   167   am
    92   194   191    1
    93   194   195    1
    94   104   103    1
    95    51    50    1
    96    51    52    1
    97   191   190    1
    98   165   166    1
    99   177   175   ar
   100   177   178   ar
   101   175   172   ar
   102   101   103   ar
   103   101    99   ar
   104    41    40    2
   105   167   166    1
   106   167   168    2
   107    27    28    1
   108    27    26    1
   109   103   102   ar
   110    50    40   am
   111    52    53    2
   112    40    39    1
   113   166   169    1
   114    28    38   am
   115    28    29    2
   116    26    19   am
   117   178   176   ar
   118     1     2    1
   119   169   170    1
   120    38    39    1
   121    99    98   ar
   122   172   170   ar
   123   172   174   ar
   124    59    60    1
   125    39    42    1
   126     7     6    2
   127   102   100   ar
   128    19    20    2
   129    19    18    1
   130   170   171   ar
   131     2     3    1
   132     2     5    1
   133   176   174   ar
   134   174   173   ar
   135    18    17    1
   136    18    21    1
   137     6     5    1
   138     6     8   am
   139    98   100   ar
   140    98    97    1
   141    25    23   am
   142     3     4    2
   143    60    63    1
   144    60    61    1
   145    42    43    1
   146    96    95    2
   147   171   173   ar
   148    62    61    2
   149    23    22    1
   150    23    24    2
   151    61    64   am
   152    97    94    1
   153    21    22    1
   154    94    95    1
   155    94    93    1
   156    43    45   ar
   157    43    44   ar
   158    45    47   ar
   159    64    65    1
   160    44    46   ar
   161    68    69    1
   162    68    65    1
   163    81    82    1
   164    81    80    1
   165    82    83    1
   166    70    69   ar
   167    70    72   ar
   168    47    48   ar
   169    69    71   ar
   170    65    66    1
   171    46    48   ar
   172    72    74   ar
   173    78    77    2
   174    48    49    1
   175    71    73   ar
   176    80    79    1
   177    74    73   ar
   178    79    76    1
   179    66    67    2
   180    77    76    1
   181    77    84   am
   182    87    86    2
   183    76    75    1
   184    85    84    1
   185    85    86    1
   186    85    88    1
   187    89    88    1
   188    89    90    1
   189    91    90    2
   190    90    92   am
