@<TRIPOS>MOLECULE
tmp/6euxA00.pdb
 189 180 0 0 0
SMALL
GASTEIGER

@<TRIPOS>ATOM
      1  N         17.6070  -16.4420   -6.2010 N.3    40  GLN40      -0.1231
      2  CA        17.8450  -17.8870   -6.2480 C.3    40  GLN40       0.1698
      3  C         17.2690  -18.5400   -4.9870 C.2    40  GLN40       0.2592
      4  O         17.3530  -17.9700   -3.8960 O.2    40  GLN40      -0.2718
      5  CB        19.3480  -18.1730   -6.3650 C.3    40  GLN40       0.0381
      6  CG        19.7310  -19.6340   -6.5860 C.3    40  GLN40       0.0905
      7  CD        19.3140  -20.1580   -7.9480 C.2    40  GLN40       0.2608
      8  OE1       19.6720  -19.5910   -8.9820 O.2    40  GLN40      -0.2717
      9  NE2       18.5590  -21.2520   -7.9560 N.am   40  GLN40      -0.0878
     10  N         16.6770  -19.7200   -5.1540 N.am   41  ARG41      -0.1966
     11  CA        16.0580  -20.4630   -4.0560 C.3    41  ARG41       0.1729
     12  C         16.6000  -21.8860   -3.9810 C.2    41  ARG41       0.2616
     13  O         16.8770  -22.5100   -5.0050 O.2    41  ARG41      -0.2715
     14  CB        14.5390  -20.5220   -4.2320 C.3    41  ARG41       0.0348
     15  CG        13.8280  -19.1730   -4.1800 C.3    41  ARG41       0.0492
     16  CD        13.9670  -18.4770   -2.8340 C.3    41  ARG41       0.2205
     17  NE        13.5470  -19.3470   -1.7260 N.pl3  41  ARG41      -0.0865
     18  CZ        12.5960  -19.0830   -0.8240 C.cat  41  ARG41       0.5346
     19  NH1       11.9250  -17.9270   -0.8090 N.pl3  41  ARG41       0.1354
     20  NH2       12.3320  -19.9930    0.1100 N.pl3  41  ARG41       0.1354
     21  N         16.7470  -22.3760   -2.7530 N.am   42  PHE42      -0.1974
     22  CA        17.1070  -23.7570   -2.4810 C.3    42  PHE42       0.1639
     23  C         16.3740  -24.1700   -1.2020 C.2    42  PHE42       0.2290
     24  O         16.8920  -24.0090   -0.0930 O.2    42  PHE42      -0.2864
     25  CB        18.6280  -23.8810   -2.3460 C.3    42  PHE42       0.0560
     26  CG        19.1040  -25.2790   -2.0650 C.ar   42  PHE42      -0.0200
     27  CD1       18.7400  -26.3360   -2.8980 C.ar   42  PHE42      -0.0042
     28  CD2       19.9280  -25.5420   -0.9750 C.ar   42  PHE42      -0.0042
     29  CE1       19.1780  -27.6290   -2.6410 C.ar   42  PHE42      -0.0003
     30  CE2       20.3720  -26.8310   -0.7180 C.ar   42  PHE42      -0.0003
     31  CZ        19.9990  -27.8750   -1.5510 C.ar   42  PHE42      -0.0000
     32  N         23.6410  -13.1880   -5.3060 N.3    49  ARG49      -0.1245
     33  CA        25.0670  -13.0250   -5.6250 C.3    49  ARG49       0.1563
     34  C         25.7000  -11.7830   -4.9980 C.2    49  ARG49       0.2260
     35  O         25.1640  -10.6890   -5.1380 O.2    49  ARG49      -0.2867
     36  CB        25.2180  -12.9260   -7.1470 C.3    49  ARG49       0.0307
     37  CG        26.6280  -12.6870   -7.6740 C.3    49  ARG49       0.0489
     38  CD        27.5220  -13.8850   -7.4520 C.3    49  ARG49       0.2205
     39  NE        27.0500  -15.0680   -8.1740 N.pl3  49  ARG49      -0.0865
     40  CZ        27.7000  -16.2280   -8.2170 C.cat  49  ARG49       0.5346
     41  NH1       28.8650  -16.3740   -7.5920 N.pl3  49  ARG49       0.1354
     42  NH2       27.1870  -17.2540   -8.8930 N.pl3  49  ARG49       0.1354
     43  N         30.1170  -19.0570  -10.5410 N.3    54  GLY54      -0.1225
     44  CA        30.0580  -20.5030  -10.3540 C.3    54  GLY54       0.1811
     45  C         29.8440  -21.2000  -11.6810 C.2    54  GLY54       0.2280
     46  O         29.1620  -20.6680  -12.5560 O.2    54  GLY54      -0.2866
     47  N         29.0140  -25.3350  -13.1240 N.3    56  LYS56      -0.1245
     48  CA        28.5810  -26.6650  -12.7010 C.3    56  LYS56       0.1561
     49  C         29.1840  -27.7300  -13.6100 C.2    56  LYS56       0.2260
     50  O         29.0600  -27.6370  -14.8320 O.2    56  LYS56      -0.2867
     51  CB        27.0530  -26.7550  -12.7470 C.3    56  LYS56       0.0271
     52  CG        26.4740  -27.9950  -12.0790 C.3    56  LYS56       0.0035
     53  CD        24.9520  -27.9620  -12.0250 C.3    56  LYS56       0.0206
     54  CE        24.3280  -28.2820  -13.3690 C.3    56  LYS56       0.1093
     55  NZ        22.8440  -28.3360  -13.2630 N.3    56  LYS56      -0.1314
     56  N         25.8390  -32.4280   -9.7920 N.3    72  GLY72      -0.1225
     57  CA        26.3290  -31.1930  -10.3930 C.3    72  GLY72       0.1811
     58  C         27.1070  -30.4000   -9.3540 C.2    72  GLY72       0.2280
     59  O         26.5130  -29.7070   -8.5200 O.2    72  GLY72      -0.2866
     60  N         29.5540  -27.4470   -8.2210 N.3    74  TRP74      -0.1241
     61  CA        29.8620  -26.0770   -8.6180 C.3    74  TRP74       0.1605
     62  C         31.2950  -25.7070   -8.2550 C.2    74  TRP74       0.2264
     63  O         31.7690  -26.0220   -7.1580 O.2    74  TRP74      -0.2867
     64  CB        28.8610  -25.0990   -8.0000 C.3    74  TRP74       0.0550
     65  CG        27.4860  -25.2630   -8.5700 C.ar   74  TRP74       0.0003
     66  CD1       26.5530  -26.1810   -8.1940 C.ar   74  TRP74       0.0946
     67  CD2       26.8960  -24.5060   -9.6370 C.ar   74  TRP74       0.0152
     68  NE1       25.4090  -26.0340   -8.9450 N.ar   74  TRP74      -0.2442
     69  CE2       25.5940  -25.0160   -9.8420 C.ar   74  TRP74       0.0810
     70  CE3       27.3390  -23.4420  -10.4380 C.ar   74  TRP74       0.0012
     71  CZ2       24.7260  -24.4970  -10.8150 C.ar   74  TRP74       0.0191
     72  CZ3       26.4740  -22.9230  -11.4060 C.ar   74  TRP74       0.0001
     73  CH2       25.1860  -23.4580  -11.5900 C.ar   74  TRP74       0.0015
     74  N         33.0270  -18.0250   -4.4650 N.3    78  GLU78      -0.1245
     75  CA        31.7590  -17.2860   -4.5430 C.3    78  GLU78       0.1567
     76  C         31.3540  -16.7480   -3.1810 C.2    78  GLU78       0.2260
     77  O         31.7100  -17.3220   -2.1420 O.2    78  GLU78      -0.2867
     78  CB        30.6320  -18.1870   -5.0740 C.3    78  GLU78       0.0388
     79  CG        30.9550  -18.9130   -6.3760 C.3    78  GLU78       0.1160
     80  CD        29.7940  -19.7380   -6.9110 C.2    78  GLU78       0.3649
     81  OE1       29.8070  -20.9810   -6.7420 O.co2  78  GLU78      -0.2457
     82  OE2       28.8640  -19.1450   -7.4980 O.co2  78  GLU78      -0.2457
     83  N         27.6220  -15.1930   -1.3390 N.3    80  PHE80      -0.1241
     84  CA        26.1880  -14.9650   -1.4460 C.3    80  PHE80       0.1605
     85  C         25.6600  -14.2610   -0.2000 C.2    80  PHE80       0.2264
     86  O         26.1140  -14.5150    0.9170 O.2    80  PHE80      -0.2867
     87  CB        25.4490  -16.2960   -1.5980 C.3    80  PHE80       0.0534
     88  CG        25.7880  -17.0470   -2.8500 C.ar   80  PHE80      -0.0203
     89  CD1       25.0610  -16.8420   -4.0170 C.ar   80  PHE80      -0.0042
     90  CD2       26.8220  -17.9800   -2.8630 C.ar   80  PHE80      -0.0042
     91  CE1       25.3660  -17.5410   -5.1810 C.ar   80  PHE80      -0.0003
     92  CE2       27.1320  -18.6780   -4.0180 C.ar   80  PHE80      -0.0003
     93  CZ        26.4030  -18.4610   -5.1800 C.ar   80  PHE80      -0.0000
     94  N         32.0170  -19.4420   -0.1440 N.3    93  LYS93      -0.1245
     95  CA        32.3100  -20.8310   -0.4600 C.3    93  LYS93       0.1561
     96  C         33.1090  -20.9920   -1.7480 C.2    93  LYS93       0.2260
     97  O         33.1840  -20.0740   -2.5710 O.2    93  LYS93      -0.2867
     98  CB        31.0030  -21.6410   -0.5200 C.3    93  LYS93       0.0271
     99  CG        29.9660  -21.1790   -1.5400 C.3    93  LYS93       0.0035
    100  CD        30.1120  -21.8230   -2.9150 C.3    93  LYS93       0.0206
    101  CE        29.7680  -23.3020   -2.9040 C.3    93  LYS93       0.1093
    102  NZ        30.0710  -23.9390   -4.2060 N.3    93  LYS93      -0.1314
    103  N         24.1920  -26.5310    0.5950 N.3   121  PHE121     -0.1241
    104  CA        24.4620  -25.7000   -0.5860 C.3   121  PHE121      0.1605
    105  C         25.9480  -25.6310   -0.9440 C.2   121  PHE121      0.2264
    106  O         26.2870  -25.6550   -2.1190 O.2   121  PHE121     -0.2867
    107  CB        23.8980  -24.2830   -0.4160 C.3   121  PHE121      0.0534
    108  CG        24.0680  -23.4110   -1.6360 C.ar  121  PHE121     -0.0203
    109  CD1       23.1080  -23.4050   -2.6450 C.ar  121  PHE121     -0.0042
    110  CD2       25.1910  -22.6080   -1.7860 C.ar  121  PHE121     -0.0042
    111  CE1       23.2660  -22.6120   -3.7710 C.ar  121  PHE121     -0.0003
    112  CE2       25.3540  -21.8110   -2.9150 C.ar  121  PHE121     -0.0003
    113  CZ        24.3880  -21.8120   -3.9070 C.ar  121  PHE121     -0.0000
    114  N         28.1260  -27.8850   -0.7480 N.3   123  GLN123     -0.1245
    115  CA        28.5430  -29.1920   -1.2750 C.3   123  GLN123      0.1566
    116  C         29.8220  -29.6630   -0.6060 C.2   123  GLN123      0.2260
    117  O         30.6290  -30.3770   -1.2070 O.2   123  GLN123     -0.2867
    118  CB        28.6830  -29.1760   -2.8000 C.3   123  GLN123      0.0367
    119  CG        27.4050  -28.7940   -3.5150 C.3   123  GLN123      0.0905
    120  CD        27.5730  -28.7290   -5.0160 C.2   123  GLN123      0.2608
    121  OE1       28.5120  -28.1080   -5.5220 O.2   123  GLN123     -0.2717
    122  NE2       26.6480  -29.3500   -5.7410 N.am  123  GLN123     -0.0878
    123  N         16.1050  -34.8050   -6.6380 N.3   146  SER146     -0.1217
    124  CA        17.4870  -34.7910   -7.1220 C.3   146  SER146      0.1889
    125  C         18.4430  -34.9130   -5.9240 C.2   146  SER146      0.2288
    126  O         18.0480  -34.6220   -4.7950 O.2   146  SER146     -0.2866
    127  CB        17.7700  -33.5150   -7.9240 C.3   146  SER146      0.2089
    128  OG        17.5710  -32.3650   -7.1220 O.3   146  SER146     -0.2183
    129  N         20.8000  -33.1820   -4.5720 N.3   148  MET148     -0.1230
    130  CA        20.9020  -31.9940   -3.7100 C.3   148  MET148      0.1702
    131  C         19.6610  -31.7680   -2.8350 C.2   148  MET148      0.2592
    132  O         19.7920  -31.3460   -1.6790 O.2   148  MET148     -0.2718
    133  CB        21.2030  -30.7320   -4.5370 C.3   148  MET148      0.0401
    134  CG        22.6240  -30.6730   -5.0890 C.3   148  MET148      0.0596
    135  SD        23.9040  -30.7010   -3.8180 S.3   148  MET148     -0.1393
    136  CE        23.5890  -29.1460   -2.9920 C.3   148  MET148      0.0692
    137  N         18.4730  -32.0340   -3.3800 N.am  149  TYR149     -0.1976
    138  CA        17.2350  -31.9590   -2.5850 C.3   149  TYR149      0.1639
    139  C         17.0720  -33.1380   -1.6190 C.2   149  TYR149      0.2290
    140  O         16.4440  -32.9870   -0.5700 O.2   149  TYR149     -0.2864
    141  CB        15.9980  -31.7840   -3.4750 C.3   149  TYR149      0.0560
    142  CG        15.8460  -30.3630   -3.9690 C.ar  149  TYR149     -0.0198
    143  CD1       15.2360  -29.3900   -3.1750 C.ar  149  TYR149     -0.0009
    144  CD2       16.3430  -29.9780   -5.2110 C.ar  149  TYR149     -0.0009
    145  CE1       15.1140  -28.0790   -3.6150 C.ar  149  TYR149      0.0417
    146  CE2       16.2180  -28.6730   -5.6620 C.ar  149  TYR149      0.0417
    147  CZ        15.6070  -27.7280   -4.8600 C.ar  149  TYR149      0.1957
    148  OH        15.4920  -26.4370   -5.3160 O.3   149  TYR149     -0.2866
    149  N         15.6990  -17.9940  -15.8630 N.3   213  LYS213     -0.1245
    150  CA        16.3070  -16.7200  -16.2800 C.3   213  LYS213      0.1561
    151  C         16.5450  -16.7030  -17.7950 C.2   213  LYS213      0.2260
    152  O         16.3250  -17.7090  -18.4760 O.2   213  LYS213     -0.2867
    153  CB        17.6280  -16.4890  -15.5350 C.3   213  LYS213      0.0271
    154  CG        17.4620  -16.3280  -14.0320 C.3   213  LYS213      0.0035
    155  CD        18.7670  -15.9600  -13.3410 C.3   213  LYS213      0.0206
    156  CE        19.7280  -17.1350  -13.2830 C.3   213  LYS213      0.1093
    157  NZ        20.9380  -16.8380  -12.4700 N.3   213  LYS213     -0.1314
    158  N         19.6890  -20.7250  -16.4180 N.3   217  GLU217     -0.1231
    159  CA        19.7490  -21.1810  -15.0210 C.3   217  GLU217      0.1699
    160  C         18.4350  -20.9310  -14.2690 C.2   217  GLU217      0.2592
    161  O         17.9570  -19.7950  -14.2130 O.2   217  GLU217     -0.2718
    162  CB        20.8960  -20.4760  -14.2840 C.3   217  GLU217      0.0402
    163  CG        22.2930  -20.8760  -14.7430 C.3   217  GLU217      0.1161
    164  CD        23.4030  -20.1730  -13.9720 C.2   217  GLU217      0.3649
    165  OE1       23.1370  -19.1400  -13.3170 O.co2 217  GLU217     -0.2457
    166  OE2       24.5560  -20.6530  -14.0250 O.co2 217  GLU217     -0.2457
    167  N         17.8610  -21.9930  -13.6970 N.am  218  VAL218     -0.1966
    168  CA        16.5960  -21.8930  -12.9450 C.3   218  VAL218      0.1727
    169  C         16.8120  -21.2980  -11.5470 C.2   218  VAL218      0.2616
    170  O         17.7770  -21.6480  -10.8620 O.2   218  VAL218     -0.2715
    171  CB        15.8430  -23.2510  -12.8390 C.3   218  VAL218      0.0290
    172  CG1       15.5700  -23.8190  -14.2260 C.3   218  VAL218      0.0023
    173  CG2       16.5850  -24.2660  -11.9660 C.3   218  VAL218      0.0023
    174  N         15.9050  -20.4090  -11.1360 N.am  219  ILE219     -0.1963
    175  CA        16.0120  -19.6960   -9.8440 C.3   219  ILE219      0.1727
    176  C         15.1620  -20.3060   -8.7220 C.2   219  ILE219      0.2616
    177  O         15.5560  -20.2500   -7.5570 O.2   219  ILE219     -0.2715
    178  CB        15.7190  -18.1730   -9.9610 C.3   219  ILE219      0.0290
    179  CG1       14.3520  -17.8870  -10.6020 C.3   219  ILE219      0.0022
    180  CG2       16.8330  -17.4870  -10.7410 C.3   219  ILE219      0.0023
    181  CD1       13.7920  -16.5220  -10.2610 C.3   219  ILE219      0.0001
    182  N         14.0060  -20.8740   -9.0690 N.am  220  MET220     -0.1977
    183  CA        13.1650  -21.5940   -8.1060 C.3   220  MET220      0.1605
    184  C         12.2140  -22.5580   -8.8180 C.2   220  MET220      0.2287
    185  O         12.0760  -22.5120  -10.0430 O.2   220  MET220     -0.2864
    186  CB        12.3770  -20.6140   -7.2200 C.3   220  MET220      0.0413
    187  CG        11.3320  -19.7700   -7.9380 C.3   220  MET220      0.0598
    188  SD        10.5980  -18.5200   -6.8600 S.3   220  MET220     -0.1393
    189  CE        11.8780  -17.2660   -6.8550 C.3   220  MET220      0.0692
@<TRIPOS>BOND
     1   152   151    2
     2   151   150    1
     3   158   159    1
     4   150   149    1
     5   150   153    1
     6   153   154    1
     7   159   162    1
     8   159   160    1
     9    50    49    2
    10   163   162    1
    11   163   164    1
    12   160   161    2
    13   160   167   am
    14   172   171    1
    15   154   155    1
    16   166   164   ar
    17   164   165   ar
    18   167   168    1
    19    49    48    1
    20    54    55    1
    21    54    53    1
    22   155   156    1
    23   156   157    1
    24    47    48    1
    25   168   171    1
    26   168   169    1
    27   171   173    1
    28    51    48    1
    29    51    52    1
    30    46    45    2
    31    52    53    1
    32    45    44    1
    33    73    72   ar
    34    73    71   ar
    35   169   174   am
    36   169   170    2
    37    72    70   ar
    38   174   175    1
    39    71    69   ar
    40   180   178    1
    41   179   181    1
    42   179   178    1
    43    43    44    1
    44    70    67   ar
    45    57    56    1
    46    57    58    1
    47   185   184    2
    48   178   175    1
    49   175   176    1
    50    69    67   ar
    51    69    68   ar
    52    67    65   ar
    53    58    59    2
    54   182   176   am
    55   182   183    1
    56     8     7    2
    57    68    66   ar
    58    42    40    1
    59   184   183    1
    60   176   177    2
    61    61    62    1
    62    61    60    1
    63    61    64    1
    64    65    66   ar
    65    65    64    1
    66    62    63    2
    67    40    39    2
    68    40    41    1
    69    39    38    1
    70   183   186    1
    71     9     7   am
    72     7     6    1
    73   187   186    1
    74   187   188    1
    75   127   128    1
    76   127   124    1
    77    37    38    1
    78    37    36    1
    79    82    80   ar
    80    36    33    1
    81   124   123    1
    82   124   125    1
    83    80    81   ar
    84    80    79    1
    85   188   189    1
    86     6     5    1
    87    79    78    1
    88     5     2    1
    89     2     1    1
    90     2     3    1
    91   125   126    2
    92   122   120   am
    93   146   144   ar
    94   146   147   ar
    95    33    32    1
    96    33    34    1
    97   121   120    2
    98   148   147    1
    99   144   142   ar
   100    91    93   ar
   101    91    89   ar
   102    93    92   ar
   103    10     3   am
   104    10    11    1
   105    35    34    2
   106   134   133    1
   107   134   135    1
   108    78    75    1
   109   120   119    1
   110    13    12    2
   111     3     4    2
   112   147   145   ar
   113   129   130    1
   114    75    74    1
   115    75    76    1
   116   133   130    1
   117    14    15    1
   118    14    11    1
   119   102   101    1
   120    15    16    1
   121    11    12    1
   122    92    90   ar
   123    89    88   ar
   124    12    21   am
   125   142   141    1
   126   142   143   ar
   127   113   111   ar
   128   113   112   ar
   129   135   136    1
   130   111   109   ar
   131   130   131    1
   132   145   143   ar
   133   119   118    1
   134   141   138    1
   135   137   131   am
   136   137   138    1
   137    76    77    2
   138   100   101    1
   139   100    99    1
   140   112   110   ar
   141    27    29   ar
   142    27    26   ar
   143    90    88   ar
   144    88    87    1
   145   131   132    2
   146    16    17    1
   147   118   115    1
   148    21    22    1
   149   109   108   ar
   150    29    31   ar
   151   138   139    1
   152    97    96    2
   153    22    25    1
   154    22    23    1
   155    25    26    1
   156   106   105    2
   157    26    28   ar
   158   110   108   ar
   159    96    95    1
   160    17    18    2
   161   108   107    1
   162   139   140    2
   163    87    84    1
   164    31    30   ar
   165    99    98    1
   166    84    83    1
   167    84    85    1
   168   115   114    1
   169   115   116    1
   170   117   116    2
   171    23    24    2
   172    28    30   ar
   173   105   104    1
   174    18    19    1
   175    18    20    1
   176   104   107    1
   177   104   103    1
   178    98    95    1
   179    95    94    1
   180    85    86    2
