@<TRIPOS>MOLECULE
tmp/6evfA00.pdb
 233 222 0 0 0
SMALL
GASTEIGER

@<TRIPOS>ATOM
      1  N        116.4910    5.4320  128.4130 N.3   155  THR155     -0.1203
      2  CA       115.0720    5.5180  128.6940 C.3   155  THR155      0.1994
      3  C        114.2490    6.2540  127.5900 C.2   155  THR155      0.2617
      4  O        113.0380    6.1520  127.5860 O.2   155  THR155     -0.2717
      5  CB       114.8350    6.2040  130.0420 C.3   155  THR155      0.1784
      6  OG1      115.4340    7.5090  130.0190 O.3   155  THR155     -0.2211
      7  CG2      115.4500    5.3710  131.1910 C.3   155  THR155      0.0376
      8  N        114.8680    7.0390  126.7080 N.am  156  TYR156     -0.1975
      9  CA       114.1210    7.7380  125.6430 C.3   156  TYR156      0.1639
     10  C        114.9480    7.9620  124.3870 C.2   156  TYR156      0.2290
     11  O        114.8870    9.0280  123.7460 O.2   156  TYR156     -0.2864
     12  CB       113.6460    9.0380  126.2040 C.3   156  TYR156      0.0560
     13  CG       112.4300    9.6340  125.5750 C.ar  156  TYR156     -0.0198
     14  CD1      111.1820    9.1470  125.8820 C.ar  156  TYR156     -0.0009
     15  CD2      112.5090   10.7430  124.7490 C.ar  156  TYR156     -0.0009
     16  CE1      110.0460    9.6970  125.3120 C.ar  156  TYR156      0.0417
     17  CE2      111.3700   11.3490  124.2300 C.ar  156  TYR156      0.0417
     18  CZ       110.1290   10.8150  124.5450 C.ar  156  TYR156      0.1957
     19  OH       108.9550   11.3380  124.0480 O.3   156  TYR156     -0.2866
     20  N        113.6450   -1.6650  112.1480 N.3   170  ASN170     -0.1240
     21  CA       112.7800   -1.3680  113.2550 C.3   170  ASN170      0.1653
     22  C        113.4250   -0.3160  114.1450 C.2   170  ASN170      0.2266
     23  O        114.5990   -0.4400  114.5020 O.2   170  ASN170     -0.2867
     24  CB       112.5090   -2.6250  114.0700 C.3   170  ASN170      0.1155
     25  CG       111.3140   -2.4740  115.0050 C.2   170  ASN170      0.2627
     26  OD1      111.4720   -2.1770  116.1940 O.2   170  ASN170     -0.2716
     27  ND2      110.1510   -2.6880  114.4860 N.am  170  ASN170     -0.0877
     28  N        112.6970    1.3370  117.9140 N.3   172  SER172     -0.1202
     29  CA       111.9240    1.1010  119.1180 C.3   172  SER172      0.2020
     30  C        112.6520    1.4930  120.3580 C.2   172  SER172      0.2619
     31  O        113.8480    1.6590  120.3680 O.2   172  SER172     -0.2717
     32  CB       111.5100   -0.3780  119.2450 C.3   172  SER172      0.2103
     33  OG       112.6350   -1.2180  119.4130 O.3   172  SER172     -0.2182
     34  N        111.8630    1.7050  121.3940 N.am  173  ILE173     -0.1965
     35  CA       112.3860    2.0110  122.7120 C.3   173  ILE173      0.1727
     36  C        112.2850    0.7080  123.5520 C.2   173  ILE173      0.2616
     37  O        111.2150    0.0540  123.6130 O.2   173  ILE173     -0.2715
     38  CB       111.5670    3.0910  123.4090 C.3   173  ILE173      0.0290
     39  CG1      111.4510    4.3480  122.5570 C.3   173  ILE173      0.0022
     40  CG2      112.1180    3.4030  124.7940 C.3   173  ILE173      0.0023
     41  CD1      110.9250    5.5430  123.3400 C.3   173  ILE173      0.0001
     42  N        113.3840    0.4240  124.2280 N.am  174  ALA174     -0.1963
     43  CA       113.5330   -0.5940  125.2580 C.3   174  ALA174      0.1728
     44  C        114.6160   -0.1240  126.2400 C.2   174  ALA174      0.2616
     45  O        115.6360    0.5060  125.8360 O.2   174  ALA174     -0.2715
     46  CB       113.9630   -1.9010  124.6360 C.3   174  ALA174      0.0334
     47  N        114.4190   -0.4120  127.5190 N.am  175  ARG175     -0.1977
     48  CA       115.3100    0.1130  128.5340 C.3   175  ARG175      0.1597
     49  C        116.7030   -0.5050  128.4400 C.2   175  ARG175      0.2287
     50  O        116.8430   -1.6590  128.0680 O.2   175  ARG175     -0.2864
     51  CB       114.7710   -0.0780  129.8940 C.3   175  ARG175      0.0334
     52  CG       114.7980   -1.4900  130.3550 C.3   175  ARG175      0.0492
     53  CD       114.0150   -1.5740  131.6290 C.3   175  ARG175      0.2205
     54  NE       114.3300   -2.8200  132.2660 N.pl3 175  ARG175     -0.0865
     55  CZ       113.5340   -3.4680  133.1000 C.cat 175  ARG175      0.5346
     56  NH1      112.3310   -3.0170  133.3750 N.pl3 175  ARG175      0.1354
     57  NH2      113.9620   -4.6050  133.6400 N.pl3 175  ARG175      0.1354
     58  N        116.2760   -4.9450  128.1750 N.3   187  LEU187     -0.1245
     59  CA       115.2120   -5.8680  127.7540 C.3   187  LEU187      0.1561
     60  C        115.1650   -6.0110  126.2390 C.2   187  LEU187      0.2260
     61  O        115.0650   -5.0030  125.5390 O.2   187  LEU187     -0.2867
     62  CB       113.8590   -5.3490  128.1910 C.3   187  LEU187      0.0270
     63  CG       113.4950   -5.3220  129.6790 C.3   187  LEU187      0.0019
     64  CD1      112.0150   -4.9680  129.8760 C.3   187  LEU187      0.0001
     65  CD2      113.8010   -6.6510  130.3400 C.3   187  LEU187      0.0001
     66  N        112.7910   -8.6530  124.6770 N.3   189  ILE189     -0.1245
     67  CA       111.8350   -9.7070  125.0670 C.3   189  ILE189      0.1561
     68  C        110.7460   -9.8790  124.0530 C.2   189  ILE189      0.2260
     69  O        110.3150   -8.9120  123.4010 O.2   189  ILE189     -0.2867
     70  CB       111.1830   -9.4370  126.4400 C.3   189  ILE189      0.0252
     71  CG1      110.3940   -8.1090  126.4700 C.3   189  ILE189      0.0019
     72  CG2      112.2360   -9.4450  127.5150 C.3   189  ILE189      0.0019
     73  CD1      109.2460   -8.0490  127.4920 C.3   189  ILE189      0.0001
     74  N        108.2970   -8.2460  121.4530 N.3   192  GLN192     -0.1231
     75  CA       108.8020   -7.0080  120.8990 C.3   192  GLN192      0.1698
     76  C        109.6190   -7.2140  119.6170 C.2   192  GLN192      0.2592
     77  O        110.2730   -8.2350  119.4170 O.2   192  GLN192     -0.2718
     78  CB       109.6030   -6.2320  121.9510 C.3   192  GLN192      0.0381
     79  CG       108.8420   -5.9810  123.2660 C.3   192  GLN192      0.0905
     80  CD       107.6870   -5.0040  123.0700 C.2   192  GLN192      0.2608
     81  OE1      106.6580   -5.3650  122.4820 O.2   192  GLN192     -0.2717
     82  NE2      107.8960   -3.7320  123.4520 N.am  192  GLN192     -0.0878
     83  N        109.5220   -6.2540  118.6970 N.am  193  HIS193     -0.1962
     84  CA       110.1910   -6.3820  117.4220 C.3   193  HIS193      0.1787
     85  C        111.7060   -6.4140  117.4760 C.2   193  HIS193      0.2620
     86  O        112.3160   -7.0060  116.6190 O.2   193  HIS193     -0.2715
     87  CB       109.6970   -5.3860  116.4120 C.3   193  HIS193      0.0785
     88  CG       108.2630   -5.5760  116.0630 C.ar  193  HIS193      0.0821
     89  ND1      107.4750   -4.5630  115.5390 N.ar  193  HIS193     -0.2267
     90  CD2      107.4720   -6.6760  116.1340 C.ar  193  HIS193      0.1154
     91  CE1      106.2660   -5.0370  115.3060 C.ar  193  HIS193      0.1986
     92  NE2      106.2340   -6.3110  115.6600 N.ar  193  HIS193     -0.2212
     93  N        112.2820   -5.7930  118.4830 N.am  194  ILE194     -0.1977
     94  CA       113.6760   -5.8240  118.7310 C.3   194  ILE194      0.1596
     95  C        114.1530   -7.2760  118.9690 C.2   194  ILE194      0.2287
     96  O        115.1520   -7.6620  118.3960 O.2   194  ILE194     -0.2864
     97  CB       114.0710   -4.8760  119.8960 C.3   194  ILE194      0.0276
     98  CG1      115.5870   -4.6560  119.8970 C.3   194  ILE194      0.0022
     99  CG2      113.4930   -5.3380  121.2280 C.3   194  ILE194      0.0022
    100  CD1      116.1130   -3.7720  121.0110 C.3   194  ILE194      0.0001
    101  N        108.7140    5.2040  117.6660 N.3   226  SER226     -0.1202
    102  CA       109.5050    4.1840  118.3880 C.3   226  SER226      0.2020
    103  C        108.7500    3.4810  119.5400 C.2   226  SER226      0.2619
    104  O        108.9820    2.2610  119.7930 O.2   226  SER226     -0.2717
    105  CB       110.8520    4.7400  118.8650 C.3   226  SER226      0.2103
    106  OG       111.6330    5.1680  117.7350 O.3   226  SER226     -0.2182
    107  N        107.8480    4.2020  120.2120 N.am  227  SER227     -0.1937
    108  CA       107.0410    3.6260  121.3020 C.3   227  SER227      0.2055
    109  C        105.7120    3.0310  120.8630 C.2   227  SER227      0.2643
    110  O        104.9160    2.6130  121.7150 O.2   227  SER227     -0.2714
    111  CB       106.7260    4.6650  122.3340 C.3   227  SER227      0.2130
    112  OG       106.0940    4.0390  123.4520 O.3   227  SER227     -0.2179
    113  N        105.4520    3.0120  119.5590 N.am  228  MET228     -0.1963
    114  CA       104.1860    2.5810  119.0410 C.3   228  MET228      0.1722
    115  C        104.2010    1.1790  118.4590 C.2   228  MET228      0.2458
    116  O        105.0870    0.8570  117.6750 O.2   228  MET228     -0.2730
    117  CB       103.7730    3.5810  117.9670 C.3   228  MET228      0.0427
    118  CG       102.4410    3.2990  117.3670 C.3   228  MET228      0.0599
    119  SD       102.0590    4.6890  116.2550 S.3   228  MET228     -0.1393
    120  CE       100.4030    4.2220  115.8170 C.3   228  MET228      0.0692
    121  N        103.1940    0.3490  118.7680 N.am  229  PRO229     -0.2716
    122  CA       103.1820   -1.0060  118.2290 C.3   229  PRO229      0.1536
    123  C        102.5990   -1.1010  116.8320 C.2   229  PRO229      0.2598
    124  O        101.5040   -1.6830  116.5680 O.2   229  PRO229     -0.2715
    125  CB       102.3850   -1.7970  119.3140 C.3   229  PRO229      0.0310
    126  CG       101.4240   -0.8220  119.8280 C.3   229  PRO229      0.0237
    127  CD       102.1440    0.5160  119.8110 C.3   229  PRO229      0.0939
    128  N        103.3400   -0.5490  115.8880 N.am  230  ILE230     -0.1978
    129  CA       102.9400   -0.7100  114.5200 C.3   230  ILE230      0.1596
    130  C        103.2370   -2.1540  114.0140 C.2   230  ILE230      0.2287
    131  O        103.9120   -2.9390  114.6790 O.2   230  ILE230     -0.2864
    132  CB       103.5520    0.3820  113.6060 C.3   230  ILE230      0.0276
    133  CG1      105.0410    0.1970  113.4160 C.3   230  ILE230      0.0022
    134  CG2      103.2590    1.7650  114.1040 C.3   230  ILE230      0.0022
    135  CD1      105.6160    1.1780  112.3870 C.3   230  ILE230      0.0001
    136  N        109.4990    1.6050  110.8940 N.3   236  GLU236     -0.1245
    137  CA       108.9600    2.8140  111.5110 C.3   236  GLU236      0.1567
    138  C        109.3150    4.0960  110.7440 C.2   236  GLU236      0.2260
    139  O        108.4940    5.0060  110.6490 O.2   236  GLU236     -0.2867
    140  CB       109.5060    2.9620  112.8910 C.3   236  GLU236      0.0388
    141  CG       108.8000    2.1870  113.9500 C.3   236  GLU236      0.1160
    142  CD       109.0820    0.6790  113.9440 C.2   236  GLU236      0.3649
    143  OE1      109.9660    0.1600  113.2200 O.co2 236  GLU236     -0.2457
    144  OE2      108.4110    0.0380  114.7360 O.co2 236  GLU236     -0.2457
    145  N        114.2300   -2.1190  137.4650 N.3   283  PHE283     -0.1241
    146  CA       114.0650   -0.7330  137.0630 C.3   283  PHE283      0.1605
    147  C        112.7010   -0.2370  137.5150 C.2   283  PHE283      0.2264
    148  O        111.7200   -0.9330  137.3640 O.2   283  PHE283     -0.2867
    149  CB       114.1360   -0.6200  135.5510 C.3   283  PHE283      0.0534
    150  CG       114.1210    0.8000  135.0440 C.ar  283  PHE283     -0.0203
    151  CD1      115.0300    1.7420  135.5370 C.ar  283  PHE283     -0.0042
    152  CD2      113.1740    1.2100  134.1230 C.ar  283  PHE283     -0.0042
    153  CE1      115.0080    3.0460  135.0930 C.ar  283  PHE283     -0.0003
    154  CE2      113.1710    2.4930  133.6450 C.ar  283  PHE283     -0.0003
    155  CZ       114.0780    3.4100  134.1320 C.ar  283  PHE283     -0.0000
    156  N        109.3760    1.0660  137.1430 N.3   285  ASP285     -0.1225
    157  CA       108.6600    0.9330  135.8910 C.3   285  ASP285      0.1805
    158  C        107.2620    1.5570  135.8520 C.2   285  ASP285      0.2597
    159  O        106.9230    2.3820  136.7010 O.2   285  ASP285     -0.2718
    160  CB       108.7530   -0.4860  135.3200 C.3   285  ASP285      0.1424
    161  CG       108.9940   -0.4560  133.7450 C.2   285  ASP285      0.3668
    162  OD1      108.5540    0.5330  133.0730 O.co2 285  ASP285     -0.2456
    163  OD2      109.6260   -1.3740  133.1920 O.co2 285  ASP285     -0.2456
    164  N        106.5420    1.2560  134.7640 N.am  286  MET286     -0.1979
    165  CA       105.2770    1.8580  134.4130 C.3   286  MET286      0.1605
    166  C        104.1380    1.6400  135.4090 C.2   286  MET286      0.2287
    167  O        103.2060    2.4350  135.4000 O.2   286  MET286     -0.2864
    168  CB       104.8570    1.3890  133.0390 C.3   286  MET286      0.0413
    169  CG       104.6500   -0.1180  132.9450 C.3   286  MET286      0.0598
    170  SD       104.3100   -0.6510  131.2610 S.3   286  MET286     -0.1393
    171  CE       102.9000    0.2930  130.7310 C.3   286  MET286      0.0692
    172  N        113.2330    9.5470  130.3760 N.3   317  SER317     -0.1217
    173  CA       111.9700    9.2820  131.0730 C.3   317  SER317      0.1889
    174  C        112.2740    8.5220  132.3840 C.2   317  SER317      0.2288
    175  O        113.1280    7.6250  132.4400 O.2   317  SER317     -0.2866
    176  CB       111.0650    8.4370  130.1730 C.3   317  SER317      0.2089
    177  OG       109.8500    8.0270  130.8180 O.3   317  SER317     -0.2183
    178  N        110.1710    6.5150  134.8640 N.3   319  PRO319     -0.2116
    179  CA       108.7840    6.0290  135.0380 C.3   319  PRO319      0.1372
    180  C        108.3710    5.8130  136.4610 C.2   319  PRO319      0.2244
    181  O        109.2280    5.6550  137.3730 O.2   319  PRO319     -0.2868
    182  CB       108.7590    4.6890  134.2920 C.3   319  PRO319      0.0268
    183  CG       109.9760    4.6630  133.4390 C.3   319  PRO319      0.0207
    184  CD       111.0060    5.5040  134.1870 C.3   319  PRO319      0.0892
    185  N        105.8170    9.1290  130.5250 N.3   325  GLU325     -0.1231
    186  CA       105.7840    8.6940  129.1390 C.3   325  GLU325      0.1699
    187  C        105.2820    7.2290  128.9930 C.2   325  GLU325      0.2592
    188  O        104.7670    6.8390  127.9280 O.2   325  GLU325     -0.2718
    189  CB       107.1610    8.7610  128.5140 C.3   325  GLU325      0.0402
    190  CG       107.6690   10.1740  128.3240 C.3   325  GLU325      0.1161
    191  CD       108.2310   10.8780  129.5610 C.2   325  GLU325      0.3649
    192  OE1      108.6140   10.2000  130.5830 O.co2 325  GLU325     -0.2457
    193  OE2      108.2300   12.1430  129.4670 O.co2 325  GLU325     -0.2457
    194  N        105.4670    6.4280  130.0400 N.am  326  THR326     -0.1953
    195  CA       105.0010    5.0590  129.9980 C.3   326  THR326      0.1897
    196  C        103.4350    5.0200  130.0090 C.2   326  THR326      0.2313
    197  O        102.8390    3.9700  129.7830 O.2   326  THR326     -0.2863
    198  CB       105.6230    4.1970  131.1380 C.3   326  THR326      0.1794
    199  OG1      105.1580    4.6360  132.4210 O.3   326  THR326     -0.2208
    200  CG2      107.1450    4.1980  131.0920 C.3   326  THR326      0.0378
    201  N        102.7180    7.8340  126.3150 N.3   329  LEU329     -0.1231
    202  CA       103.1110    7.2240  125.0450 C.3   329  LEU329      0.1693
    203  C        102.7350    5.7660  124.9610 C.2   329  LEU329      0.2591
    204  O        102.0890    5.3340  124.0190 O.2   329  LEU329     -0.2718
    205  CB       104.6070    7.4190  124.7150 C.3   329  LEU329      0.0284
    206  CG       105.0820    8.8440  124.6910 C.3   329  LEU329      0.0019
    207  CD1      106.5550    8.9040  124.3160 C.3   329  LEU329      0.0001
    208  CD2      104.2330    9.6600  123.7520 C.3   329  LEU329      0.0001
    209  N        103.1810    4.9710  125.9180 N.am  330  ILE330     -0.1980
    210  CA       102.9560    3.5200  125.8210 C.3   330  ILE330      0.1595
    211  C        101.4550    3.3080  125.7630 C.2   330  ILE330      0.2287
    212  O        100.9800    2.7250  124.8130 O.2   330  ILE330     -0.2864
    213  CB       103.6020    2.6740  126.9330 C.3   330  ILE330      0.0276
    214  CG1      105.1020    2.8550  126.9750 C.3   330  ILE330      0.0022
    215  CG2      103.3790    1.1890  126.6840 C.3   330  ILE330      0.0022
    216  CD1      105.7750    1.9580  127.9830 C.3   330  ILE330      0.0001
    217  N         99.7710   -8.8370  120.0370 N.3   394  LYS394     -0.1245
    218  CA       100.8480   -7.9810  120.5640 C.3   394  LYS394      0.1561
    219  C        100.3160   -6.6660  121.1220 C.2   394  LYS394      0.2260
    220  O        100.7440   -6.2360  122.1520 O.2   394  LYS394     -0.2867
    221  CB       101.8980   -7.7100  119.4860 C.3   394  LYS394      0.0271
    222  CG       103.0010   -6.7210  119.8740 C.3   394  LYS394      0.0035
    223  CD       104.1410   -6.9140  118.8460 C.3   394  LYS394      0.0206
    224  CE       105.2750   -5.9140  119.0750 C.3   394  LYS394      0.1093
    225  NZ       104.8110   -4.5050  118.8960 N.3   394  LYS394     -0.1314
    226  N        105.1950   -7.8220  133.5250 N.3   442  LEU442     -0.1245
    227  CA       105.5220   -6.6510  134.3400 C.3   442  LEU442      0.1561
    228  C        104.3880   -6.2960  135.3210 C.2   442  LEU442      0.2260
    229  O        104.6650   -5.5740  136.2370 O.2   442  LEU442     -0.2867
    230  CB       105.8710   -5.3840  133.5000 C.3   442  LEU442      0.0270
    231  CG       107.2800   -5.1060  132.9830 C.3   442  LEU442      0.0019
    232  CD1      107.8270   -6.1690  131.9990 C.3   442  LEU442      0.0001
    233  CD2      107.2930   -3.7230  132.3120 C.3   442  LEU442      0.0001
@<TRIPOS>BOND
     1   139   138    2
     2   138   137    1
     3   136   137    1
     4   137   140    1
     5    20    21    1
     6   135   133    1
     7   140   141    1
     8   143   142   ar
     9    21    24    1
    10    21    22    1
    11   133   132    1
    12   132   134    1
    13   132   129    1
    14   142   141    1
    15   142   144   ar
    16   130   129    1
    17   130   131    2
    18    24    25    1
    19    22    23    2
    20    27    25   am
    21   129   128    1
    22    25    26    2
    23    91    89   ar
    24    91    92   ar
    25    89    88   ar
    26    92    90   ar
    27   120   119    1
    28   128   123   am
    29    88    90   ar
    30    88    87    1
    31   119   118    1
    32    87    84    1
    33   124   123    2
    34    86    85    2
    35   123   122    1
    36   118   117    1
    37    84    85    1
    38    84    83    1
    39    85    93   am
    40   101   102    1
    41   116   115    2
    42   106   105    1
    43    28    29    1
    44   117   114    1
    45   122   121    1
    46   122   125    1
    47   102   105    1
    48   102   103    1
    49    96    95    2
    50   115   121   am
    51   115   114    1
    52    93    94    1
    53    83    76   am
    54    94    95    1
    55    94    97    1
    56   121   127    1
    57   223   224    1
    58   223   222    1
    59   225   224    1
    60   114   113    1
    61    29    32    1
    62    29    30    1
    63    32    33    1
    64   125   126    1
    65    77    76    2
    66   221   222    1
    67   221   218    1
    68   103   104    2
    69   103   107   am
    70   113   109   am
    71    76    75    1
    72   127   126    1
    73    97    98    1
    74    97    99    1
    75    98   100    1
    76   217   218    1
    77   107   108    1
    78    30    31    2
    79    30    34   am
    80   218   219    1
    81   109   108    1
    82   109   110    2
    83    75    74    1
    84    75    78    1
    85   219   220    2
    86   108   111    1
    87    34    35    1
    88    78    79    1
    89   111   112    1
    90    81    80    2
    91    39    41    1
    92    39    38    1
    93    35    38    1
    94    35    36    1
    95    80    79    1
    96    80    82   am
    97    69    68    2
    98    38    40    1
    99    36    37    2
   100    36    42   am
   101    11    10    2
   102   208   206    1
   103   204   203    2
   104    19    18    1
   105    68    67    1
   106    42    43    1
   107    17    18   ar
   108    17    15   ar
   109   207   206    1
   110    10     9    1
   111    18    16   ar
   112    46    43    1
   113    66    67    1
   114   206   205    1
   115   205   202    1
   116    15    13   ar
   117   212   211    2
   118   203   202    1
   119   203   209   am
   120   202   201    1
   121    67    70    1
   122    43    44    1
   123    16    14   ar
   124    61    60    2
   125    13    14   ar
   126    13    12    1
   127     9    12    1
   128     9     8    1
   129   211   210    1
   130   210   209    1
   131   210   213    1
   132    45    44    2
   133    60    59    1
   134    44    47   am
   135    70    71    1
   136    70    72    1
   137    71    73    1
   138   215   213    1
   139     8     3   am
   140   213   214    1
   141   214   216    1
   142    47    48    1
   143     4     3    2
   144     3     2    1
   145    59    58    1
   146    59    62    1
   147   188   187    2
   148    50    49    2
   149    62    63    1
   150   190   189    1
   151   190   191    1
   152     1     2    1
   153    49    48    1
   154   189   186    1
   155    48    51    1
   156     2     5    1
   157   187   186    1
   158   187   194   am
   159   186   185    1
   160   193   191   ar
   161   191   192   ar
   162    63    64    1
   163    63    65    1
   164   197   196    2
   165    51    52    1
   166   195   196    1
   167   195   194    1
   168   195   198    1
   169     6     5    1
   170     5     7    1
   171   176   177    1
   172   176   173    1
   173    52    53    1
   174   172   173    1
   175   171   170    1
   176   173   174    1
   177   200   198    1
   178   198   199    1
   179   170   169    1
   180    53    54    1
   181   232   231    1
   182    54    55    2
   183   233   231    1
   184   174   175    2
   185   169   168    1
   186   231   230    1
   187   168   165    1
   188   162   161   ar
   189    55    56    1
   190    55    57    1
   191   163   161   ar
   192   183   184    1
   193   183   182    1
   194   230   227    1
   195   226   227    1
   196   154   152   ar
   197   154   155   ar
   198   161   160    1
   199   152   150   ar
   200   155   153   ar
   201   184   178    1
   202   182   179    1
   203   227   228    1
   204   165   164    1
   205   165   166    1
   206   164   158   am
   207   178   179    1
   208   179   180    1
   209   150   151   ar
   210   150   149    1
   211   153   151   ar
   212   160   157    1
   213   228   229    2
   214   167   166    2
   215   149   146    1
   216   158   157    1
   217   158   159    2
   218   157   156    1
   219   180   181    2
   220   146   145    1
   221   146   147    1
   222   148   147    2
