@<TRIPOS>MOLECULE
tmp/6evkC00.pdb
 159 151 0 0 0
SMALL
GASTEIGER

@<TRIPOS>ATOM
      1  N        825.0370  -60.0460  450.6110 N.3   306  ASP306     -0.1239
      2  CA       826.0700  -59.1350  451.1190 C.3   306  ASP306      0.1674
      3  C        825.8770  -58.9520  452.6250 C.2   306  ASP306      0.2266
      4  O        824.9850  -58.2250  453.0590 O.2   306  ASP306     -0.2867
      5  CB       826.0170  -57.7780  450.3910 C.3   306  ASP306      0.1410
      6  CG       827.0150  -56.7500  450.9530 C.2   306  ASP306      0.3668
      7  OD1      828.0920  -57.1380  451.4540 O.co2 306  ASP306     -0.2456
      8  OD2      826.7150  -55.5400  450.8890 O.co2 306  ASP306     -0.2456
      9  N        828.2050  -54.0610  440.6710 N.3   324  PHE324     -0.1227
     10  CA       826.8590  -54.1270  440.0820 C.3   324  PHE324      0.1736
     11  C        826.6550  -52.9540  439.1180 C.2   324  PHE324      0.2596
     12  O        827.6110  -52.2300  438.8310 O.2   324  PHE324     -0.2718
     13  CB       825.7980  -54.1430  441.1910 C.3   324  PHE324      0.0547
     14  CG       825.8070  -52.9180  442.0560 C.ar  324  PHE324     -0.0202
     15  CD1      826.6480  -52.8420  443.1600 C.ar  324  PHE324     -0.0042
     16  CD2      824.9710  -51.8390  441.7740 C.ar  324  PHE324     -0.0042
     17  CE1      826.6620  -51.7140  443.9640 C.ar  324  PHE324     -0.0003
     18  CE2      824.9840  -50.7050  442.5720 C.ar  324  PHE324     -0.0003
     19  CZ       825.8290  -50.6450  443.6710 C.ar  324  PHE324     -0.0000
     20  N        825.4370  -52.7700  438.6050 N.am  325  SER325     -0.1938
     21  CA       825.1400  -51.6350  437.7260 C.3   325  SER325      0.2055
     22  C        823.8040  -50.9670  438.0340 C.2   325  SER325      0.2643
     23  O        822.9110  -51.5700  438.6220 O.2   325  SER325     -0.2714
     24  CB       825.1690  -52.0760  436.2650 C.3   325  SER325      0.2130
     25  OG       824.1150  -52.9770  435.9900 O.3   325  SER325     -0.2179
     26  N        823.6860  -49.7130  437.6060 N.am  326  PHE326     -0.1973
     27  CA       822.4990  -48.8980  437.8470 C.3   326  PHE326      0.1639
     28  C        822.5000  -47.6570  436.9380 C.2   326  PHE326      0.2290
     29  O        823.5440  -47.0110  436.7420 O.2   326  PHE326     -0.2864
     30  CB       822.4380  -48.4980  439.3270 C.3   326  PHE326      0.0560
     31  CG       821.4330  -47.4220  439.6320 C.ar  326  PHE326     -0.0200
     32  CD1      820.0820  -47.7300  439.7520 C.ar  326  PHE326     -0.0042
     33  CD2      821.8370  -46.0980  439.8000 C.ar  326  PHE326     -0.0042
     34  CE1      819.1510  -46.7360  440.0320 C.ar  326  PHE326     -0.0003
     35  CE2      820.9090  -45.1030  440.0770 C.ar  326  PHE326     -0.0003
     36  CZ       819.5640  -45.4210  440.1960 C.ar  326  PHE326     -0.0000
     37  N        832.0810  -51.3360  444.6910 N.3   333  ARG333     -0.1245
     38  CA       832.3170  -50.8780  446.0620 C.3   333  ARG333      0.1563
     39  C        833.7340  -51.2270  446.5160 C.2   333  ARG333      0.2260
     40  O        834.1370  -52.3860  446.4940 O.2   333  ARG333     -0.2867
     41  CB       831.2850  -51.4590  447.0320 C.3   333  ARG333      0.0307
     42  CG       831.1490  -50.6410  448.3100 C.3   333  ARG333      0.0489
     43  CD       830.0670  -51.1850  449.2270 C.3   333  ARG333      0.2205
     44  NE       830.4540  -52.4590  449.8320 N.pl3 333  ARG333     -0.0865
     45  CZ       829.6340  -53.2850  450.4820 C.cat 333  ARG333      0.5346
     46  NH1      828.3420  -52.9970  450.6420 N.pl3 333  ARG333      0.1354
     47  NH2      830.1140  -54.4170  450.9840 N.pl3 333  ARG333      0.1354
     48  N        826.9970  -51.6910  454.0300 N.3   338  SER338     -0.1217
     49  CA       825.6950  -51.1320  454.4140 C.3   338  SER338      0.1889
     50  C        824.6390  -52.1820  454.7410 C.2   338  SER338      0.2288
     51  O        824.5520  -53.2340  454.0980 O.2   338  SER338     -0.2866
     52  CB       825.1550  -50.2060  453.3230 C.3   338  SER338      0.2089
     53  OG       824.9220  -50.9140  452.1170 O.3   338  SER338     -0.2183
     54  N        820.5790  -53.1540  455.0930 N.3   340  ARG340     -0.1245
     55  CA       819.4220  -52.9610  454.2240 C.3   340  ARG340      0.1563
     56  C        818.1480  -52.8780  455.0600 C.2   340  ARG340      0.2260
     57  O        817.8420  -53.8020  455.8160 O.2   340  ARG340     -0.2867
     58  CB       819.3040  -54.1330  453.2450 C.3   340  ARG340      0.0307
     59  CG       820.6250  -54.5980  452.6530 C.3   340  ARG340      0.0489
     60  CD       820.3950  -55.6590  451.6010 C.3   340  ARG340      0.2205
     61  NE       819.7030  -55.1180  450.4350 N.pl3 340  ARG340     -0.0865
     62  CZ       819.3490  -55.8250  449.3620 C.cat 340  ARG340      0.5346
     63  NH1      819.6170  -57.1290  449.2810 N.pl3 340  ARG340      0.1354
     64  NH2      818.7220  -55.2210  448.3560 N.pl3 340  ARG340      0.1354
     65  N        814.0640  -50.0290  449.3540 N.3   356  THR356     -0.1218
     66  CA       814.9660  -50.8510  450.1590 C.3   356  THR356      0.1862
     67  C        816.1990  -49.9970  450.4760 C.2   356  THR356      0.2287
     68  O        817.2300  -50.1190  449.8230 O.2   356  THR356     -0.2866
     69  CB       815.3580  -52.1650  449.4430 C.3   356  THR356      0.1770
     70  OG1      816.0800  -51.8780  448.2420 O.3   356  THR356     -0.2211
     71  CG2      814.1200  -52.9820  449.0960 C.3   356  THR356      0.0375
     72  N        819.5080  -48.1880  452.1090 N.3   358  PHE358     -0.1241
     73  CA       820.8100  -48.6870  452.5340 C.3   358  PHE358      0.1605
     74  C        821.3940  -47.7300  453.5700 C.2   358  PHE358      0.2264
     75  O        821.5020  -46.5300  453.2990 O.2   358  PHE358     -0.2867
     76  CB       821.7580  -48.7670  451.3320 C.3   358  PHE358      0.0534
     77  CG       821.2910  -49.6910  450.2290 C.ar  358  PHE358     -0.0203
     78  CD1      820.2920  -49.2990  449.3360 C.ar  358  PHE358     -0.0042
     79  CD2      821.8810  -50.9410  450.0520 C.ar  358  PHE358     -0.0042
     80  CE1      819.8720  -50.1450  448.3170 C.ar  358  PHE358     -0.0003
     81  CE2      821.4660  -51.7860  449.0310 C.ar  358  PHE358     -0.0003
     82  CZ       820.4600  -51.3870  448.1630 C.ar  358  PHE358     -0.0000
     83  N        829.8450  -46.0720  452.6990 N.3   362  GLU362     -0.1245
     84  CA       830.3240  -46.8680  451.5640 C.3   362  GLU362      0.1567
     85  C        831.1190  -46.0070  450.6030 C.2   362  GLU362      0.2260
     86  O        830.8380  -44.8130  450.4540 O.2   362  GLU362     -0.2867
     87  CB       829.1500  -47.4680  450.8050 C.3   362  GLU362      0.0388
     88  CG       828.3580  -48.4860  451.5920 C.3   362  GLU362      0.1160
     89  CD       827.1570  -48.9750  450.8200 C.2   362  GLU362      0.3649
     90  OE1      826.1560  -48.2290  450.7240 O.co2 362  GLU362     -0.2457
     91  OE2      827.2060  -50.1110  450.3070 O.co2 362  GLU362     -0.2457
     92  N        832.4590  -46.0500  446.4990 N.3   364  PHE364     -0.1241
     93  CA       832.3350  -46.6940  445.1760 C.3   364  PHE364      0.1605
     94  C        833.2270  -46.0530  444.1190 C.2   364  PHE364      0.2264
     95  O        833.4000  -44.8260  444.0980 O.2   364  PHE364     -0.2867
     96  CB       830.9090  -46.5880  444.6270 C.3   364  PHE364      0.0534
     97  CG       829.8530  -47.1710  445.5170 C.ar  364  PHE364     -0.0203
     98  CD1      829.2700  -46.3990  446.5190 C.ar  364  PHE364     -0.0042
     99  CD2      829.4080  -48.4770  445.3270 C.ar  364  PHE364     -0.0042
    100  CE1      828.2820  -46.9280  447.3310 C.ar  364  PHE364     -0.0003
    101  CE2      828.4200  -49.0100  446.1390 C.ar  364  PHE364     -0.0003
    102  CZ       827.8570  -48.2330  447.1400 C.ar  364  PHE364     -0.0000
    103  N        829.2780  -42.5310  450.0070 N.3   377  LYS377     -0.1245
    104  CA       827.8650  -42.5410  450.3790 C.3   377  LYS377      0.1561
    105  C        827.6900  -42.8340  451.8650 C.2   377  LYS377      0.2260
    106  O        828.3510  -43.7190  452.4110 O.2   377  LYS377     -0.2867
    107  CB       827.1120  -43.6000  449.5630 C.3   377  LYS377      0.0271
    108  CG       825.6790  -43.2080  449.2380 C.3   377  LYS377      0.0035
    109  CD       824.7750  -44.4030  448.9890 C.3   377  LYS377      0.0206
    110  CE       824.3670  -45.0840  450.2870 C.3   377  LYS377      0.1093
    111  NZ       822.8930  -45.2930  450.3570 N.3   377  LYS377     -0.1314
    112  N        821.0800  -42.0220  443.3610 N.3   405  PHE405     -0.1241
    113  CA       821.6140  -43.1970  444.0700 C.3   405  PHE405      0.1605
    114  C        821.8830  -42.9660  445.5670 C.2   405  PHE405      0.2264
    115  O        821.8190  -43.9060  446.3650 O.2   405  PHE405     -0.2867
    116  CB       822.8970  -43.6560  443.3660 C.3   405  PHE405      0.0534
    117  CG       823.4600  -44.9390  443.8870 C.ar  405  PHE405     -0.0203
    118  CD1      823.0710  -46.1550  443.3410 C.ar  405  PHE405     -0.0042
    119  CD2      824.4040  -44.9300  444.9040 C.ar  405  PHE405     -0.0042
    120  CE1      823.6040  -47.3440  443.8120 C.ar  405  PHE405     -0.0003
    121  CE2      824.9370  -46.1130  445.3860 C.ar  405  PHE405     -0.0003
    122  CZ       824.5420  -47.3220  444.8370 C.ar  405  PHE405     -0.0000
    123  N        819.9200  -41.5870  447.6150 N.3   407  GLN407     -0.1245
    124  CA       818.6390  -41.7410  448.3410 C.3   407  GLN407      0.1566
    125  C        818.4020  -40.6250  449.3680 C.2   407  GLN407      0.2260
    126  O        817.7830  -40.8610  450.4070 O.2   407  GLN407     -0.2867
    127  CB       818.5160  -43.1140  449.0390 C.3   407  GLN407      0.0367
    128  CG       818.8200  -44.3310  448.1840 C.3   407  GLN407      0.0905
    129  CD       818.7100  -45.6250  448.9720 C.2   407  GLN407      0.2608
    130  OE1      819.4080  -45.8170  449.9710 O.2   407  GLN407     -0.2717
    131  NE2      817.8350  -46.5200  448.5290 N.am  407  GLN407     -0.0878
    132  N        810.9600  -50.0200  439.1140 N.3   427  ASN427     -0.1240
    133  CA       811.0720  -49.8660  440.5720 C.3   427  ASN427      0.1653
    134  C        811.3920  -48.4090  440.9630 C.2   427  ASN427      0.2266
    135  O        811.9350  -47.6500  440.1420 O.2   427  ASN427     -0.2867
    136  CB       812.0840  -50.8700  441.1740 C.3   427  ASN427      0.1155
    137  CG       813.4880  -50.7250  440.6070 C.2   427  ASN427      0.2627
    138  OD1      814.1480  -49.7070  440.8000 O.2   427  ASN427     -0.2716
    139  ND2      813.9570  -51.7620  439.9180 N.am  427  ASN427     -0.0877
    140  N        813.6130  -46.6980  442.6030 N.3   429  MET429     -0.1230
    141  CA       814.9770  -46.2550  442.2810 C.3   429  MET429      0.1702
    142  C        815.0960  -45.7830  440.8390 C.2   429  MET429      0.2592
    143  O        815.7170  -44.7490  440.5770 O.2   429  MET429     -0.2718
    144  CB       816.0140  -47.3600  442.5530 C.3   429  MET429      0.0401
    145  CG       816.6290  -47.3400  443.9440 C.3   429  MET429      0.0596
    146  SD       817.6620  -45.8910  444.2430 S.3   429  MET429     -0.1393
    147  CE       816.5940  -44.8480  445.2300 C.3   429  MET429      0.0692
    148  N        814.4920  -46.5310  439.9150 N.am  430  TYR430     -0.1976
    149  CA       814.4420  -46.1110  438.5120 C.3   430  TYR430      0.1639
    150  C        813.3970  -45.0220  438.2790 C.2   430  TYR430      0.2290
    151  O        813.7040  -44.0230  437.6220 O.2   430  TYR430     -0.2864
    152  CB       814.2670  -47.3030  437.5630 C.3   430  TYR430      0.0560
    153  CG       815.5940  -47.9340  437.2250 C.ar  430  TYR430     -0.0198
    154  CD1      816.4650  -47.3130  436.3290 C.ar  430  TYR430     -0.0009
    155  CD2      816.0020  -49.1270  437.8230 C.ar  430  TYR430     -0.0009
    156  CE1      817.6950  -47.8680  436.0250 C.ar  430  TYR430      0.0417
    157  CE2      817.2340  -49.6940  437.5220 C.ar  430  TYR430      0.0417
    158  CZ       818.0750  -49.0610  436.6210 C.ar  430  TYR430      0.1957
    159  OH       819.3020  -49.6010  436.3130 O.3   430  TYR430     -0.2866
@<TRIPOS>BOND
     1    25    24    1
     2   156   154   ar
     3   156   158   ar
     4    24    21    1
     5   159   158    1
     6   154   153   ar
     7   158   157   ar
     8    29    28    2
     9    28    27    1
    10   153   152    1
    11   153   155   ar
    12   157   155   ar
    13   152   149    1
    14    26    27    1
    15    26    22   am
    16   151   150    2
    17    21    22    1
    18    21    20    1
    19    27    30    1
    20    22    23    2
    21   150   149    1
    22   149   148    1
    23    20    11   am
    24    12    11    2
    25   132   133    1
    26    11    10    1
    27    30    31    1
    28    31    32   ar
    29    31    33   ar
    30    32    34   ar
    31    33    35   ar
    32   148   142   am
    33   139   137   am
    34    34    36   ar
    35    35    36   ar
    36    10     9    1
    37    10    13    1
    38   135   134    2
    39   133   134    1
    40   133   136    1
    41   143   142    2
    42   137   138    2
    43   137   136    1
    44   142   141    1
    45    13    14    1
    46    16    14   ar
    47    16    18   ar
    48    14    15   ar
    49   141   144    1
    50   141   140    1
    51   144   145    1
    52    18    19   ar
    53    15    17   ar
    54   118   120   ar
    55   118   117   ar
    56   112   113    1
    57   116   117    1
    58   116   113    1
    59    19    17   ar
    60   120   122   ar
    61   117   119   ar
    62   145   146    1
    63   113   114    1
    64    95    94    2
    65    94    93    1
    66   146   147    1
    67    96    93    1
    68    96    97    1
    69    37    38    1
    70   122   121   ar
    71   119   121   ar
    72    93    92    1
    73    99    97   ar
    74    99   101   ar
    75    97    98   ar
    76   114   115    2
    77    38    39    1
    78    38    41    1
    79   101   102   ar
    80    40    39    2
    81    98   100   ar
    82    41    42    1
    83   102   100   ar
    84   123   124    1
    85    82    80   ar
    86    82    81   ar
    87   128   129    1
    88   128   127    1
    89    70    69    1
    90    42    43    1
    91    80    78   ar
    92   124   127    1
    93   124   125    1
    94    64    62    1
    95   131   129   am
    96   129   130    2
    97   109   108    1
    98   109   110    1
    99    81    79   ar
   100    71    69    1
   101    43    44    1
   102   108   107    1
   103    63    62    1
   104    78    77   ar
   105    65    66    1
   106    62    61    2
   107   125   126    2
   108    69    66    1
   109   107   104    1
   110    68    67    2
   111    44    45    2
   112   103   104    1
   113    79    77   ar
   114    66    67    1
   115    77    76    1
   116   110   111    1
   117    91    89   ar
   118   104   105    1
   119     5     6    1
   120     5     2    1
   121    61    60    1
   122    86    85    2
   123    45    46    1
   124    45    47    1
   125    85    84    1
   126     1     2    1
   127    90    89   ar
   128    87    84    1
   129    87    88    1
   130    89    88    1
   131     8     6   ar
   132     6     7   ar
   133     2     3    1
   134    76    73    1
   135    84    83    1
   136    60    59    1
   137   105   106    2
   138    72    73    1
   139    53    52    1
   140    73    74    1
   141     3     4    2
   142    59    58    1
   143    58    55    1
   144    75    74    2
   145    52    49    1
   146    48    49    1
   147    51    50    2
   148    55    56    1
   149    55    54    1
   150    49    50    1
   151    56    57    2
