@<TRIPOS>MOLECULE
tmp/6evqA00.pdb
 88 84 0 0 0
SMALL
GASTEIGER

@<TRIPOS>ATOM
      1  N          1.4370    3.1970   -2.9390 N.3    28  PHE28      -0.1241
      2  CA         1.7640    2.6660   -4.2620 C.3    28  PHE28       0.1605
      3  C          2.8400    3.5110   -4.9300 C.2    28  PHE28       0.2264
      4  O          3.8030    2.9800   -5.4900 O.2    28  PHE28      -0.2867
      5  CB         0.5190    2.6010   -5.1520 C.3    28  PHE28       0.0534
      6  CG         0.5110    1.4060   -6.0560 C.ar   28  PHE28      -0.0203
      7  CD1        0.7620    1.5240   -7.4140 C.ar   28  PHE28      -0.0042
      8  CD2        0.2720    0.1550   -5.5280 C.ar   28  PHE28      -0.0042
      9  CE1        0.7770    0.4010   -8.2280 C.ar   28  PHE28      -0.0003
     10  CE2        0.2790   -0.9710   -6.3330 C.ar   28  PHE28      -0.0003
     11  CZ         0.5360   -0.8480   -7.6840 C.ar   28  PHE28      -0.0000
     12  N          6.2960    2.7160   -3.3180 N.3    31  LEU31      -0.1231
     13  CA         7.0810    1.5570   -3.7790 C.3    31  LEU31       0.1693
     14  C          7.9010    1.9260   -5.0020 C.2    31  LEU31       0.2591
     15  O          9.0290    1.4690   -5.1670 O.2    31  LEU31      -0.2718
     16  CB         6.2220    0.3210   -4.1040 C.3    31  LEU31       0.0284
     17  CG         5.4910   -0.3170   -2.9250 C.3    31  LEU31       0.0019
     18  CD1        6.3020   -0.1830   -1.6450 C.3    31  LEU31       0.0001
     19  CD2        4.1190    0.2980   -2.7740 C.3    31  LEU31       0.0001
     20  N          7.3330    2.7680   -5.8500 N.am   32  ARG32      -0.1980
     21  CA         8.0400    3.2590   -7.0200 C.3    32  ARG32       0.1597
     22  C          9.2440    4.0830   -6.6020 C.2    32  ARG32       0.2287
     23  O         10.3060    3.9780   -7.1950 O.2    32  ARG32      -0.2864
     24  CB         7.1070    4.0850   -7.8950 C.3    32  ARG32       0.0334
     25  CG         6.0290    3.2510   -8.5510 C.3    32  ARG32       0.0492
     26  CD         6.5510    2.5060   -9.7630 C.3    32  ARG32       0.2205
     27  NE         6.6480    3.3810  -10.9300 N.pl3  32  ARG32      -0.0865
     28  CZ         7.3290    3.0870  -12.0370 C.cat  32  ARG32       0.5346
     29  NH1        8.0560    1.9810  -12.1060 N.pl3  32  ARG32       0.1354
     30  NH2        7.3090    3.9220  -13.0660 N.pl3  32  ARG32       0.1354
     31  N         11.7890    1.8040   -5.6500 N.3    35  GLU35      -0.1245
     32  CA        12.2600    1.1780   -6.8830 C.3    35  GLU35       0.1567
     33  C         13.1990    2.1190   -7.6400 C.2    35  GLU35       0.2260
     34  O         14.1440    1.6790   -8.2960 O.2    35  GLU35      -0.2867
     35  CB        11.0680    0.7940   -7.7680 C.3    35  GLU35       0.0388
     36  CG        11.4590    0.0990   -9.0640 C.3    35  GLU35       0.1160
     37  CD        10.2590   -0.3140   -9.8940 C.2    35  GLU35       0.3649
     38  OE1        9.4980    0.5740  -10.3300 O.co2  35  GLU35      -0.2457
     39  OE2       10.0860   -1.5250  -10.1360 O.co2  35  GLU35      -0.2457
     40  N          8.8970   -5.5060   -3.7750 N.3    56  LEU56      -0.1231
     41  CA         7.9020   -4.8960   -4.6470 C.3    56  LEU56       0.1693
     42  C          7.3070   -5.9100   -5.6150 C.2    56  LEU56       0.2592
     43  O          6.2900   -5.6460   -6.2480 O.2    56  LEU56      -0.2718
     44  CB         8.5280   -3.7500   -5.4350 C.3    56  LEU56       0.0284
     45  CG         9.3920   -2.7860   -4.6200 C.3    56  LEU56       0.0019
     46  CD1        9.8950   -1.6630   -5.5000 C.3    56  LEU56       0.0001
     47  CD2        8.6250   -2.2250   -3.4280 C.3    56  LEU56       0.0001
     48  N          7.9440   -7.0630   -5.7320 N.am   57  TYR57      -0.1962
     49  CA         7.4500   -8.1150   -6.6040 C.3    57  TYR57       0.1771
     50  C          7.2350   -9.3950   -5.8130 C.2    57  TYR57       0.2619
     51  O          7.1810  -10.4910   -6.3780 O.2    57  TYR57      -0.2715
     52  CB         8.4060   -8.3670   -7.7880 C.3    57  TYR57       0.0574
     53  CG         8.2790   -7.3620   -8.9340 C.ar   57  TYR57      -0.0198
     54  CD1        7.3190   -7.5270   -9.9430 C.ar   57  TYR57      -0.0009
     55  CD2        9.1150   -6.2430   -9.0110 C.ar   57  TYR57      -0.0009
     56  CE1        7.2050   -6.6110  -10.9740 C.ar   57  TYR57       0.0417
     57  CE2        9.0010   -5.3310  -10.0450 C.ar   57  TYR57       0.0417
     58  CZ         8.0430   -5.5200  -11.0190 C.ar   57  TYR57       0.1957
     59  OH         7.9200   -4.6130  -12.0450 O.3    57  TYR57      -0.2866
     60  N          7.1160   -9.2570   -4.4980 N.am   58  ALA58      -0.1963
     61  CA         6.8040  -10.3900   -3.6530 C.3    58  ALA58       0.1728
     62  C          5.3020  -10.5680   -3.6040 C.2    58  ALA58       0.2616
     63  O          4.5760   -9.7040   -3.1090 O.2    58  ALA58      -0.2715
     64  CB         7.3690  -10.1940   -2.2530 C.3    58  ALA58       0.0334
     65  N          4.8340  -11.6880   -4.1110 N.am   59  THR59      -0.1951
     66  CA         3.4160  -11.9160   -4.2130 C.3    59  THR59       0.1897
     67  C          2.9880  -13.1080   -3.3740 C.2    59  THR59       0.2313
     68  O          3.0380  -14.2530   -3.8190 O.2    59  THR59      -0.2863
     69  CB         2.9930  -12.1160   -5.6790 C.3    59  THR59       0.1794
     70  OG1        3.8920  -13.0250   -6.3310 O.3    59  THR59      -0.2208
     71  CG2        2.9780  -10.7870   -6.4260 C.3    59  THR59       0.0378
     72  N          0.5320  -15.1310   -2.5760 N.3    61  GLU61      -0.1245
     73  CA        -0.7610  -15.5710   -3.0770 C.3    61  GLU61       0.1567
     74  C         -0.8110  -17.0910   -3.1200 C.2    61  GLU61       0.2260
     75  O          0.1850  -17.7560   -2.8180 O.2    61  GLU61      -0.2867
     76  CB        -1.0010  -15.0110   -4.4860 C.3    61  GLU61       0.0388
     77  CG        -1.2900  -13.5200   -4.5250 C.3    61  GLU61       0.1160
     78  CD        -2.7460  -13.2030   -4.2520 C.2    61  GLU61       0.3649
     79  OE1       -3.4660  -12.8270   -5.2050 O.co2  61  GLU61      -0.2457
     80  OE2       -3.1880  -13.3430   -3.0950 O.co2  61  GLU61      -0.2457
     81  N          2.8110  -16.0580   -8.9040 N.3    65  ILE65      -0.1245
     82  CA         2.8580  -14.9900   -9.8900 C.3    65  ILE65       0.1561
     83  C          4.2530  -14.8930  -10.5050 C.2    65  ILE65       0.2260
     84  O          5.2350  -14.6630   -9.7950 O.2    65  ILE65      -0.2867
     85  CB         2.4800  -13.6310   -9.2610 C.3    65  ILE65       0.0252
     86  CG1        1.1080  -13.7180   -8.5810 C.3    65  ILE65       0.0019
     87  CG2        2.4890  -12.5280  -10.3090 C.3    65  ILE65       0.0019
     88  CD1       -0.0200  -14.1090   -9.5120 C.3    65  ILE65       0.0001
@<TRIPOS>BOND
     1    30    28    1
     2    29    28    1
     3    59    58    1
     4    28    27    2
     5    58    56   ar
     6    58    57   ar
     7    56    54   ar
     8    27    26    1
     9    83    82    1
    10    83    84    2
    11    38    37   ar
    12    87    85    1
    13    39    37   ar
    14    57    55   ar
    15    54    53   ar
    16    37    36    1
    17    82    85    1
    18    82    81    1
    19    26    25    1
    20    88    86    1
    21    85    86    1
    22    36    35    1
    23    55    53   ar
    24    53    52    1
    25    25    24    1
    26    34    33    2
    27     9    11   ar
    28     9     7   ar
    29    24    21    1
    30    52    49    1
    31    35    32    1
    32    11    10   ar
    33    33    32    1
    34     7     6   ar
    35    23    22    2
    36    21    22    1
    37    21    20    1
    38    32    31    1
    39    49    50    1
    40    49    48    1
    41    71    69    1
    42    51    50    2
    43    10     8   ar
    44    70    69    1
    45    43    42    2
    46     6     8   ar
    47     6     5    1
    48    20    14   am
    49    50    60   am
    50    48    42   am
    51    69    66    1
    52    42    41    1
    53    46    45    1
    54     4     3    2
    55    44    41    1
    56    44    45    1
    57    79    78   ar
    58    15    14    2
    59     5     2    1
    60    14    13    1
    61     3     2    1
    62    41    40    1
    63    45    47    1
    64    77    76    1
    65    77    78    1
    66    60    61    1
    67    76    73    1
    68     2     1    1
    69    78    80   ar
    70    66    65    1
    71    66    67    1
    72    65    62   am
    73    16    13    1
    74    16    17    1
    75    68    67    2
    76    13    12    1
    77    61    62    1
    78    61    64    1
    79    62    63    2
    80    74    73    1
    81    74    75    2
    82    73    72    1
    83    17    19    1
    84    17    18    1
