@<TRIPOS>MOLECULE
tmp/6evrB00.pdb
 163 158 0 0 0
SMALL
GASTEIGER

@<TRIPOS>ATOM
      1  N          9.5280   65.9150   51.9540 N.3    64  HIS64      -0.1241
      2  CA         8.5040   65.3190   52.8160 C.3    64  HIS64       0.1621
      3  C          8.6550   63.8120   52.7730 C.2    64  HIS64       0.2264
      4  O          8.9940   63.2440   51.6770 O.2    64  HIS64      -0.2867
      5  CB         7.0870   65.6470   52.2560 C.3    64  HIS64       0.0745
      6  CG         6.6970   67.0820   52.4740 C.ar   64  HIS64       0.0817
      7  ND1        5.5550   67.6090   51.8690 N.ar   64  HIS64      -0.2268
      8  CD2        7.2340   68.0670   53.2270 C.ar   64  HIS64       0.1154
      9  CE1        5.4420   68.8910   52.2410 C.ar   64  HIS64       0.1986
     10  NE2        6.4270   69.1860   53.0800 N.ar   64  HIS64      -0.2212
     11  N          0.2300   61.1460   58.3380 N.3    88  PHE88      -0.1227
     12  CA         0.3630   61.1970   56.8380 C.3    88  PHE88       0.1736
     13  C          1.7220   61.6360   56.3580 C.2    88  PHE88       0.2595
     14  O          2.1180   61.2810   55.2380 O.2    88  PHE88      -0.2718
     15  CB        -0.8070   62.0040   56.1750 C.3    88  PHE88       0.0547
     16  CG        -0.7670   63.4930   56.4240 C.ar   88  PHE88      -0.0202
     17  CD1       -1.3810   64.0460   57.5860 C.ar   88  PHE88      -0.0042
     18  CD2       -0.1260   64.3760   55.4840 C.ar   88  PHE88      -0.0042
     19  CE1       -1.4150   65.4390   57.7840 C.ar   88  PHE88      -0.0003
     20  CE2       -0.1360   65.7950   55.7050 C.ar   88  PHE88      -0.0003
     21  CZ        -0.7630   66.3130   56.8570 C.ar   88  PHE88      -0.0000
     22  N          2.5080   62.2890   57.1960 N.am   89  GLN89      -0.1979
     23  CA         3.7770   62.8410   56.7620 C.3    89  GLN89       0.1601
     24  C          4.6510   63.2230   57.9230 C.2    89  GLN89       0.2287
     25  O          4.1260   63.6560   58.9670 O.2    89  GLN89      -0.2864
     26  CB         3.4810   64.1270   55.9870 C.3    89  GLN89       0.0394
     27  CG         4.6830   64.7300   55.2680 C.3    89  GLN89       0.0908
     28  CD         4.2670   65.9590   54.5430 C.2    89  GLN89       0.2608
     29  OE1        3.5660   65.8950   53.4970 O.2    89  GLN89      -0.2717
     30  NE2        4.5530   67.0920   55.1380 N.am   89  GLN89      -0.0878
     31  N          8.3780   65.8790   58.2820 N.3    91  HIS91      -0.1241
     32  CA         9.3710   66.6810   57.5410 C.3    91  HIS91       0.1621
     33  C         10.0640   67.5550   58.5210 C.2    91  HIS91       0.2264
     34  O          9.8130   67.5340   59.7640 O.2    91  HIS91      -0.2867
     35  CB         8.6830   67.5940   56.4150 C.3    91  HIS91       0.0745
     36  CG         7.7470   68.6110   56.9990 C.ar   91  HIS91       0.0817
     37  ND1        6.3930   68.3880   57.0200 N.ar   91  HIS91      -0.2268
     38  CD2        7.9500   69.7860   57.6360 C.ar   91  HIS91       0.1154
     39  CE1        5.7800   69.3980   57.6520 C.ar   91  HIS91       0.1986
     40  NE2        6.7000   70.2640   58.0230 N.ar   91  HIS91      -0.2212
     41  N         12.1360   71.5930   59.2830 N.3    93  HIS93      -0.1241
     42  CA        12.5290   72.9520   58.9110 C.3    93  HIS93       0.1621
     43  C         13.9370   73.1860   59.4360 C.2    93  HIS93       0.2264
     44  O         14.2920   72.7150   60.5070 O.2    93  HIS93      -0.2867
     45  CB        11.5440   74.0070   59.4420 C.3    93  HIS93       0.0745
     46  CG        10.1520   73.7820   58.9740 C.ar   93  HIS93       0.0817
     47  ND1        9.5260   74.5160   57.9600 N.ar   93  HIS93      -0.2268
     48  CD2        9.2620   72.8670   59.4050 C.ar   93  HIS93       0.1154
     49  CE1        8.2800   74.0370   57.8140 C.ar   93  HIS93       0.1986
     50  NE2        8.0820   73.0680   58.7160 N.ar   93  HIS93      -0.2212
     51  N          8.5000   68.0800   62.2200 N.3   116  HIS116     -0.1241
     52  CA         7.0240   68.0990   62.2430 C.3   116  HIS116      0.1621
     53  C          6.4900   66.7310   61.8130 C.2   116  HIS116      0.2264
     54  O          6.8630   66.2380   60.7520 O.2   116  HIS116     -0.2867
     55  CB         6.5270   69.2020   61.2810 C.3   116  HIS116      0.0745
     56  CG         6.7910   70.5770   61.7970 C.ar  116  HIS116      0.0817
     57  ND1        6.7320   71.7110   61.0030 N.ar  116  HIS116     -0.2268
     58  CD2        7.0130   70.9970   63.0720 C.ar  116  HIS116      0.1154
     59  CE1        6.9830   72.7720   61.7690 C.ar  116  HIS116      0.1986
     60  NE2        7.1600   72.3750   63.0190 N.ar  116  HIS116     -0.2212
     61  N          2.9470   65.0880   61.0450 N.3   118  ALA118     -0.1245
     62  CA         1.6220   65.6780   60.7340 C.3   118  ALA118      0.1562
     63  C          0.5490   64.5170   60.5950 C.2   118  ALA118      0.2260
     64  O          0.8520   63.4500   60.0450 O.2   118  ALA118     -0.2867
     65  CB         1.7200   66.3840   59.4250 C.3   118  ALA118      0.0290
     66  N         -7.5340   63.4300   53.9750 N.3   128  LEU128     -0.1231
     67  CA        -6.6560   64.5860   54.2320 C.3   128  LEU128      0.1693
     68  C         -7.1980   65.8610   53.6390 C.2   128  LEU128      0.2591
     69  O         -7.2470   66.8790   54.2990 O.2   128  LEU128     -0.2718
     70  CB        -5.2410   64.2830   53.7120 C.3   128  LEU128      0.0284
     71  CG        -4.2570   65.5150   53.7590 C.3   128  LEU128      0.0019
     72  CD1       -4.0850   66.0770   55.2050 C.3   128  LEU128      0.0001
     73  CD2       -2.8850   65.1310   53.1470 C.3   128  LEU128      0.0001
     74  N         -7.6660   65.8060   52.3870 N.am  129  ALA129     -0.1980
     75  CA        -8.0730   67.0440   51.7520 C.3   129  ALA129      0.1597
     76  C         -9.3250   67.6520   52.4220 C.2   129  ALA129      0.2287
     77  O         -9.4280   68.8710   52.5500 O.2   129  ALA129     -0.2864
     78  CB        -8.3790   66.7770   50.2850 C.3   129  ALA129      0.0319
     79  N         -8.0780   69.1140   55.9250 N.3   132  ALA132     -0.1245
     80  CA        -6.9700   70.1340   55.9310 C.3   132  ALA132      0.1562
     81  C         -7.4070   71.5640   56.0820 C.2   132  ALA132      0.2260
     82  O         -6.6070   72.4050   56.4420 O.2   132  ALA132     -0.2867
     83  CB        -6.0800   70.0090   54.6980 C.3   132  ALA132      0.0290
     84  N         -6.3000   68.8990   61.5580 N.3   138  LEU138     -0.1245
     85  CA        -4.8670   68.4590   61.5260 C.3   138  LEU138      0.1561
     86  C         -4.2530   68.5410   62.8980 C.2   138  LEU138      0.2260
     87  O         -4.6620   69.3850   63.7150 O.2   138  LEU138     -0.2867
     88  CB        -4.0520   69.3530   60.5660 C.3   138  LEU138      0.0270
     89  CG        -4.6110   69.4640   59.1300 C.3   138  LEU138      0.0019
     90  CD1       -3.5780   70.2430   58.3190 C.3   138  LEU138      0.0001
     91  CD2       -4.6560   68.0230   58.5050 C.3   138  LEU138      0.0001
     92  N         -0.2520   68.3880   64.4900 N.3   140  VAL140     -0.1245
     93  CA         1.1790   68.2540   64.1180 C.3   140  VAL140      0.1561
     94  C          2.0000   68.2830   65.4290 C.2   140  VAL140      0.2260
     95  O          1.7840   69.1700   66.2840 O.2   140  VAL140     -0.2867
     96  CB         1.6450   69.4140   63.2300 C.3   140  VAL140      0.0252
     97  CG1        3.0760   69.1210   62.7540 C.3   140  VAL140      0.0019
     98  CG2        0.7790   69.4560   61.9730 C.3   140  VAL140      0.0019
     99  N         -1.0720   75.8170   59.4350 N.3   195  LEU195     -0.1231
    100  CA         0.0710   75.3330   58.6500 C.3   195  LEU195      0.1693
    101  C          1.0760   76.4400   58.6540 C.2   195  LEU195      0.2593
    102  O          0.7020   77.6460   58.6060 O.2   195  LEU195     -0.2718
    103  CB        -0.3680   75.1050   57.1960 C.3   195  LEU195      0.0284
    104  CG        -1.3510   73.9480   57.0620 C.3   195  LEU195      0.0019
    105  CD1       -2.0730   73.9380   55.6950 C.3   195  LEU195      0.0001
    106  CD2       -0.6740   72.5920   57.4000 C.3   195  LEU195      0.0001
    107  N          2.3560   76.1180   58.6490 N.am  196  THR196     -0.1939
    108  CA         3.3600   77.2140   58.7550 C.3   196  THR196      0.2028
    109  C          3.8310   77.7810   57.4130 C.2   196  THR196      0.2642
    110  O          4.7240   78.6500   57.3450 O.2   196  THR196     -0.2714
    111  CB         4.5830   76.8620   59.5910 C.3   196  THR196      0.1808
    112  OG1        5.2880   75.7960   58.9320 O.3   196  THR196     -0.2208
    113  CG2        4.1680   76.4700   60.9560 C.3   196  THR196      0.0379
    114  N          3.2750   77.2640   56.3360 N.am  197  HIS197     -0.1973
    115  CA         3.5660   77.8700   55.0130 C.3   197  HIS197      0.1656
    116  C          2.2780   77.7840   54.1920 C.2   197  HIS197      0.2291
    117  O          1.3130   77.1390   54.6210 O.2   197  HIS197     -0.2864
    118  CB         4.8350   77.2570   54.3350 C.3   197  HIS197      0.0771
    119  CG         4.7570   75.7930   54.0810 C.ar  197  HIS197      0.0820
    120  ND1        3.8500   75.2100   53.2090 N.ar  197  HIS197     -0.2267
    121  CD2        5.5200   74.7810   54.5680 C.ar  197  HIS197      0.1154
    122  CE1        4.0930   73.9040   53.1560 C.ar  197  HIS197      0.1986
    123  NE2        5.1190   73.6250   53.9560 N.ar  197  HIS197     -0.2212
    124  N         -0.6920   76.6280   52.0830 N.3   199  PRO199     -0.2116
    125  CA        -1.8070   77.6130   52.0630 C.3   199  PRO199      0.1372
    126  C         -2.1900   78.2150   53.4080 C.2   199  PRO199      0.2244
    127  O         -3.1820   78.9960   53.4810 O.2   199  PRO199     -0.2868
    128  CB        -3.0040   76.7710   51.5800 C.3   199  PRO199      0.0268
    129  CG        -2.6950   75.3900   52.0530 C.3   199  PRO199      0.0207
    130  CD        -1.1780   75.2540   51.8480 C.3   199  PRO199      0.0892
    131  N         -3.6350   77.4240   56.1290 N.3   201  TYR201     -0.1241
    132  CA        -4.9210   77.1730   56.7710 C.3   201  TYR201      0.1605
    133  C         -4.7980   77.0660   58.2390 C.2   201  TYR201      0.2264
    134  O         -3.8710   76.4160   58.7930 O.2   201  TYR201     -0.2867
    135  CB        -5.5410   75.8520   56.2510 C.3   201  TYR201      0.0534
    136  CG        -5.9190   75.8810   54.7740 C.ar  201  TYR201     -0.0201
    137  CD1       -6.5410   77.0140   54.2030 C.ar  201  TYR201     -0.0009
    138  CD2       -5.7410   74.7410   53.9800 C.ar  201  TYR201     -0.0009
    139  CE1       -6.8810   77.0320   52.8270 C.ar  201  TYR201      0.0417
    140  CE2       -6.0700   74.7450   52.6200 C.ar  201  TYR201      0.0417
    141  CZ        -6.6830   75.8710   52.0650 C.ar  201  TYR201      0.1957
    142  OH        -7.0350   75.8620   50.6890 O.3   201  TYR201     -0.2866
    143  N         -4.6660   73.5440   62.3490 N.3   204  VAL204     -0.1245
    144  CA        -3.6840   72.6750   63.0850 C.3   204  VAL204      0.1561
    145  C         -3.7270   72.8140   64.5780 C.2   204  VAL204      0.2260
    146  O         -3.5740   73.9300   65.0990 O.2   204  VAL204     -0.2867
    147  CB        -2.2380   72.9710   62.6120 C.3   204  VAL204      0.0252
    148  CG1       -1.2510   72.0520   63.3870 C.3   204  VAL204      0.0019
    149  CG2       -2.0540   72.7630   61.0990 C.3   204  VAL204      0.0019
    150  N         -1.4580   72.2410   67.4420 N.3   206  TRP206     -0.1241
    151  CA        -0.0100   72.0160   67.6160 C.3   206  TRP206      0.1605
    152  C          0.2860   71.2940   68.9010 C.2   206  TRP206      0.2264
    153  O         -0.2880   71.6250   69.9500 O.2   206  TRP206     -0.2867
    154  CB         0.7670   73.3590   67.5350 C.3   206  TRP206      0.0550
    155  CG         0.9800   73.7950   66.1230 C.ar  206  TRP206      0.0003
    156  CD1        0.1830   74.6340   65.3490 C.ar  206  TRP206      0.0946
    157  CD2        1.9770   73.2730   65.2320 C.ar  206  TRP206      0.0152
    158  NE1        0.6680   74.6910   64.0490 N.ar  206  TRP206     -0.2442
    159  CE2        1.7730   73.8630   63.9710 C.ar  206  TRP206      0.0810
    160  CE3        3.0600   72.3540   65.3970 C.ar  206  TRP206      0.0012
    161  CZ2        2.6140   73.5980   62.8620 C.ar  206  TRP206      0.0191
    162  CZ3        3.9260   72.1410   64.3000 C.ar  206  TRP206      0.0001
    163  CH2        3.6660   72.7200   63.0370 C.ar  206  TRP206      0.0015
@<TRIPOS>BOND
     1    78    75    1
     2   142   141    1
     3   128   129    1
     4   128   125    1
     5     4     3    2
     6    75    74    1
     7    75    76    1
     8   130   129    1
     9   130   124    1
    10     7     9   ar
    11     7     6   ar
    12     1     2    1
    13   125   124    1
    14   125   126    1
    15   141   140   ar
    16   141   139   ar
    17     9    10   ar
    18     5     6    1
    19     5     2    1
    20    74    68   am
    21    76    77    2
    22     6     8   ar
    23   140   138   ar
    24     3     2    1
    25   139   137   ar
    26    10     8   ar
    27    73    71    1
    28   122   120   ar
    29   122   123   ar
    30   120   119   ar
    31   126   127    2
    32    29    28    2
    33    68    67    1
    34    68    69    2
    35    70    71    1
    36    70    67    1
    37    71    72    1
    38   123   121   ar
    39    66    67    1
    40   138   136   ar
    41   119   118    1
    42   119   121   ar
    43   116   117    2
    44   116   115    1
    45   137   136   ar
    46   118   115    1
    47    28    30   am
    48    28    27    1
    49    83    80    1
    50   136   135    1
    51   115   114    1
    52    14    13    2
    53    27    26    1
    54    18    20   ar
    55    18    16   ar
    56   105   104    1
    57    20    21   ar
    58    79    80    1
    59    80    81    1
    60    26    23    1
    61    81    82    2
    62   131   132    1
    63    15    16    1
    64    15    12    1
    65   135   132    1
    66   114   109   am
    67    13    12    1
    68    13    22   am
    69    35    36    1
    70    35    32    1
    71    16    17   ar
    72    23    22    1
    73    23    24    1
    74   132   133    1
    75    12    11    1
    76    21    19   ar
    77    36    37   ar
    78    36    38   ar
    79    37    39   ar
    80   104   103    1
    81   104   106    1
    82   103   100    1
    83   110   109    2
    84   109   108    1
    85    32    31    1
    86    32    33    1
    87    17    19   ar
    88    38    40   ar
    89    39    40   ar
    90    49    47   ar
    91    49    50   ar
    92    24    25    2
    93    47    46   ar
    94   133   134    2
    95    90    89    1
    96    91    89    1
    97    33    34    2
    98   102   101    2
    99   107   101   am
   100   107   108    1
   101   100   101    1
   102   100    99    1
   103    50    48   ar
   104   108   111    1
   105    42    41    1
   106    42    43    1
   107    42    45    1
   108   112   111    1
   109    46    48   ar
   110    46    45    1
   111    89    88    1
   112    65    62    1
   113    43    44    2
   114   111   113    1
   115    64    63    2
   116    88    85    1
   117    63    62    1
   118    62    61    1
   119    54    53    2
   120    57    59   ar
   121    57    56   ar
   122   149   147    1
   123    55    56    1
   124    55    52    1
   125    85    84    1
   126    85    86    1
   127    59    60   ar
   128    56    58   ar
   129    53    52    1
   130    98    96    1
   131    51    52    1
   132   143   144    1
   133   147   144    1
   134   147   148    1
   135    97    96    1
   136   161   163   ar
   137   161   159   ar
   138    86    87    2
   139    60    58   ar
   140   163   162   ar
   141   144   145    1
   142    96    93    1
   143   159   158   ar
   144   159   157   ar
   145   158   156   ar
   146    93    92    1
   147    93    94    1
   148   162   160   ar
   149   145   146    2
   150   157   160   ar
   151   157   155   ar
   152   156   155   ar
   153    94    95    2
   154   155   154    1
   155   150   151    1
   156   154   151    1
   157   151   152    1
   158   152   153    2
