@<TRIPOS>MOLECULE
tmp/6ew3B00.pdb
 124 122 0 0 0
SMALL
GASTEIGER

@<TRIPOS>ATOM
      1  N        -25.6600   -8.4070   64.7940 N.3    31  PHE31      -0.1241
      2  CA       -26.5750   -8.8800   63.7590 C.3    31  PHE31       0.1605
      3  C        -26.5860   -7.8600   62.6310 C.2    31  PHE31       0.2264
      4  O        -26.9770   -6.7080   62.8420 O.2    31  PHE31      -0.2867
      5  CB       -27.9860   -9.0870   64.3180 C.3    31  PHE31       0.0534
      6  CG       -28.9190   -9.7860   63.3700 C.ar   31  PHE31      -0.0203
      7  CD1      -29.1530  -11.1470   63.4830 C.ar   31  PHE31      -0.0042
      8  CD2      -29.5640   -9.0820   62.3670 C.ar   31  PHE31      -0.0042
      9  CE1      -30.0110  -11.7920   62.6120 C.ar   31  PHE31      -0.0003
     10  CE2      -30.4180   -9.7230   61.4910 C.ar   31  PHE31      -0.0003
     11  CZ       -30.6450  -11.0780   61.6170 C.ar   31  PHE31      -0.0000
     12  N        -29.0480  -15.3000   73.8740 N.3    56  TRP56      -0.1241
     13  CA       -28.8020  -15.0530   72.4540 C.3    56  TRP56       0.1605
     14  C        -27.4850  -15.6910   72.0030 C.2    56  TRP56       0.2264
     15  O        -26.5650  -15.0230   71.5290 O.2    56  TRP56      -0.2867
     16  CB       -28.8190  -13.5500   72.1540 C.3    56  TRP56       0.0550
     17  CG       -28.9660  -13.2090   70.6920 C.ar   56  TRP56       0.0003
     18  CD1      -28.8570  -14.0630   69.6310 C.ar   56  TRP56       0.0946
     19  CD2      -29.2570  -11.9170   70.1350 C.ar   56  TRP56       0.0152
     20  NE1      -29.0570  -13.3830   68.4510 N.ar   56  TRP56      -0.2442
     21  CE2      -29.3030  -12.0650   68.7350 C.ar   56  TRP56       0.0810
     22  CE3      -29.4790  -10.6510   70.6870 C.ar   56  TRP56       0.0012
     23  CZ2      -29.5650  -10.9960   67.8800 C.ar   56  TRP56       0.0191
     24  CZ3      -29.7370   -9.5920   69.8360 C.ar   56  TRP56       0.0001
     25  CH2      -29.7780   -9.7710   68.4490 C.ar   56  TRP56       0.0015
     26  N        -40.2620  -17.1860   72.4250 N.3    83  HIS83      -0.1241
     27  CA       -40.6140  -17.4230   71.0250 C.3    83  HIS83       0.1621
     28  C        -39.3890  -18.0090   70.3280 C.2    83  HIS83       0.2264
     29  O        -38.3660  -18.2880   70.9620 O.2    83  HIS83      -0.2867
     30  CB       -41.1560  -16.1610   70.3370 C.3    83  HIS83       0.0745
     31  CG       -40.1380  -15.0970   70.0620 C.ar   83  HIS83       0.0817
     32  ND1      -39.8290  -14.1070   70.9720 N.ar   83  HIS83      -0.2268
     33  CD2      -39.4090  -14.8280   68.9530 C.ar   83  HIS83       0.1154
     34  CE1      -38.9290  -13.2950   70.4480 C.ar   83  HIS83       0.1986
     35  NE2      -38.6570  -13.7100   69.2240 N.ar   83  HIS83      -0.2212
     36  N        -37.1170  -17.2290   67.9890 N.3    85  HIS85      -0.1226
     37  CA       -35.9400  -16.5850   67.4180 C.3    85  HIS85       0.1752
     38  C        -34.6840  -16.8880   68.2380 C.2    85  HIS85       0.2596
     39  O        -34.7430  -17.2290   69.4220 O.2    85  HIS85      -0.2718
     40  CB       -36.1460  -15.0700   67.3130 C.3    85  HIS85       0.0759
     41  CG       -37.0440  -14.6600   66.1880 C.ar   85  HIS85       0.0818
     42  ND1      -37.8400  -13.5360   66.2410 N.ar   85  HIS85      -0.2268
     43  CD2      -37.2620  -15.2170   64.9730 C.ar   85  HIS85       0.1154
     44  CE1      -38.5160  -13.4230   65.1120 C.ar   85  HIS85       0.1986
     45  NE2      -38.1820  -14.4300   64.3240 N.ar   85  HIS85      -0.2212
     46  N        -33.5290  -16.7390   67.5760 N.am   86  ASP86      -0.1960
     47  CA       -32.2480  -17.1210   68.1700 C.3    86  ASP86       0.1840
     48  C        -31.9910  -16.4150   69.4950 C.2    86  ASP86       0.2622
     49  O        -31.3470  -16.9870   70.3810 O.2    86  ASP86      -0.2715
     50  CB       -31.1000  -16.8230   67.1970 C.3    86  ASP86       0.1450
     51  CG       -30.5510  -18.0760   66.5260 C.2    86  ASP86       0.3671
     52  OD1      -30.0900  -18.9890   67.2440 O.co2  86  ASP86      -0.2456
     53  OD2      -30.5780  -18.1470   65.2770 O.co2  86  ASP86      -0.2456
     54  N        -32.4640  -15.1760   69.6570 N.am   87  ASP87      -0.1971
     55  CA       -32.2270  -14.4830   70.9180 C.3    87  ASP87       0.1709
     56  C        -32.9980  -15.1150   72.0700 C.2    87  ASP87       0.2293
     57  O        -32.6980  -14.8250   73.2340 O.2    87  ASP87      -0.2864
     58  CB       -32.5850  -13.0000   70.7880 C.3    87  ASP87       0.1436
     59  CG       -34.0510  -12.7760   70.4880 C.2    87  ASP87       0.3671
     60  OD1      -34.6690  -13.6440   69.8390 O.co2  87  ASP87      -0.2456
     61  OD2      -34.5880  -11.7280   70.9060 O.co2  87  ASP87      -0.2456
     62  N        -45.0920   -9.5750   67.8480 N.3   148  HIS148     -0.1241
     63  CA       -43.7570   -9.6370   67.2650 C.3   148  HIS148      0.1621
     64  C        -43.5700  -10.9330   66.4870 C.2   148  HIS148      0.2264
     65  O        -42.9410  -10.9480   65.4230 O.2   148  HIS148     -0.2867
     66  CB       -42.7000   -9.5100   68.3600 C.3   148  HIS148      0.0745
     67  CG       -41.3400   -9.9550   67.9290 C.ar  148  HIS148      0.0817
     68  ND1      -40.5500   -9.2170   67.0740 N.ar  148  HIS148     -0.2268
     69  CD2      -40.6390  -11.0760   68.2180 C.ar  148  HIS148      0.1154
     70  CE1      -39.4150   -9.8600   66.8640 C.ar  148  HIS148      0.1986
     71  NE2      -39.4440  -10.9900   67.5470 N.ar  148  HIS148     -0.2212
     72  N        -40.1280   -9.6830   73.3160 N.3   167  CYS167     -0.1235
     73  CA       -39.9220   -8.8760   72.1230 C.3   167  CYS167      0.1677
     74  C        -41.2200   -8.3430   71.5330 C.2   167  CYS167      0.2270
     75  O        -41.1730   -7.5470   70.5870 O.2   167  CYS167     -0.2867
     76  CB       -39.1620   -9.7090   71.0970 C.3   167  CYS167      0.0956
     77  SG       -37.6290  -10.3580   71.8000 S.3   167  CYS167     -0.0801
     78  N        -41.4850   -3.1120   73.0010 N.3   170  TYR170     -0.1241
     79  CA       -40.2920   -2.3330   72.7060 C.3   170  TYR170      0.1605
     80  C        -39.9290   -1.4390   73.8860 C.2   170  TYR170      0.2264
     81  O        -40.7940   -1.0050   74.6520 O.2   170  TYR170     -0.2867
     82  CB       -40.5000   -1.4530   71.4680 C.3   170  TYR170      0.0534
     83  CG       -40.5360   -2.1710   70.1340 C.ar  170  TYR170     -0.0201
     84  CD1      -39.8560   -3.3670   69.9320 C.ar  170  TYR170     -0.0009
     85  CD2      -41.2450   -1.6350   69.0660 C.ar  170  TYR170     -0.0009
     86  CE1      -39.8900   -4.0070   68.7030 C.ar  170  TYR170      0.0417
     87  CE2      -41.2840   -2.2680   67.8400 C.ar  170  TYR170      0.0417
     88  CZ       -40.6070   -3.4510   67.6620 C.ar  170  TYR170      0.1957
     89  OH       -40.6500   -4.0760   66.4350 O.3   170  TYR170     -0.2866
     90  N        -38.6680   -2.7270   64.8000 N.3   178  GLY178     -0.1210
     91  CA       -37.4940   -3.5600   64.6320 C.3   178  GLY178      0.1956
     92  C        -37.6030   -4.3960   63.3750 C.2   178  GLY178      0.2611
     93  O        -37.9950   -3.8870   62.3210 O.2   178  GLY178     -0.2717
     94  N        -37.2660   -5.6780   63.4670 N.am  179  ASN179     -0.1974
     95  CA       -37.5060   -6.6150   62.3800 C.3   179  ASN179      0.1688
     96  C        -38.9060   -7.1890   62.5640 C.2   179  ASN179      0.2292
     97  O        -39.2040   -7.7880   63.6030 O.2   179  ASN179     -0.2864
     98  CB       -36.4440   -7.7130   62.3670 C.3   179  ASN179      0.1181
     99  CG       -36.5760   -8.6450   61.1770 C.2   179  ASN179      0.2629
    100  OD1      -37.6810   -8.9880   60.7590 O.2   179  ASN179     -0.2716
    101  ND2      -35.4420   -9.0560   60.6240 N.am  179  ASN179     -0.0877
    102  N        -40.4600   -9.1490   60.1530 N.3   181  ALA181     -0.1231
    103  CA       -40.6660  -10.1430   59.1050 C.3   181  ALA181      0.1694
    104  C        -41.6170  -11.2420   59.5640 C.2   181  ALA181      0.2592
    105  O        -42.4200  -11.7490   58.7710 O.2   181  ALA181     -0.2718
    106  CB       -39.3230  -10.7400   58.6820 C.3   181  ALA181      0.0304
    107  N        -41.5410  -11.6230   60.8370 N.am  182  ASP182     -0.1974
    108  CA       -42.3810  -12.6750   61.3940 C.3   182  ASP182      0.1709
    109  C        -43.5400  -12.1270   62.2150 C.2   182  ASP182      0.2293
    110  O        -44.2120  -12.8960   62.9110 O.2   182  ASP182     -0.2864
    111  CB       -41.5370  -13.6140   62.2590 C.3   182  ASP182      0.1436
    112  CG       -40.4490  -14.3100   61.4680 C.2   182  ASP182      0.3671
    113  OD1      -40.6900  -14.6350   60.2890 O.co2 182  ASP182     -0.2456
    114  OD2      -39.3500  -14.5280   62.0220 O.co2 182  ASP182     -0.2456
    115  N        -35.6620   -6.2320   74.4410 N.3   209  HIS209     -0.1241
    116  CA       -34.3690   -5.5990   74.2080 C.3   209  HIS209      0.1621
    117  C        -34.3920   -4.1960   74.7950 C.2   209  HIS209      0.2264
    118  O        -35.2300   -3.3760   74.4090 O.2   209  HIS209     -0.2867
    119  CB       -34.0450   -5.5440   72.7090 C.3   209  HIS209      0.0745
    120  CG       -34.1270   -6.8700   72.0160 C.ar  209  HIS209      0.0817
    121  ND1      -33.0580   -7.7380   71.9370 N.ar  209  HIS209     -0.2268
    122  CD2      -35.1470   -7.4710   71.3590 C.ar  209  HIS209      0.1154
    123  CE1      -33.4180   -8.8170   71.2670 C.ar  209  HIS209      0.1986
    124  NE2      -34.6800   -8.6800   70.9040 N.ar  209  HIS209     -0.2212
@<TRIPOS>BOND
     1   106   103    1
     2   105   104    2
     3   103   104    1
     4   103   102    1
     5   104   107   am
     6   113   112   ar
     7   101    99   am
     8   100    99    2
     9   107   108    1
    10    99    98    1
    11   108   109    1
    12   108   111    1
    13   112   114   ar
    14   112   111    1
    15    10    11   ar
    16    10     8   ar
    17    11     9   ar
    18   109   110    2
    19    93    92    2
    20     8     6   ar
    21    98    95    1
    22    95    96    1
    23    95    94    1
    24    96    97    2
    25     9     7   ar
    26     3     4    2
    27     3     2    1
    28     6     7   ar
    29     6     5    1
    30    92    94   am
    31    92    91    1
    32     2     5    1
    33     2     1    1
    34    45    43   ar
    35    45    44   ar
    36    91    90    1
    37    43    41   ar
    38    44    42   ar
    39    53    51   ar
    40    65    64    2
    41    41    42   ar
    42    41    40    1
    43    89    88    1
    44    64    63    1
    45    51    50    1
    46    51    52   ar
    47    70    68   ar
    48    70    71   ar
    49    68    67   ar
    50    50    47    1
    51    63    62    1
    52    63    66    1
    53    40    37    1
    54    37    36    1
    55    37    38    1
    56    71    69   ar
    57    46    47    1
    58    46    38   am
    59    88    87   ar
    60    88    86   ar
    61    87    85   ar
    62    23    25   ar
    63    23    21   ar
    64    67    69   ar
    65    67    66    1
    66    47    48    1
    67    38    39    2
    68    25    24   ar
    69    20    21   ar
    70    20    18   ar
    71    86    84   ar
    72    21    19   ar
    73    33    35   ar
    74    33    31   ar
    75    85    83   ar
    76    35    34   ar
    77    48    54   am
    78    48    49    2
    79    18    17   ar
    80    54    55    1
    81    24    22   ar
    82    60    59   ar
    83    84    83   ar
    84    31    30    1
    85    31    32   ar
    86    83    82    1
    87    19    22   ar
    88    19    17   ar
    89    28    29    2
    90    28    27    1
    91    30    27    1
    92    34    32   ar
    93    59    58    1
    94    59    61   ar
    95    75    74    2
    96    17    16    1
    97    58    55    1
    98   124   123   ar
    99   124   122   ar
   100    55    56    1
   101    27    26    1
   102    76    77    1
   103    76    73    1
   104   123   121   ar
   105   122   120   ar
   106    82    79    1
   107    15    14    2
   108    74    73    1
   109   121   120   ar
   110    14    13    1
   111   120   119    1
   112    56    57    2
   113    73    72    1
   114    16    13    1
   115    13    12    1
   116    79    78    1
   117    79    80    1
   118   119   116    1
   119    80    81    2
   120   116   115    1
   121   116   117    1
   122   118   117    2
