@<TRIPOS>MOLECULE
tmp/6ew7B00.pdb
 74 71 0 0 0
SMALL
GASTEIGER

@<TRIPOS>ATOM
      1  N          6.2050   -4.7280  -16.0020 N.3    42  THR42      -0.1218
      2  CA         5.2370   -3.6400  -15.7190 C.3    42  THR42       0.1862
      3  C          5.7970   -2.2930  -16.1730 C.2    42  THR42       0.2287
      4  O          5.0870   -1.5310  -16.8250 O.2    42  THR42      -0.2866
      5  CB         4.8490   -3.6160  -14.2350 C.3    42  THR42       0.1770
      6  OG1        6.0330   -3.6350  -13.4290 O.3    42  THR42      -0.2211
      7  CG2        3.9420   -4.8080  -13.8580 C.3    42  THR42       0.0375
      8  N          5.8740   -2.1520  -20.0600 N.3    45  MET45      -0.1230
      9  CA         4.4940   -1.9520  -20.5350 C.3    45  MET45       0.1702
     10  C          4.0650   -0.4960  -20.3340 C.2    45  MET45       0.2592
     11  O          3.4200    0.0720  -21.2240 O.2    45  MET45      -0.2718
     12  CB         3.5280   -2.8830  -19.8130 C.3    45  MET45       0.0401
     13  CG         3.7040   -4.3370  -20.1380 C.3    45  MET45       0.0596
     14  SD         2.5730   -5.2960  -19.0970 S.3    45  MET45      -0.1393
     15  CE         1.1470   -5.1810  -19.9750 C.3    45  MET45       0.0692
     16  N          4.3730    0.0840  -19.1460 N.am   46  ALA46      -0.1966
     17  CA         4.0310    1.4700  -18.7990 C.3    46  ALA46       0.1728
     18  C          4.6640    2.5220  -19.7010 C.2    46  ALA46       0.2616
     19  O          4.2040    3.6750  -19.6830 O.2    46  ALA46      -0.2715
     20  CB         4.3980    1.7590  -17.3510 C.3    46  ALA46       0.0334
     21  N          5.7220    2.1570  -20.4550 N.am   47  CYS47      -0.1954
     22  CA         6.4660    3.1140  -21.2890 C.3    47  CYS47       0.1843
     23  C          6.4290    2.8910  -22.7760 C.2    47  CYS47       0.2626
     24  O          6.7710    3.8110  -23.5090 O.2    47  CYS47      -0.2714
     25  CB         7.9160    3.1330  -20.8340 C.3    47  CYS47       0.0997
     26  SG         8.1620    3.5680  -19.1020 S.3    47  CYS47      -0.0797
     27  N          6.1710    1.6540  -23.2250 N.am   48  SER48      -0.1936
     28  CA         6.3420    1.2450  -24.6210 C.3    48  SER48       0.2055
     29  C          5.1030    0.5760  -25.2120 C.2    48  SER48       0.2643
     30  O          4.6280   -0.4160  -24.6730 O.2    48  SER48      -0.2714
     31  CB         7.5180    0.2590  -24.6810 C.3    48  SER48       0.2130
     32  OG         7.6540   -0.4940  -25.8880 O.3    48  SER48      -0.2179
     33  N          4.6450    1.0850  -26.3450 N.am   49  GLY49      -0.1954
     34  CA         3.5210    0.4930  -27.0740 C.3    49  GLY49       0.1869
     35  C          3.8040   -0.9370  -27.4920 C.2    49  GLY49       0.2309
     36  O          2.9170   -1.7920  -27.4020 O.2    49  GLY49      -0.2863
     37  N          3.7280   -3.1120  -24.2730 N.3    52  TYR52      -0.1241
     38  CA         2.3330   -3.1410  -23.8490 C.3    52  TYR52       0.1605
     39  C          1.5580   -4.1220  -24.7300 C.2    52  TYR52       0.2264
     40  O          0.7900   -4.9170  -24.2000 O.2    52  TYR52      -0.2867
     41  CB         1.7220   -1.7510  -23.9310 C.3    52  TYR52       0.0534
     42  CG         0.2330   -1.7030  -23.7000 C.ar   52  TYR52      -0.0201
     43  CD1       -0.2890   -1.6330  -22.4120 C.ar   52  TYR52      -0.0009
     44  CD2       -0.6530   -1.6430  -24.7700 C.ar   52  TYR52      -0.0009
     45  CE1       -1.6620   -1.5560  -22.1900 C.ar   52  TYR52       0.0417
     46  CE2       -2.0290   -1.5780  -24.5650 C.ar   52  TYR52       0.0417
     47  CZ        -2.5290   -1.5390  -23.2690 C.ar   52  TYR52       0.1957
     48  OH        -3.8820   -1.4770  -23.0430 O.3    52  TYR52      -0.2866
     49  N          7.6900    2.0480  -29.9600 N.3   107  GLN107     -0.1231
     50  CA         6.4390    2.8080  -29.9150 C.3   107  GLN107      0.1698
     51  C          6.3850    3.6640  -28.6480 C.2   107  GLN107      0.2592
     52  O          5.5200    3.4770  -27.7930 O.2   107  GLN107     -0.2718
     53  CB         5.2050    1.9090  -30.0660 C.3   107  GLN107      0.0381
     54  CG         5.2400    1.0010  -31.2640 C.3   107  GLN107      0.0905
     55  CD         4.2110   -0.0850  -31.1570 C.2   107  GLN107      0.2608
     56  OE1        3.2080    0.0390  -30.4410 O.2   107  GLN107     -0.2717
     57  NE2        4.4550   -1.1860  -31.8570 N.am  107  GLN107     -0.0878
     58  N          7.3470    4.5980  -28.5440 N.am  108  MET108     -0.1965
     59  CA         7.4820    5.5540  -27.4450 C.3   108  MET108      0.1736
     60  C          7.3160    6.9450  -28.1020 C.2   108  MET108      0.2619
     61  O          8.3010    7.6120  -28.4130 O.2   108  MET108     -0.2715
     62  CB         8.8560    5.3740  -26.7550 C.3   108  MET108      0.0427
     63  CG         9.0120    4.0320  -26.0780 C.3   108  MET108      0.0599
     64  SD        10.6780    3.6540  -25.5050 S.3   108  MET108     -0.1393
     65  CE        10.8150    4.7580  -24.0730 C.3   108  MET108      0.0692
     66  N          6.0580    7.3270  -28.3800 N.am  109  GLU109     -0.1932
     67  CA         5.6940    8.5550  -29.1150 C.3   109  GLU109      0.1818
     68  C          6.3170    9.8570  -28.5690 C.2   109  GLU109      0.2332
     69  O          6.6720   10.7050  -29.3790 O.2   109  GLU109     -0.2860
     70  CB         4.1660    8.7180  -29.2610 C.2   109  GLU109      0.0097
     71  CG         3.3920    8.8480  -27.9560 C.2   109  GLU109      0.0837
     72  CD         1.9480    9.2920  -28.0920 C.2   109  GLU109      0.3877
     73  OE1        1.6420   10.4420  -27.7010 O.co2 109  GLU109     -0.2406
     74  OE2        1.1180    8.4870  -28.5730 O.co2 109  GLU109     -0.2406
@<TRIPOS>BOND
     1    57    55   am
     2    54    55    1
     3    54    53    1
     4    55    56    2
     5    53    50    1
     6    49    50    1
     7    50    51    1
     8    69    68    2
     9    70    67    1
    10    70    71    2
    11    67    68    1
    12    67    66    1
    13    51    58   am
    14    51    52    2
    15    74    72   ar
    16    58    59    1
    17    61    60    2
    18    66    60   am
    19    60    59    1
    20    72    71    1
    21    72    73   ar
    22    35    36    2
    23    35    34    1
    24    59    62    1
    25    34    33    1
    26    62    63    1
    27    33    29   am
    28    63    64    1
    29    32    31    1
    30    64    65    1
    31    29    30    2
    32    29    28    1
    33    44    46   ar
    34    44    42   ar
    35    39    40    2
    36    39    38    1
    37    31    28    1
    38    28    27    1
    39    46    47   ar
    40    37    38    1
    41    41    38    1
    42    41    42    1
    43    42    43   ar
    44    24    23    2
    45    47    48    1
    46    47    45   ar
    47    27    23   am
    48    23    22    1
    49    43    45   ar
    50    22    25    1
    51    22    21    1
    52    11    10    2
    53    25    26    1
    54     9    10    1
    55     9     8    1
    56     9    12    1
    57    21    18   am
    58    10    16   am
    59    13    12    1
    60    13    14    1
    61    15    14    1
    62    18    19    2
    63    18    17    1
    64    16    17    1
    65    17    20    1
    66     4     3    2
    67     3     2    1
    68     1     2    1
    69     2     5    1
    70     5     7    1
    71     5     6    1
