@<TRIPOS>MOLECULE
tmp/6ew8A00.pdb
 90 88 0 0 0
SMALL
GASTEIGER

@<TRIPOS>ATOM
      1  N          7.0680   -4.6760  -21.4430 N.3    43  THR43      -0.1218
      2  CA         8.0420   -3.6170  -21.8090 C.3    43  THR43       0.1862
      3  C          7.4960   -2.2770  -21.3480 C.2    43  THR43       0.2287
      4  O          8.2430   -1.5230  -20.7220 O.2    43  THR43      -0.2866
      5  CB         8.3790   -3.6190  -23.2940 C.3    43  THR43       0.1770
      6  OG1        7.1630   -3.5810  -24.0430 O.3    43  THR43      -0.2211
      7  CG2        9.2670   -4.8160  -23.7200 C.3    43  THR43       0.0375
      8  N          7.4240   -2.0680  -17.3160 N.3    46  MET46      -0.1230
      9  CA         8.8000   -1.8860  -16.8440 C.3    46  MET46       0.1702
     10  C          9.2770   -0.4440  -17.0920 C.2    46  MET46       0.2592
     11  O         10.0100    0.1060  -16.2770 O.2    46  MET46      -0.2718
     12  CB         9.7490   -2.8110  -17.6110 C.3    46  MET46       0.0401
     13  CG         9.7480   -4.2440  -17.1460 C.3    46  MET46       0.0596
     14  SD        10.9090   -5.1910  -18.1750 S.3    46  MET46      -0.1393
     15  CE        12.2660   -5.0570  -17.2090 C.3    46  MET46       0.0692
     16  N          8.8440    0.1590  -18.2080 N.am   47  ALA47      -0.1966
     17  CA         9.2220    1.5110  -18.6070 C.3    47  ALA47       0.1728
     18  C          8.5570    2.5740  -17.7310 C.2    47  ALA47       0.2616
     19  O          9.0290    3.7160  -17.6900 O.2    47  ALA47      -0.2715
     20  CB         8.8440    1.7370  -20.0700 C.3    47  ALA47       0.0334
     21  N          7.4700    2.2110  -17.0390 N.am   48  CYS48      -0.1954
     22  CA         6.6910    3.1540  -16.2250 C.3    48  CYS48       0.1843
     23  C          6.6760    2.8970  -14.7040 C.2    48  CYS48       0.2626
     24  O          6.2990    3.7870  -13.9420 O.2    48  CYS48      -0.2714
     25  CB         5.2620    3.2010  -16.7530 C.3    48  CYS48       0.0997
     26  SG         5.1210    3.6430  -18.5010 S.3    48  CYS48      -0.0797
     27  N          7.0100    1.6830  -14.2640 N.am   49  SER49      -0.1936
     28  CA         6.8630    1.3210  -12.8520 C.3    49  SER49       0.2055
     29  C          8.0920    0.6600  -12.2660 C.2    49  SER49       0.2643
     30  O          8.5470   -0.3470  -12.8030 O.2    49  SER49      -0.2714
     31  CB         5.6330    0.4210  -12.7080 C.3    49  SER49       0.2130
     32  OG         5.5780   -0.3710  -11.5330 O.3    49  SER49      -0.2179
     33  N          8.5880    1.2100  -11.1450 N.am   50  GLY50      -0.1954
     34  CA         9.7400    0.6330  -10.4430 C.3    50  GLY50       0.1869
     35  C          9.4390   -0.7730   -9.9720 C.2    50  GLY50       0.2309
     36  O         10.3270   -1.6380   -9.9700 O.2    50  GLY50      -0.2863
     37  N          9.3960   -2.9710  -13.0340 N.3    53  TYR53      -0.1227
     38  CA        10.7810   -3.0420  -13.5410 C.3    53  TYR53       0.1736
     39  C         11.5720   -4.0400  -12.7040 C.2    53  TYR53       0.2596
     40  O         12.2370   -4.8810  -13.2870 O.2    53  TYR53      -0.2718
     41  CB        11.4760   -1.6750  -13.4840 C.3    53  TYR53       0.0548
     42  CG        12.9510   -1.7120  -13.8370 C.ar   53  TYR53      -0.0200
     43  CD1       13.3730   -1.6740  -15.1620 C.ar   53  TYR53      -0.0009
     44  CD2       13.9250   -1.7940  -12.8430 C.ar   53  TYR53      -0.0009
     45  CE1       14.7290   -1.6810  -15.4890 C.ar   53  TYR53       0.0417
     46  CE2       15.2830   -1.7870  -13.1590 C.ar   53  TYR53       0.0417
     47  CZ        15.6810   -1.7200  -14.4820 C.ar   53  TYR53       0.1957
     48  OH        17.0210   -1.7570  -14.7920 O.3    53  TYR53      -0.2866
     49  N         11.4760   -3.9450  -11.3540 N.am   54  SER54      -0.1952
     50  CA        12.1940   -4.8260  -10.4170 C.3    54  SER54       0.1924
     51  C         11.8160   -6.2950  -10.5970 C.2    54  SER54       0.2314
     52  O         12.6900   -7.1740  -10.5120 O.2    54  SER54      -0.2863
     53  CB        11.9900   -4.3810   -8.9710 C.3    54  SER54       0.2116
     54  OG        10.6690   -4.6090   -8.5070 O.3    54  SER54      -0.2180
     55  N          5.6640    2.2720   -7.4700 N.3   108  GLN108     -0.1231
     56  CA         6.9400    3.0190   -7.5910 C.3   108  GLN108      0.1698
     57  C          6.9760    3.8260   -8.8990 C.2   108  GLN108      0.2592
     58  O          7.7560    3.5550   -9.8250 O.2   108  GLN108     -0.2718
     59  CB         8.1740    2.1040   -7.4620 C.3   108  GLN108      0.0381
     60  CG         8.1860    1.2490   -6.1980 C.3   108  GLN108      0.0905
     61  CD         9.2080    0.1570   -6.2490 C.2   108  GLN108      0.2608
     62  OE1       10.1880    0.2090   -7.0030 O.2   108  GLN108     -0.2717
     63  NE2        8.9920   -0.8640   -5.4400 N.am  108  GLN108     -0.0878
     64  N          6.0740    4.8000   -8.9710 N.am  109  MET109     -0.1965
     65  CA         5.9260    5.6930  -10.1060 C.3   109  MET109      0.1736
     66  C          6.1910    7.0640   -9.5060 C.2   109  MET109      0.2616
     67  O          5.2720    7.7610   -9.1030 O.2   109  MET109     -0.2715
     68  CB         4.4960    5.5680  -10.6620 C.3   109  MET109      0.0427
     69  CG         4.1550    4.1510  -11.1370 C.3   109  MET109      0.0599
     70  SD         2.5030    3.9810  -11.8530 S.3   109  MET109     -0.1393
     71  CE         2.7070    4.9840  -13.4230 C.3   109  MET109      0.0692
     72  N          7.4750    7.4150   -9.3880 N.am  110  GLU110     -0.1963
     73  CA         7.9330    8.6320   -8.7200 C.3   110  GLU110      0.1733
     74  C          7.2910    9.9200   -9.2150 C.2   110  GLU110      0.2616
     75  O          6.9300   10.7460   -8.3710 O.2   110  GLU110     -0.2715
     76  CB         9.4740    8.7510   -8.7400 C.3   110  GLU110      0.0429
     77  CG        10.1410    8.9580  -10.0860 C.3   110  GLU110      0.1163
     78  CD        11.6510    9.0800  -10.0210 C.2   110  GLU110      0.3649
     79  OE1       12.1960    9.2300   -8.9010 O.co2 110  GLU110     -0.2457
     80  OE2       12.2900    9.0400  -11.0970 O.co2 110  GLU110     -0.2457
     81  N          7.1340   10.0950  -10.5640 N.am  111  HIS111     -0.1973
     82  CA         6.5410   11.3000  -11.1250 C.3   111  HIS111      0.1656
     83  C          5.0800   11.4020  -10.8290 C.2   111  HIS111      0.2291
     84  O          4.6500   12.4870  -10.4450 O.2   111  HIS111     -0.2864
     85  CB         6.8400   11.4860  -12.6150 C.3   111  HIS111      0.0771
     86  CG         8.2940   11.6870  -12.8940 C.ar  111  HIS111      0.0820
     87  ND1        8.9250   11.0430  -13.9510 N.ar  111  HIS111     -0.2267
     88  CD2        9.2130   12.4090  -12.2120 C.ar  111  HIS111      0.1154
     89  CE1       10.1950   11.4150  -13.8870 C.ar  111  HIS111      0.1986
     90  NE2       10.4140   12.2410  -12.8630 N.ar  111  HIS111     -0.2212
@<TRIPOS>BOND
     1     6     5    1
     2     7     5    1
     3     5     2    1
     4     2     1    1
     5     2     3    1
     6     3     4    2
     7    20    17    1
     8    17    16    1
     9    17    18    1
    10    26    25    1
    11    16    10   am
    12    14    15    1
    13    14    13    1
    14    18    19    2
    15    18    21   am
    16    12    13    1
    17    12     9    1
    18     8     9    1
    19    10     9    1
    20    10    11    2
    21    21    22    1
    22    25    22    1
    23    22    23    1
    24    45    43   ar
    25    45    47   ar
    26    43    42   ar
    27    48    47    1
    28    23    27   am
    29    23    24    2
    30    47    46   ar
    31    27    28    1
    32    87    89   ar
    33    87    86   ar
    34    89    90   ar
    35    42    41    1
    36    42    44   ar
    37    38    41    1
    38    38    37    1
    39    38    39    1
    40    71    70    1
    41    40    39    2
    42    46    44   ar
    43    86    85    1
    44    86    88   ar
    45    90    88   ar
    46    28    31    1
    47    28    29    1
    48    30    29    2
    49    31    32    1
    50    39    49   am
    51    85    82    1
    52    29    33   am
    53    70    69    1
    54    49    50    1
    55    33    34    1
    56    69    68    1
    57    82    83    1
    58    82    81    1
    59    80    78   ar
    60    83    84    2
    61    68    65    1
    62    51    52    2
    63    51    50    1
    64    81    74   am
    65    34    35    1
    66    50    53    1
    67    65    66    1
    68    65    64    1
    69    77    78    1
    70    77    76    1
    71    78    79   ar
    72    35    36    2
    73    58    57    2
    74    66    72   am
    75    66    67    2
    76    72    73    1
    77    74    73    1
    78    74    75    2
    79    53    54    1
    80    64    57   am
    81    57    56    1
    82    76    73    1
    83    56    55    1
    84    56    59    1
    85    59    60    1
    86    62    61    2
    87    61    60    1
    88    61    63   am
