@<TRIPOS>MOLECULE
tmp/6eweA00.pdb
 115 112 0 0 0
SMALL
GASTEIGER

@<TRIPOS>ATOM
      1  N         59.5860   10.2610   15.6670 N.3    50  TRP50      -0.1241
      2  CA        59.0880   11.1910   16.6770 C.3    50  TRP50       0.1605
      3  C         57.7620   11.8190   16.2680 C.2    50  TRP50       0.2264
      4  O         56.9830   12.2450   17.1290 O.2    50  TRP50      -0.2867
      5  CB        60.1040   12.3240   16.8270 C.3    50  TRP50       0.0550
      6  CG        61.4300   11.9040   17.4020 C.ar   50  TRP50       0.0003
      7  CD1       62.5570   11.5550   16.7050 C.ar   50  TRP50       0.0946
      8  CD2       61.7660   11.8000   18.7900 C.ar   50  TRP50       0.0152
      9  NE1       63.5810   11.2490   17.5830 N.ar   50  TRP50      -0.2442
     10  CE2       63.1150   11.3840   18.8640 C.ar   50  TRP50       0.0810
     11  CE3       61.0620   12.0220   19.9850 C.ar   50  TRP50       0.0012
     12  CZ2       63.7700   11.2030   20.0750 C.ar   50  TRP50       0.0191
     13  CZ3       61.7160   11.8260   21.1850 C.ar   50  TRP50       0.0001
     14  CH2       63.0560   11.4180   21.2190 C.ar   50  TRP50       0.0015
     15  N         56.9730    0.5390   22.3420 N.3    77  HIS77      -0.1241
     16  CA        56.2250    1.0790   23.4750 C.3    77  HIS77       0.1621
     17  C         55.5060    2.3600   23.0180 C.2    77  HIS77       0.2264
     18  O         55.6110    2.7690   21.8590 O.2    77  HIS77      -0.2867
     19  CB        57.1210    1.2520   24.7020 C.3    77  HIS77       0.0745
     20  CG        58.1180    2.3480   24.6240 C.ar   77  HIS77       0.0817
     21  ND1       59.3670    2.1960   24.0620 N.ar   77  HIS77      -0.2268
     22  CD2       58.1190    3.5670   25.1930 C.ar   77  HIS77       0.1154
     23  CE1       60.0580    3.3160   24.2300 C.ar   77  HIS77       0.1986
     24  NE2       59.3290    4.1580   24.9290 N.ar   77  HIS77      -0.2212
     25  N         55.6160    5.6860   23.7180 N.3    79  HIS79      -0.1226
     26  CA        56.1250    7.0570   23.7300 C.3    79  HIS79       0.1752
     27  C         56.3530    7.5480   22.3000 C.2    79  HIS79       0.2596
     28  O         56.4650    6.7470   21.3790 O.2    79  HIS79      -0.2718
     29  CB        57.4840    7.0970   24.4380 C.3    79  HIS79       0.0759
     30  CG        57.4280    6.9960   25.9440 C.ar   79  HIS79       0.0818
     31  ND1       58.5180    6.5840   26.7080 N.ar   79  HIS79      -0.2268
     32  CD2       56.4610    7.3170   26.8300 C.ar   79  HIS79       0.1154
     33  CE1       58.1900    6.6230   27.9890 C.ar   79  HIS79       0.1986
     34  NE2       56.9650    7.0950   28.0860 N.ar   79  HIS79      -0.2212
     35  N         56.4970    8.8870   22.1580 N.am   80  ALA80      -0.1966
     36  CA        56.4860    9.5620   20.8530 C.3    80  ALA80       0.1728
     37  C         57.6100    9.1000   19.9420 C.2    80  ALA80       0.2616
     38  O         57.4480    9.1140   18.7130 O.2    80  ALA80      -0.2715
     39  CB        56.6000   11.0870   21.0080 C.3    80  ALA80       0.0334
     40  N         58.7630    8.7340   20.4990 N.am   81  ASP81      -0.1971
     41  CA        59.8400    8.3140   19.6220 C.3    81  ASP81       0.1709
     42  C         59.5300    7.0160   18.9120 C.2    81  ASP81       0.2293
     43  O         60.0840    6.7700   17.8380 O.2    81  ASP81      -0.2864
     44  CB        61.1830    8.2450   20.3720 C.3    81  ASP81       0.1436
     45  CG        61.2050    7.2660   21.5190 C.2    81  ASP81       0.3671
     46  OD1       60.1730    7.0300   22.1540 O.co2  81  ASP81      -0.2456
     47  OD2       62.2990    6.7480   21.8470 O.co2  81  ASP81      -0.2456
     48  N         61.7900    0.4400   31.3390 N.3   140  HIS140     -0.1241
     49  CA        61.6840    1.8230   30.8890 C.3   140  HIS140      0.1621
     50  C         60.2360    2.3050   30.9020 C.2   140  HIS140      0.2264
     51  O         59.9580    3.4340   31.2910 O.2   140  HIS140     -0.2867
     52  CB        62.2970    1.9290   29.4580 C.3   140  HIS140      0.0745
     53  CG        61.9560    3.1950   28.7700 C.ar  140  HIS140      0.0817
     54  ND1       62.4740    4.3940   29.1600 N.ar  140  HIS140     -0.2268
     55  CD2       61.1500    3.4660   27.6940 C.ar  140  HIS140      0.1154
     56  CE1       62.0060    5.3550   28.3950 C.ar  140  HIS140      0.1986
     57  NE2       61.1820    4.8230   27.5120 N.ar  140  HIS140     -0.2212
     58  N         64.0610    1.1370   24.1810 N.3   159  CYS159     -0.1235
     59  CA        64.3950    2.0600   25.2410 C.3   159  CYS159      0.1677
     60  C         64.5590    1.3510   26.5730 C.2   159  CYS159      0.2270
     61  O         65.0680    1.9710   27.4930 O.2   159  CYS159     -0.2867
     62  CB        63.4060    3.2330   25.2240 C.3   159  CYS159      0.0956
     63  SG        63.3660    3.8760   23.5160 S.3   159  CYS159     -0.0801
     64  N         69.9790    0.8450   27.4430 N.3   162  LYS162     -0.1245
     65  CA        70.7190    2.0910   27.3230 C.3   162  LYS162      0.1561
     66  C         72.0070    1.8720   26.5380 C.2   162  LYS162      0.2260
     67  O         72.6440    0.8200   26.6420 O.2   162  LYS162     -0.2867
     68  CB        71.0580    2.6270   28.7210 C.3   162  LYS162      0.0271
     69  CG        69.8450    3.0680   29.5010 C.3   162  LYS162      0.0035
     70  CD        69.1660    4.2510   28.8440 C.3   162  LYS162      0.0206
     71  CE        67.9070    4.6750   29.5620 C.3   162  LYS162      0.1093
     72  NZ        67.3530    5.9160   28.8850 N.3   162  LYS162     -0.1314
     73  N         69.5660    6.7940   33.5760 N.3   169  LEU169     -0.1231
     74  CA        68.4650    6.0500   32.9710 C.3   169  LEU169      0.1693
     75  C         67.5430    6.9230   32.1280 C.2   169  LEU169      0.2593
     76  O         66.6210    6.3840   31.4830 O.2   169  LEU169     -0.2718
     77  CB        67.6630    5.3610   34.0770 C.3   169  LEU169      0.0284
     78  CG        68.4010    4.2780   34.8450 C.3   169  LEU169      0.0019
     79  CD1       67.6290    3.8900   36.1180 C.3   169  LEU169      0.0001
     80  CD2       68.6350    3.0730   33.9540 C.3   169  LEU169      0.0001
     81  N         67.7630    8.2430   32.1230 N.am  170  GLY170     -0.1942
     82  CA        66.8940    9.1700   31.4020 C.3   170  GLY170      0.2014
     83  C         65.6310    9.4950   32.1880 C.2   170  GLY170      0.2638
     84  O         65.6060    9.4360   33.4130 O.2   170  GLY170     -0.2714
     85  N         64.5550    9.8000   31.4660 N.am  171  ASN171     -0.1972
     86  CA        63.2830   10.1250   32.1070 C.3   171  ASN171      0.1688
     87  C         62.6650    8.8240   32.5920 C.2   171  ASN171      0.2292
     88  O         62.3660    7.9320   31.7860 O.2   171  ASN171     -0.2864
     89  CB        62.3490   10.8770   31.1500 C.3   171  ASN171      0.1181
     90  CG        61.1000   11.4260   31.8550 C.2   171  ASN171      0.2629
     91  OD1       60.6010   10.8150   32.7840 O.2   171  ASN171     -0.2716
     92  ND2       60.6110   12.5900   31.4210 N.am  171  ASN171     -0.0877
     93  N         59.8750    8.8110   34.5920 N.3   173  ALA173     -0.1231
     94  CA        58.5150    9.0790   35.0590 C.3   173  ALA173      0.1694
     95  C         57.5900    7.8990   34.7910 C.2   173  ALA173      0.2592
     96  O         56.7020    7.6140   35.6060 O.2   173  ALA173     -0.2718
     97  CB        57.9470   10.3490   34.4130 C.3   173  ALA173      0.0304
     98  N         57.7660    7.2080   33.6560 N.am  174  ASP174     -0.1974
     99  CA        56.9260    6.0780   33.3030 C.3   174  ASP174      0.1709
    100  C         57.5920    4.7540   33.6030 C.2   174  ASP174      0.2293
    101  O         57.0960    3.7180   33.1730 O.2   174  ASP174     -0.2864
    102  CB        56.5300    6.1340   31.7990 C.3   174  ASP174      0.1436
    103  CG        55.6160    7.3050   31.4690 C.2   174  ASP174      0.3671
    104  OD1       55.0070    7.8890   32.4050 O.co2 174  ASP174     -0.2456
    105  OD2       55.4760    7.6010   30.2650 O.co2 174  ASP174     -0.2456
    106  N         68.2620    4.6360   21.7530 N.3   201  HIS201     -0.1241
    107  CA        69.0230    5.8610   21.5000 C.3   201  HIS201      0.1621
    108  C         70.4980    5.5190   21.6400 C.2   201  HIS201      0.2264
    109  O         70.9050    4.8510   22.6000 O.2   201  HIS201     -0.2867
    110  CB        68.5960    6.9780   22.4790 C.3   201  HIS201      0.0745
    111  CG        67.1050    7.1470   22.6050 C.ar  201  HIS201      0.0817
    112  ND1       66.3860    8.0430   21.8450 N.ar  201  HIS201     -0.2268
    113  CD2       66.2040    6.5540   23.4330 C.ar  201  HIS201      0.1154
    114  CE1       65.1010    7.9650   22.1500 C.ar  201  HIS201      0.1986
    115  NE2       64.9550    7.0820   23.1280 N.ar  201  HIS201     -0.2212
@<TRIPOS>BOND
     1     1     2    1
     2     3     2    1
     3     3     4    2
     4     2     5    1
     5     7     6   ar
     6     7     9   ar
     7     5     6    1
     8     6     8   ar
     9     9    10   ar
    10    43    42    2
    11    38    37    2
    12     8    10   ar
    13     8    11   ar
    14    10    12   ar
    15    42    41    1
    16    41    44    1
    17    41    40    1
    18    37    40   am
    19    37    36    1
    20    11    13   ar
    21    12    14   ar
    22    44    45    1
    23    36    39    1
    24    36    35    1
    25    13    14   ar
    26    28    27    2
    27   107   108    1
    28   107   106    1
    29   107   110    1
    30    45    47   ar
    31    45    46   ar
    32   108   109    2
    33   112   114   ar
    34   112   111   ar
    35    18    17    2
    36   114   115   ar
    37    35    27   am
    38    27    26    1
    39    15    16    1
    40   110   111    1
    41   111   113   ar
    42    17    16    1
    43   115   113   ar
    44    16    19    1
    45    63    62    1
    46    25    26    1
    47    26    29    1
    48    21    23   ar
    49    21    20   ar
    50    58    59    1
    51    23    24   ar
    52    29    30    1
    53    20    19    1
    54    20    22   ar
    55    24    22   ar
    56    62    59    1
    57    59    60    1
    58    30    31   ar
    59    30    32   ar
    60    66    67    2
    61    66    65    1
    62    60    61    2
    63    31    33   ar
    64    32    34   ar
    65    65    64    1
    66    65    68    1
    67    57    55   ar
    68    57    56   ar
    69    55    53   ar
    70    33    34   ar
    71    56    54   ar
    72    68    69    1
    73    53    54   ar
    74    53    52    1
    75    70    69    1
    76    70    71    1
    77    72    71    1
    78    52    49    1
    79   105   103   ar
    80    49    50    1
    81    49    48    1
    82    50    51    2
    83    89    90    1
    84    89    86    1
    85    82    81    1
    86    82    83    1
    87    92    90   am
    88    85    86    1
    89    85    83   am
    90   103   102    1
    91   103   104   ar
    92    76    75    2
    93    88    87    2
    94   102    99    1
    95    90    91    2
    96    86    87    1
    97    81    75   am
    98    75    74    1
    99    83    84    2
   100    74    73    1
   101    74    77    1
   102   101   100    2
   103    99   100    1
   104    99    98    1
   105    98    95   am
   106    80    78    1
   107    77    78    1
   108    97    94    1
   109    93    94    1
   110    95    94    1
   111    95    96    2
   112    78    79    1
