@<TRIPOS>MOLECULE
tmp/6ewpA00.pdb
 122 118 0 0 0
SMALL
GASTEIGER

@<TRIPOS>ATOM
      1  N        -85.9310   70.3430    4.8090 N.3     9  HIS9       -0.1241
      2  CA       -84.8170   69.6820    5.4790 C.3     9  HIS9        0.1621
      3  C        -83.6070   69.5700    4.5630 C.2     9  HIS9        0.2264
      4  O        -83.7380   69.4930    3.3350 O.2     9  HIS9       -0.2867
      5  CB       -85.1960   68.2850    5.9380 C.3     9  HIS9        0.0745
      6  CG       -86.1260   68.2580    7.0970 C.ar    9  HIS9        0.0817
      7  ND1      -86.0110   67.3330    8.1170 N.ar    9  HIS9       -0.2268
      8  CD2      -87.2140   69.0140    7.3880 C.ar    9  HIS9        0.1154
      9  CE1      -86.9940   67.5260    8.9870 C.ar    9  HIS9        0.1986
     10  NE2      -87.7350   68.5380    8.5680 N.ar    9  HIS9       -0.2212
     11  N        -81.0700   67.0350    3.5260 N.3    11  PHE11      -0.1241
     12  CA       -80.8250   65.6170    3.4360 C.3    11  PHE11       0.1605
     13  C        -79.4760   65.3790    2.7770 C.2    11  PHE11       0.2264
     14  O        -79.0280   66.1730    1.9480 O.2    11  PHE11      -0.2867
     15  CB       -81.8800   64.9240    2.6060 C.3    11  PHE11       0.0534
     16  CG       -83.2500   64.8970    3.2370 C.ar   11  PHE11      -0.0203
     17  CD1      -83.5530   63.9990    4.2530 C.ar   11  PHE11      -0.0042
     18  CD2      -84.2620   65.7540    2.7780 C.ar   11  PHE11      -0.0042
     19  CE1      -84.8280   63.9580    4.8120 C.ar   11  PHE11      -0.0003
     20  CE2      -85.5270   65.7140    3.3350 C.ar   11  PHE11      -0.0003
     21  CZ       -85.8120   64.8250    4.3580 C.ar   11  PHE11      -0.0000
     22  N        -89.8350   66.6950    3.6980 N.3    75  PRO75      -0.2116
     23  CA       -89.9850   65.2570    3.9290 C.3    75  PRO75       0.1372
     24  C        -91.0360   64.5710    3.0760 C.2    75  PRO75       0.2244
     25  O        -90.7930   63.4770    2.5490 O.2    75  PRO75      -0.2868
     26  CB       -90.3640   65.1830    5.4100 C.3    75  PRO75       0.0268
     27  CG       -89.6240   66.3240    6.0150 C.3    75  PRO75       0.0207
     28  CD       -89.6430   67.4230    4.9710 C.3    75  PRO75       0.0892
     29  N        -89.6740   64.2120   -0.5360 N.3    78  LEU78      -0.1231
     30  CA       -88.7160   63.0920   -0.6100 C.3    78  LEU78       0.1693
     31  C        -89.4480   61.7530   -0.6060 C.2    78  LEU78       0.2591
     32  O        -89.1550   60.8840   -1.4180 O.2    78  LEU78      -0.2718
     33  CB       -87.6790   63.1780    0.5110 C.3    78  LEU78       0.0284
     34  CG       -86.5730   62.1060    0.4680 C.3    78  LEU78       0.0019
     35  CD1      -85.2930   62.6480    1.0610 C.3    78  LEU78       0.0001
     36  CD2      -86.9940   60.8600    1.2160 C.3    78  LEU78       0.0001
     37  N        -90.4270   61.5890    0.2800 N.am   79  GLN79      -0.1979
     38  CA       -91.2100   60.3480    0.3350 C.3    79  GLN79       0.1601
     39  C        -91.8870   60.0110   -1.0090 C.2    79  GLN79       0.2287
     40  O        -91.7780   58.8840   -1.5070 O.2    79  GLN79      -0.2864
     41  CB       -92.2480   60.4090    1.4510 C.3    79  GLN79       0.0394
     42  CG       -92.9250   59.0740    1.7720 C.3    79  GLN79       0.0908
     43  CD       -92.1580   58.1640    2.7480 C.2    79  GLN79       0.2608
     44  OE1      -92.4250   56.9490    2.8080 O.2    79  GLN79      -0.2717
     45  NE2      -91.2190   58.7350    3.5230 N.am   79  GLN79      -0.0878
     46  N        -86.7310   53.7820    3.0270 N.3   114  LEU114     -0.1231
     47  CA       -87.6550   54.4550    3.9300 C.3   114  LEU114      0.1693
     48  C        -88.2290   53.5330    4.9920 C.2   114  LEU114      0.2593
     49  O        -88.5920   54.0050    6.0480 O.2   114  LEU114     -0.2718
     50  CB       -88.7870   55.1230    3.1380 C.3   114  LEU114      0.0284
     51  CG       -88.3150   56.1530    2.1060 C.3   114  LEU114      0.0019
     52  CD1      -89.4570   56.5640    1.2140 C.3   114  LEU114      0.0001
     53  CD2      -87.6690   57.3590    2.7580 C.3   114  LEU114      0.0001
     54  N        -88.2980   52.2290    4.7190 N.am  115  SER115     -0.1938
     55  CA       -88.7180   51.2430    5.7210 C.3   115  SER115      0.2055
     56  C        -87.5760   50.7350    6.6160 C.2   115  SER115      0.2644
     57  O        -87.8420   49.9880    7.5620 O.2   115  SER115     -0.2714
     58  CB       -89.3830   50.0410    5.0450 C.3   115  SER115      0.2130
     59  OG       -88.4850   49.4240    4.1570 O.3   115  SER115     -0.2179
     60  N        -86.3290   51.1210    6.3320 N.am  116  SER116     -0.1935
     61  CA       -85.1890   50.7200    7.1860 C.3   116  SER116      0.2055
     62  C        -85.2190   51.4190    8.5440 C.2   116  SER116      0.2643
     63  O        -85.8120   52.4820    8.7040 O.2   116  SER116     -0.2714
     64  CB       -83.8610   51.0240    6.5010 C.3   116  SER116      0.2130
     65  OG       -83.7330   50.2620    5.3100 O.3   116  SER116     -0.2179
     66  N        -84.5480   50.8080    9.5120 N.am  117  GLU117     -0.1963
     67  CA       -84.4170   51.3540   10.8720 C.3   117  GLU117      0.1733
     68  C        -83.7940   52.7380   10.8380 C.2   117  GLU117      0.2616
     69  O        -82.7950   52.9400   10.1510 O.2   117  GLU117     -0.2715
     70  CB       -83.5330   50.4250   11.7260 C.3   117  GLU117      0.0429
     71  CG       -83.5130   50.7750   13.2160 C.3   117  GLU117      0.1163
     72  CD       -82.4680   50.0010   14.0220 C.2   117  GLU117      0.3649
     73  OE1      -82.3630   50.2750   15.2260 O.co2 117  GLU117     -0.2457
     74  OE2      -81.7450   49.1460   13.4700 O.co2 117  GLU117     -0.2457
     75  N        -84.3850   53.6760   11.5720 N.am  118  LYS118     -0.1977
     76  CA       -83.8660   55.0270   11.6940 C.3   118  LYS118      0.1596
     77  C        -82.9880   55.0700   12.9190 C.2   118  LYS118      0.2287
     78  O        -83.4600   54.7700   13.9940 O.2   118  LYS118     -0.2864
     79  CB       -84.9870   56.0500   11.9100 C.3   118  LYS118      0.0298
     80  CG       -85.6040   56.6260   10.6620 C.3   118  LYS118      0.0038
     81  CD       -86.7890   57.5170   11.0130 C.3   118  LYS118      0.0206
     82  CE       -87.6540   57.7740    9.7850 C.3   118  LYS118      0.1093
     83  NZ       -88.7170   58.7920   10.0320 N.3   118  LYS118     -0.1314
     84  N        -80.8410   61.9250   11.8110 N.3   130  TRP130     -0.1241
     85  CA       -81.2650   60.5460   11.6240 C.3   130  TRP130      0.1605
     86  C        -80.6190   59.9370   10.3860 C.2   130  TRP130      0.2264
     87  O        -80.4180   60.6340    9.3790 O.2   130  TRP130     -0.2867
     88  CB       -82.7850   60.4520   11.4860 C.3   130  TRP130      0.0550
     89  CG       -83.4870   60.9530   12.6880 C.ar  130  TRP130      0.0003
     90  CD1      -83.9250   62.2250   12.9070 C.ar  130  TRP130      0.0946
     91  CD2      -83.7900   60.2080   13.8770 C.ar  130  TRP130      0.0152
     92  NE1      -84.5050   62.3160   14.1540 N.ar  130  TRP130     -0.2442
     93  CE2      -84.4330   61.0950   14.7720 C.ar  130  TRP130      0.0810
     94  CE3      -83.5810   58.8730   14.2750 C.ar  130  TRP130      0.0012
     95  CZ2      -84.8930   60.6860   16.0410 C.ar  130  TRP130      0.0191
     96  CZ3      -84.0300   58.4670   15.5400 C.ar  130  TRP130      0.0001
     97  CH2      -84.6770   59.3760   16.4050 C.ar  130  TRP130      0.0015
     98  N        -80.6920   56.3130    7.8140 N.3   132  GLN132     -0.1245
     99  CA       -81.1970   55.0080    7.3630 C.3   132  GLN132      0.1566
    100  C        -80.2430   54.4710    6.3050 C.2   132  GLN132      0.2260
    101  O        -79.6740   55.2370    5.5320 O.2   132  GLN132     -0.2867
    102  CB       -82.6000   55.1280    6.7540 C.3   132  GLN132      0.0367
    103  CG       -83.6950   55.4330    7.7640 C.3   132  GLN132      0.0905
    104  CD       -84.9900   55.9080    7.1110 C.2   132  GLN132      0.2608
    105  OE1      -85.0120   56.9470    6.4610 O.2   132  GLN132     -0.2717
    106  NE2      -86.0640   55.1540    7.2960 N.am  132  GLN132     -0.0878
    107  N        -79.4460   57.4300    3.7050 N.3   159  LEU159     -0.1245
    108  CA       -80.1640   58.6920    3.7660 C.3   159  LEU159      0.1561
    109  C        -80.0040   59.2890    5.1530 C.2   159  LEU159      0.2260
    110  O        -80.3880   58.6680    6.1510 O.2   159  LEU159     -0.2867
    111  CB       -81.6320   58.4650    3.4530 C.3   159  LEU159      0.0270
    112  CG       -82.5130   59.7090    3.6240 C.3   159  LEU159      0.0019
    113  CD1      -82.1290   60.7710    2.6100 C.3   159  LEU159      0.0001
    114  CD2      -83.9610   59.2940    3.4570 C.3   159  LEU159      0.0001
    115  N        -80.9250   62.6740    7.4910 N.3   161  ASP161     -0.1239
    116  CA       -81.7680   63.8440    7.6800 C.3   161  ASP161      0.1674
    117  C        -81.0750   64.7190    8.6920 C.2   161  ASP161      0.2266
    118  O        -81.0260   64.3680    9.8830 O.2   161  ASP161     -0.2867
    119  CB       -83.1340   63.3860    8.1650 C.3   161  ASP161      0.1410
    120  CG       -84.1310   64.5310    8.3510 C.2   161  ASP161      0.3668
    121  OD1      -83.8020   65.7130    8.2060 O.co2 161  ASP161     -0.2456
    122  OD2      -85.2650   64.2110    8.6710 O.co2 161  ASP161     -0.2456
@<TRIPOS>BOND
     1    40    39    2
     2    32    31    2
     3    39    38    1
     4    30    31    1
     5    30    29    1
     6    30    33    1
     7    31    37   am
     8    37    38    1
     9    38    41    1
    10    34    33    1
    11    34    35    1
    12    34    36    1
    13    52    51    1
    14    41    42    1
    15    42    43    1
    16    14    13    2
    17    51    53    1
    18    51    50    1
    19    25    24    2
    20    15    16    1
    21    15    12    1
    22   113   112    1
    23    43    44    2
    24    43    45   am
    25    13    12    1
    26    18    16   ar
    27    18    20   ar
    28    46    47    1
    29    24    23    1
    30    50    47    1
    31    16    17   ar
    32    20    21   ar
    33     4     3    2
    34    12    11    1
    35   111   112    1
    36   111   108    1
    37   114   112    1
    38    22    23    1
    39    22    28    1
    40   107   108    1
    41   108   109    1
    42    23    26    1
    43    47    48    1
    44    59    58    1
    45    17    19   ar
    46    21    19   ar
    47     3     2    1
    48    54    48   am
    49    54    55    1
    50     1     2    1
    51    28    27    1
    52    48    49    2
    53    58    55    1
    54   109   110    2
    55    65    64    1
    56    26    27    1
    57     2     5    1
    58   101   100    2
    59    55    56    1
    60     5     6    1
    61   100    99    1
    62    60    56   am
    63    60    61    1
    64   105   104    2
    65    64    61    1
    66    56    57    2
    67   102    99    1
    68   102   103    1
    69     6     8   ar
    70     6     7   ar
    71   104   106   am
    72   104   103    1
    73    61    62    1
    74    99    98    1
    75     8    10   ar
    76   115   116    1
    77   116   119    1
    78   116   117    1
    79     7     9   ar
    80   119   120    1
    81   121   120   ar
    82   120   122   ar
    83    62    63    2
    84    62    66   am
    85    10     9   ar
    86   117   118    2
    87    87    86    2
    88    66    67    1
    89    82    83    1
    90    82    81    1
    91    69    68    2
    92    86    85    1
    93    80    81    1
    94    80    79    1
    95    68    67    1
    96    68    75   am
    97    67    70    1
    98    88    85    1
    99    88    89    1
   100    75    76    1
   101    85    84    1
   102    76    79    1
   103    76    77    1
   104    70    71    1
   105    89    90   ar
   106    89    91   ar
   107    90    92   ar
   108    77    78    2
   109    71    72    1
   110    74    72   ar
   111    91    94   ar
   112    91    93   ar
   113    72    73   ar
   114    92    93   ar
   115    94    96   ar
   116    93    95   ar
   117    96    97   ar
   118    95    97   ar
