@<TRIPOS>MOLECULE
tmp/6ewpC00.pdb
 83 84 0 0 0
SMALL
GASTEIGER

@<TRIPOS>ATOM
      1  N        -96.5550   49.8200   12.9220 N.3    34  PHE34      -0.1227
      2  CA       -95.8200   50.2130   11.7180 C.3    34  PHE34       0.1736
      3  C        -94.3500   49.7810   11.6970 C.2    34  PHE34       0.2596
      4  O        -93.7020   49.8940   10.6640 O.2    34  PHE34      -0.2718
      5  CB       -95.9280   51.7230   11.4780 C.3    34  PHE34       0.0547
      6  CG       -97.3240   52.2130   11.1870 C.ar   34  PHE34      -0.0202
      7  CD1      -98.2100   51.4770   10.3860 C.ar   34  PHE34      -0.0042
      8  CD2      -97.7380   53.4470   11.6680 C.ar   34  PHE34      -0.0042
      9  CE1      -99.4830   51.9510   10.1110 C.ar   34  PHE34      -0.0003
     10  CE2      -99.0110   53.9260   11.3790 C.ar   34  PHE34      -0.0003
     11  CZ       -99.8830   53.1710   10.6080 C.ar   34  PHE34      -0.0000
     12  N        -93.8290   49.2860   12.8170 N.am   35  GLY35      -0.1942
     13  CA       -92.4980   48.6830   12.8460 C.3    35  GLY35       0.2014
     14  C        -91.6350   49.2120   13.9670 C.2    35  GLY35       0.2639
     15  O        -90.7190   48.5190   14.4110 O.2    35  GLY35      -0.2714
     16  N        -91.9160   50.4360   14.4150 N.am   36  SER36      -0.1949
     17  CA       -91.1740   51.0570   15.4990 C.3    36  SER36       0.1924
     18  C        -92.1270   51.5940   16.5460 C.2    36  SER36       0.2314
     19  O        -93.1890   52.1270   16.2150 O.2    36  SER36      -0.2863
     20  CB       -90.3150   52.2070   14.9750 C.3    36  SER36       0.2116
     21  OG       -89.6500   52.8530   16.0500 O.3    36  SER36      -0.2180
     22  N        -90.9950   54.0650   18.3870 N.3    38  ALA38      -0.1231
     23  CA       -90.4890   55.4460   18.5070 C.3    38  ALA38       0.1679
     24  C        -91.6060   56.4770   18.3950 C.2    38  ALA38       0.2434
     25  O        -92.4780   56.3450   17.5190 O.2    38  ALA38      -0.2733
     26  CB       -89.4150   55.7220   17.4580 C.3    38  ALA38       0.0304
     27  N        -91.5980   57.5020   19.2790 N.am   39  PRO39      -0.2718
     28  CA       -92.7000   58.4610   19.2460 C.3    39  PRO39       0.1535
     29  C        -92.4770   59.4890   18.1490 C.2    39  PRO39       0.2598
     30  O        -91.3230   59.7870   17.8070 O.2    39  PRO39      -0.2715
     31  CB       -92.6220   59.1270   20.6190 C.3    39  PRO39       0.0310
     32  CG       -91.1620   59.1270   20.9240 C.3    39  PRO39       0.0237
     33  CD       -90.5570   57.9190   20.2380 C.3    39  PRO39       0.0939
     34  N        -93.5860   60.0050   17.6140 N.am   40  ILE40      -0.1978
     35  CA       -93.5860   61.0230   16.5820 C.3    40  ILE40       0.1596
     36  C        -94.1460   62.2720   17.2140 C.2    40  ILE40       0.2287
     37  O        -95.2440   62.2370   17.7370 O.2    40  ILE40      -0.2864
     38  CB       -94.4610   60.5960   15.3820 C.3    40  ILE40       0.0276
     39  CG1      -93.8730   59.3260   14.7410 C.3    40  ILE40       0.0022
     40  CG2      -94.5660   61.7410   14.3700 C.3    40  ILE40       0.0022
     41  CD1      -94.4820   58.0320   15.2340 C.3    40  ILE40       0.0001
     42  N        -95.8180   66.1900    9.5100 N.3    60  TYR60      -0.1227
     43  CA       -95.9560   65.1100    8.5500 C.3    60  TYR60       0.1736
     44  C        -95.0270   63.9750    8.9360 C.2    60  TYR60       0.2596
     45  O        -93.8740   64.1970    9.2450 O.2    60  TYR60      -0.2718
     46  CB       -95.6450   65.6110    7.1190 C.3    60  TYR60       0.0548
     47  CG       -95.6980   64.5130    6.0780 C.ar   60  TYR60      -0.0200
     48  CD1      -94.5670   63.7340    5.7990 C.ar   60  TYR60      -0.0009
     49  CD2      -96.8850   64.2190    5.3980 C.ar   60  TYR60      -0.0009
     50  CE1      -94.6160   62.7060    4.8720 C.ar   60  TYR60       0.0417
     51  CE2      -96.9390   63.1940    4.4480 C.ar   60  TYR60       0.0417
     52  CZ       -95.8050   62.4400    4.1980 C.ar   60  TYR60       0.1957
     53  OH       -95.8340   61.4330    3.2630 O.3    60  TYR60      -0.2866
     54  N        -95.5300   62.7520    8.9080 N.am   61  CYS61      -0.1956
     55  CA       -94.6820   61.5800    9.0270 C.3    61  CYS61       0.1843
     56  C        -95.2750   60.4450    8.2200 C.2    61  CYS61       0.2625
     57  O        -96.5010   60.2340    8.2370 O.2    61  CYS61      -0.2714
     58  CB       -94.5210   61.1700   10.4910 C.3    61  CYS61       0.0997
     59  SG       -93.2980   59.8740   10.7510 S.3    61  CYS61      -0.0797
     60  N        -94.4110   59.7190    7.5090 N.am   62  ALA62      -0.1963
     61  CA       -94.8420   58.5950    6.6900 C.3    62  ALA62       0.1728
     62  C        -94.2470   57.3230    7.2390 C.2    62  ALA62       0.2616
     63  O        -93.1660   57.3330    7.8410 O.2    62  ALA62      -0.2715
     64  CB       -94.4450   58.7920    5.2320 C.3    62  ALA62       0.0334
     65  N        -94.9840   56.2400    7.0510 N.am   63  PHE63      -0.1960
     66  CA       -94.6270   54.9440    7.5660 C.3    63  PHE63       0.1771
     67  C        -94.7090   53.9790    6.4060 C.2    63  PHE63       0.2619
     68  O        -95.7990   53.6850    5.8990 O.2    63  PHE63      -0.2715
     69  CB       -95.5830   54.5310    8.6870 C.3    63  PHE63       0.0574
     70  CG       -95.6200   55.4980    9.8280 C.ar   63  PHE63      -0.0200
     71  CD1      -96.4920   56.5930    9.8130 C.ar   63  PHE63      -0.0042
     72  CD2      -94.7870   55.3250   10.9280 C.ar   63  PHE63      -0.0042
     73  CE1      -96.5300   57.4910   10.8720 C.ar   63  PHE63      -0.0003
     74  CE2      -94.8290   56.2110   11.9930 C.ar   63  PHE63      -0.0003
     75  CZ       -95.6940   57.3000   11.9630 C.ar   63  PHE63      -0.0000
     76  N        -93.5450   53.5080    5.9810 N.am   64  ASP64      -0.1971
     77  CA       -93.4340   52.5280    4.9230 C.3    64  ASP64       0.1709
     78  C        -93.1870   51.1750    5.5840 C.2    64  ASP64       0.2293
     79  O        -92.2240   51.0230    6.3350 O.2    64  ASP64      -0.2864
     80  CB       -92.2860   52.9350    3.9930 C.3    64  ASP64       0.1436
     81  CG       -92.3520   52.2430    2.6540 C.2    64  ASP64       0.3671
     82  OD1      -92.0590   51.0270    2.5950 O.co2  64  ASP64      -0.2456
     83  OD2      -92.7110   52.9090    1.6630 O.co2  64  ASP64      -0.2456
@<TRIPOS>BOND
     1    83    81   ar
     2    82    81   ar
     3    81    80    1
     4    53    52    1
     5    80    77    1
     6    52    51   ar
     7    52    50   ar
     8    51    49   ar
     9    50    48   ar
    10    77    78    1
    11    77    76    1
    12    64    61    1
    13    49    47   ar
    14    78    79    2
    15    48    47   ar
    16    68    67    2
    17    76    67   am
    18    47    46    1
    19    67    66    1
    20    61    62    1
    21    61    60    1
    22    65    62   am
    23    65    66    1
    24    46    43    1
    25    62    63    2
    26    60    56   am
    27    66    69    1
    28    56    57    2
    29    56    55    1
    30    43    44    1
    31    43    42    1
    32    69    70    1
    33    54    44   am
    34    54    55    1
    35    44    45    2
    36    55    58    1
    37    71    70   ar
    38    71    73   ar
    39    70    72   ar
    40     9     7   ar
    41     9    11   ar
    42     7     6   ar
    43    58    59    1
    44    11    10   ar
    45     4     3    2
    46    73    75   ar
    47    72    74   ar
    48     6     5    1
    49     6     8   ar
    50    10     8   ar
    51     5     2    1
    52     3     2    1
    53     3    12   am
    54     2     1    1
    55    75    74   ar
    56    12    13    1
    57    13    14    1
    58    14    15    2
    59    14    16   am
    60    40    38    1
    61    16    17    1
    62    39    41    1
    63    39    38    1
    64    20    17    1
    65    20    21    1
    66    38    35    1
    67    17    18    1
    68    19    18    2
    69    35    36    1
    70    35    34    1
    71    36    37    2
    72    26    23    1
    73    25    24    2
    74    34    29   am
    75    30    29    2
    76    29    28    1
    77    22    23    1
    78    24    23    1
    79    24    27   am
    80    28    27    1
    81    28    31    1
    82    27    33    1
    83    33    32    1
    84    31    32    1
