@<TRIPOS>MOLECULE
tmp/6ewqC00.pdb
 136 128 0 0 0
SMALL
GASTEIGER

@<TRIPOS>ATOM
      1  N          7.7730  -29.2060  -48.2590 N.3    54  SER54      -0.1202
      2  CA         8.9560  -30.0300  -48.1490 C.3    54  SER54       0.2020
      3  C          9.9970  -29.8710  -49.2220 C.2    54  SER54       0.2619
      4  O          9.7290  -29.4730  -50.2730 O.2    54  SER54      -0.2717
      5  CB         8.6050  -31.5180  -48.0420 C.3    54  SER54       0.2103
      6  OG         8.0260  -31.9690  -49.1650 O.3    54  SER54      -0.2182
      7  N         11.1810  -30.3150  -48.9200 N.am   55  ALA55      -0.1965
      8  CA        12.2260  -30.4250  -49.8820 C.3    55  ALA55       0.1728
      9  C         11.8490  -31.4260  -50.9490 C.2    55  ALA55       0.2616
     10  O         12.1730  -31.2140  -52.0760 O.2    55  ALA55      -0.2715
     11  CB        13.5420  -30.8150  -49.2280 C.3    55  ALA55       0.0334
     12  N         11.2050  -32.5150  -50.5390 N.am   56  THR56      -0.1951
     13  CA        10.7180  -33.5400  -51.4460 C.3    56  THR56       0.1897
     14  C          9.7440  -32.9090  -52.4000 C.2    56  THR56       0.2313
     15  O          9.8700  -33.1380  -53.5920 O.2    56  THR56      -0.2863
     16  CB        10.1270  -34.7420  -50.6850 C.3    56  THR56       0.1794
     17  OG1       11.1360  -35.2210  -49.7510 O.3    56  THR56      -0.2208
     18  CG2        9.7830  -35.8430  -51.6340 C.3    56  THR56       0.0378
     19  N         11.7910  -30.5550  -54.9480 N.3    59  LEU59      -0.1245
     20  CA        12.5920  -31.3150  -55.9140 C.3    59  LEU59       0.1561
     21  C         11.6680  -31.9300  -56.9710 C.2    59  LEU59       0.2260
     22  O         11.9070  -31.8340  -58.1510 O.2    59  LEU59      -0.2867
     23  CB        13.3700  -32.4020  -55.1670 C.3    59  LEU59       0.0270
     24  CG        14.6420  -32.9740  -55.7360 C.3    59  LEU59       0.0019
     25  CD1       15.6770  -31.9350  -56.1410 C.3    59  LEU59       0.0001
     26  CD2       15.2570  -33.9270  -54.7170 C.3    59  LEU59       0.0001
     27  N         20.2030  -39.7100  -49.8740 N.3    81  TYR81      -0.1241
     28  CA        18.9440  -40.0020  -49.1940 C.3    81  TYR81       0.1605
     29  C         17.9090  -40.3910  -50.2530 C.2    81  TYR81       0.2264
     30  O         17.9660  -39.9070  -51.3770 O.2    81  TYR81      -0.2867
     31  CB        18.4360  -38.7850  -48.4170 C.3    81  TYR81       0.0534
     32  CG        17.2070  -39.0280  -47.5560 C.ar   81  TYR81      -0.0201
     33  CD1       17.1780  -40.0630  -46.6370 C.ar   81  TYR81      -0.0009
     34  CD2       16.0950  -38.1750  -47.6390 C.ar   81  TYR81      -0.0009
     35  CE1       16.0860  -40.2680  -45.8200 C.ar   81  TYR81       0.0417
     36  CE2       14.9740  -38.3970  -46.8590 C.ar   81  TYR81       0.0417
     37  CZ        14.9820  -39.4630  -45.9560 C.ar   81  TYR81       0.1957
     38  OH        13.8970  -39.6630  -45.1370 O.3    81  TYR81      -0.2866
     39  N         14.8830  -39.5940  -50.6720 N.3    83  ALA83      -0.1231
     40  CA        14.1220  -38.4470  -51.2440 C.3    83  ALA83       0.1694
     41  C         14.6680  -37.8910  -52.6000 C.2    83  ALA83       0.2592
     42  O         13.8750  -37.5480  -53.4880 O.2    83  ALA83      -0.2718
     43  CB        14.0190  -37.3400  -50.2410 C.3    83  ALA83       0.0304
     44  N         15.9910  -37.8450  -52.7570 N.am   84  SER84      -0.1952
     45  CA        16.6050  -37.3820  -54.0270 C.3    84  SER84       0.1924
     46  C         16.2330  -38.2620  -55.1900 C.2    84  SER84       0.2314
     47  O         16.0590  -37.7860  -56.2960 O.2    84  SER84      -0.2863
     48  CB        18.1290  -37.3130  -53.9250 C.3    84  SER84       0.2116
     49  OG        18.5580  -36.8830  -52.6270 O.3    84  SER84      -0.2180
     50  N         23.9360  -34.3430  -54.5530 N.3   126  VAL126     -0.1245
     51  CA        23.5640  -34.0130  -53.1480 C.3   126  VAL126      0.1561
     52  C         24.6930  -33.3120  -52.4850 C.2   126  VAL126      0.2260
     53  O         25.8320  -33.7500  -52.5770 O.2   126  VAL126     -0.2867
     54  CB        23.1050  -35.2490  -52.3280 C.3   126  VAL126      0.0252
     55  CG1       24.1600  -36.3570  -52.2200 C.3   126  VAL126      0.0019
     56  CG2       22.6570  -34.8470  -50.9170 C.3   126  VAL126      0.0019
     57  N         20.1930  -31.0060  -54.8480 N.3   167  ASP167     -0.1239
     58  CA        19.6320  -31.3760  -53.5450 C.3   167  ASP167      0.1674
     59  C         20.4710  -30.7380  -52.4220 C.2   167  ASP167      0.2266
     60  O         21.4400  -31.3270  -51.9300 O.2   167  ASP167     -0.2867
     61  CB        19.5770  -32.9160  -53.4160 C.3   167  ASP167      0.1410
     62  CG        18.8820  -33.3930  -52.1170 C.2   167  ASP167      0.3668
     63  OD1       18.5690  -32.5650  -51.2290 O.co2 167  ASP167     -0.2456
     64  OD2       18.6710  -34.6140  -51.9840 O.co2 167  ASP167     -0.2456
     65  N         19.3210  -30.0580  -49.3650 N.3   169  ALA169     -0.1231
     66  CA        18.5760  -30.2380  -48.1080 C.3   169  ALA169      0.1694
     67  C         19.4570  -29.8820  -46.8910 C.2   169  ALA169      0.2592
     68  O         18.9680  -29.3960  -45.8780 O.2   169  ALA169     -0.2718
     69  CB        18.0220  -31.6620  -48.0100 C.3   169  ALA169      0.0304
     70  N         20.7550  -30.1270  -47.0090 N.am  170  HIS170     -0.1976
     71  CA        21.6560  -29.9430  -45.9210 C.3   170  HIS170      0.1656
     72  C         22.4520  -28.6520  -46.0590 C.2   170  HIS170      0.2291
     73  O         23.3140  -28.3730  -45.1940 O.2   170  HIS170     -0.2864
     74  CB        22.6710  -31.1010  -45.8710 C.3   170  HIS170      0.0771
     75  CG        22.0620  -32.4600  -45.8080 C.ar  170  HIS170      0.0820
     76  ND1       22.7540  -33.5870  -46.1980 N.ar  170  HIS170     -0.2267
     77  CD2       20.8500  -32.8880  -45.3770 C.ar  170  HIS170      0.1154
     78  CE1       21.9970  -34.6540  -46.0060 C.ar  170  HIS170      0.1986
     79  NE2       20.8290  -34.2560  -45.5240 N.ar  170  HIS170     -0.2212
     80  N         15.6550  -27.9560  -47.6030 N.3   191  SER191     -0.1217
     81  CA        14.7780  -28.5690  -46.6130 C.3   191  SER191      0.1889
     82  C         14.8220  -27.7810  -45.3130 C.2   191  SER191      0.2288
     83  O         15.8960  -27.4740  -44.8190 O.2   191  SER191     -0.2866
     84  CB        15.1650  -30.0330  -46.3600 C.3   191  SER191      0.2089
     85  OG        14.2320  -30.6770  -45.4880 O.3   191  SER191     -0.2183
     86  N         13.0680  -29.1500  -42.6910 N.3   193  HIS193     -0.1241
     87  CA        12.5470  -30.1780  -41.8140 C.3   193  HIS193      0.1621
     88  C         13.0890  -29.9900  -40.3780 C.2   193  HIS193      0.2264
     89  O         14.1680  -29.4190  -40.1820 O.2   193  HIS193     -0.2867
     90  CB        12.9450  -31.5410  -42.4370 C.3   193  HIS193      0.0745
     91  CG        12.5600  -32.7280  -41.6360 C.ar  193  HIS193      0.0817
     92  ND1       13.3780  -33.2500  -40.6670 N.ar  193  HIS193     -0.2268
     93  CD2       11.4820  -33.5360  -41.6970 C.ar  193  HIS193      0.1154
     94  CE1       12.8140  -34.3280  -40.1530 C.ar  193  HIS193      0.1986
     95  NE2       11.6540  -34.5140  -40.7590 N.ar  193  HIS193     -0.2212
     96  N         14.8940  -31.6310  -38.2240 N.3   195  VAL195     -0.1231
     97  CA        16.3240  -32.0110  -37.9650 C.3   195  VAL195      0.1692
     98  C         17.3670  -31.2580  -38.7920 C.2   195  VAL195      0.2592
     99  O         18.5620  -31.4510  -38.5720 O.2   195  VAL195     -0.2718
    100  CB        16.5930  -33.5490  -38.0820 C.3   195  VAL195      0.0266
    101  CG1       15.5330  -34.3430  -37.3150 C.3   195  VAL195      0.0020
    102  CG2       16.6110  -34.0600  -39.5140 C.3   195  VAL195      0.0020
    103  N         16.9250  -30.3980  -39.7100 N.am  196  LYS196     -0.1976
    104  CA        17.8300  -29.6630  -40.6090 C.3   196  LYS196      0.1639
    105  C         18.4060  -28.3960  -39.8800 C.2   196  LYS196      0.2290
    106  O         17.9430  -28.0280  -38.7820 O.2   196  LYS196     -0.2864
    107  CB        17.1400  -29.3520  -41.9620 C.3   196  LYS196      0.0554
    108  CG        17.2990  -30.3930  -43.0900 C.2   196  LYS196     -0.0270
    109  CD        17.3110  -31.8810  -42.7250 C.2   196  LYS196     -0.0102
    110  CE        17.3530  -32.8940  -43.9070 C.3   196  LYS196      0.1350
    111  NZ        16.0740  -33.2600  -44.5820 N.3   196  LYS196     -0.1262
    112  N          8.2960  -28.7240  -40.6790 N.3   202  GLU202     -0.1231
    113  CA         8.2090  -29.2810  -42.0280 C.3   202  GLU202      0.1699
    114  C          8.2020  -28.1070  -42.9920 C.2   202  GLU202      0.2592
    115  O          7.4800  -27.1110  -42.7880 O.2   202  GLU202     -0.2718
    116  CB         6.9740  -30.1390  -42.2200 C.3   202  GLU202      0.0402
    117  CG         6.9780  -31.4550  -41.4580 C.3   202  GLU202      0.1161
    118  CD         7.9730  -32.4780  -42.0010 C.2   202  GLU202      0.3649
    119  OE1        8.5540  -32.3230  -43.0560 O.co2 202  GLU202     -0.2457
    120  OE2        8.1530  -33.5110  -41.3660 O.co2 202  GLU202     -0.2457
    121  N          9.0330  -28.2110  -44.0450 N.am  203  GLY203     -0.1957
    122  CA         9.0580  -27.2140  -45.0770 C.3   203  GLY203      0.1869
    123  C         10.2170  -27.3850  -46.0180 C.2   203  GLY203      0.2309
    124  O         11.0620  -28.2590  -45.8630 O.2   203  GLY203     -0.2863
    125  N         25.0460  -42.5760  -45.6160 N.3   342  TYR342     -0.1241
    126  CA        23.7390  -43.2510  -45.7130 C.3   342  TYR342      0.1605
    127  C         23.9090  -44.6500  -46.2240 C.2   342  TYR342      0.2264
    128  O         24.9190  -44.9630  -46.8310 O.2   342  TYR342     -0.2867
    129  CB        22.9310  -42.6030  -46.7670 C.3   342  TYR342      0.0534
    130  CG        22.3760  -41.2270  -46.4610 C.ar  342  TYR342     -0.0201
    131  CD1       21.2810  -41.0580  -45.5950 C.ar  342  TYR342     -0.0009
    132  CD2       22.9100  -40.1100  -47.0950 C.ar  342  TYR342     -0.0009
    133  CE1       20.7410  -39.7920  -45.3830 C.ar  342  TYR342      0.0417
    134  CE2       22.3890  -38.8500  -46.8990 C.ar  342  TYR342      0.0417
    135  CZ        21.3250  -38.6800  -46.0580 C.ar  342  TYR342      0.1957
    136  OH        20.8630  -37.4070  -45.9100 O.3   342  TYR342     -0.2866
@<TRIPOS>BOND
     1    22    21    2
     2    21    20    1
     3    47    46    2
     4    25    24    1
     5    20    23    1
     6    20    19    1
     7    24    23    1
     8    24    26    1
     9    46    45    1
    10    57    58    1
    11    50    51    1
    12    45    48    1
    13    45    44    1
    14    48    49    1
    15    15    14    2
    16    58    61    1
    17    58    59    1
    18    42    41    2
    19    61    62    1
    20    51    52    1
    21    51    54    1
    22    44    41   am
    23    41    40    1
    24    53    52    2
    25    59    60    2
    26    14    13    1
    27    54    55    1
    28    54    56    1
    29    62    64   ar
    30    62    63   ar
    31    10     9    2
    32    18    16    1
    33    13    16    1
    34    13    12    1
    35    30    29    2
    36    40    39    1
    37    40    43    1
    38     9    12   am
    39     9     8    1
    40    16    17    1
    41     4     3    2
    42    29    28    1
    43     8    11    1
    44     8     7    1
    45    27    28    1
    46    65    66    1
    47     3     7   am
    48     3     2    1
    49    28    31    1
    50     6     5    1
    51    31    32    1
    52     1     2    1
    53     2     5    1
    54    66    69    1
    55    66    67    1
    56    34    32   ar
    57    34    36   ar
    58    80    81    1
    59    32    33   ar
    60   132   134   ar
    61   132   130   ar
    62    70    67   am
    63    70    71    1
    64   134   135   ar
    65    67    68    2
    66    36    37   ar
    67   128   127    2
    68   129   130    1
    69   129   126    1
    70    33    35   ar
    71    81    84    1
    72    81    82    1
    73   130   131   ar
    74    84    85    1
    75   127   126    1
    76    76    78   ar
    77    76    75   ar
    78    72    71    1
    79    72    73    2
    80   135   136    1
    81   135   133   ar
    82   123   124    2
    83   123   122    1
    84    78    79   ar
    85    37    35   ar
    86    37    38    1
    87    71    74    1
    88    74    75    1
    89    75    77   ar
    90   126   125    1
    91   131   133   ar
    92    79    77   ar
    93    82    83    2
    94   122   121    1
    95   111   110    1
    96   121   114   am
    97   110   109    1
    98   108   109    2
    99   108   107    1
   100   119   118   ar
   101   114   115    2
   102   114   113    1
   103    86    87    1
   104    90    87    1
   105    90    91    1
   106   116   113    1
   107   116   117    1
   108   113   112    1
   109   118   117    1
   110   118   120   ar
   111   107   104    1
   112    87    88    1
   113    93    91   ar
   114    93    95   ar
   115    91    92   ar
   116    95    94   ar
   117    92    94   ar
   118   104   105    1
   119   104   103    1
   120    88    89    2
   121   105   106    2
   122   103    98   am
   123   102   100    1
   124    98    99    2
   125    98    97    1
   126    96    97    1
   127   100    97    1
   128   100   101    1
