@<TRIPOS>MOLECULE
tmp/6ewzA00.pdb
 230 219 0 0 0
SMALL
GASTEIGER

@<TRIPOS>ATOM
      1  N         88.7060   18.1630   71.1690 N.3    52  LYS52      -0.1245
      2  CA        89.3290   19.4060   70.7320 C.3    52  LYS52       0.1561
      3  C         89.4780   20.3960   71.8870 C.2    52  LYS52       0.2260
      4  O         88.5300   20.6500   72.6310 O.2    52  LYS52      -0.2867
      5  CB        88.4710   19.9930   69.6120 C.3    52  LYS52       0.0271
      6  CG        89.1450   20.9340   68.6530 C.3    52  LYS52       0.0035
      7  CD        88.1680   21.1780   67.4500 C.3    52  LYS52       0.0206
      8  CE        88.9030   21.7470   66.2430 C.3    52  LYS52       0.1093
      9  NZ        89.7830   20.7310   65.5950 N.3    52  LYS52      -0.1314
     10  N         89.1440   27.6050   65.1370 N.3    60  LYS60      -0.1245
     11  CA        88.4620   27.0220   63.9800 C.3    60  LYS60       0.1561
     12  C         87.1820   27.7860   63.6720 C.2    60  LYS60       0.2260
     13  O         86.9090   28.1130   62.5130 O.2    60  LYS60      -0.2867
     14  CB        88.1590   25.5380   64.2260 C.3    60  LYS60       0.0271
     15  CG        87.6610   24.7630   62.9990 C.3    60  LYS60       0.0035
     16  CD        87.6770   23.2190   63.2070 C.3    60  LYS60       0.0206
     17  CE        87.1510   22.4730   61.9160 C.3    60  LYS60       0.1093
     18  NZ        87.4130   20.9930   61.9400 N.3    60  LYS60      -0.1314
     19  N         88.2120   30.9360   62.0520 N.3    63  ARG63      -0.1231
     20  CA        88.7000   30.6550   60.7040 C.3    63  ARG63       0.1694
     21  C         87.5470   30.5290   59.7170 C.2    63  ARG63       0.2591
     22  O         87.6660   30.9260   58.5530 O.2    63  ARG63      -0.2718
     23  CB        89.5130   29.3590   60.7190 C.3    63  ARG63       0.0321
     24  CG        90.5570   29.2540   59.6690 C.3    63  ARG63       0.0489
     25  CD        91.5030   28.0880   59.9410 C.3    63  ARG63       0.2205
     26  NE        90.8930   26.7890   59.6520 N.pl3  63  ARG63      -0.0865
     27  CZ        90.7350   25.8060   60.5310 C.cat  63  ARG63       0.5346
     28  NH1       91.1700   25.9470   61.7860 N.pl3  63  ARG63       0.1354
     29  NH2       90.1640   24.6640   60.1400 N.pl3  63  ARG63       0.1354
     30  N         86.4310   29.9580   60.1640 N.am   64  LYS64      -0.1980
     31  CA        85.2790   29.6740   59.3260 C.3    64  LYS64       0.1596
     32  C         84.2330   30.7830   59.3350 C.2    64  LYS64       0.2287
     33  O         83.2190   30.6520   58.6450 O.2    64  LYS64      -0.2864
     34  CB        84.6530   28.3480   59.7800 C.3    64  LYS64       0.0298
     35  CG        85.4890   27.1320   59.3590 C.3    64  LYS64       0.0038
     36  CD        84.8990   25.8300   59.8500 C.3    64  LYS64       0.0206
     37  CE        85.2170   24.6750   58.8990 C.3    64  LYS64       0.1093
     38  NZ        86.6080   24.7230   58.3780 N.3    64  LYS64      -0.1314
     39  N         77.9770   23.0770   63.8240 N.3    76  HIS76      -0.1226
     40  CA        78.7840   23.2390   62.6170 C.3    76  HIS76       0.1752
     41  C         80.1820   22.6320   62.6800 C.2    76  HIS76       0.2596
     42  O         80.8070   22.5020   61.6280 O.2    76  HIS76      -0.2718
     43  CB        78.9320   24.7300   62.2640 C.3    76  HIS76       0.0759
     44  CG        77.6800   25.3620   61.7520 C.ar   76  HIS76       0.0818
     45  ND1       77.3060   26.6470   62.0860 N.ar   76  HIS76      -0.2268
     46  CD2       76.7250   24.8980   60.9130 C.ar   76  HIS76       0.1154
     47  CE1       76.1720   26.9440   61.4780 C.ar   76  HIS76       0.1986
     48  NE2       75.7950   25.8960   60.7680 N.ar   76  HIS76      -0.2212
     49  N         80.7110   22.3010   63.8640 N.am   77  ILE77      -0.1966
     50  CA        82.0570   21.7300   63.9910 C.3    77  ILE77       0.1727
     51  C         81.9250   20.2380   64.2840 C.2    77  ILE77       0.2616
     52  O         81.4790   19.8440   65.3700 O.2    77  ILE77      -0.2715
     53  CB        82.8870   22.4360   65.0760 C.3    77  ILE77       0.0290
     54  CG1       82.9680   23.9510   64.8170 C.3    77  ILE77       0.0022
     55  CG2       84.2730   21.8040   65.1870 C.3    77  ILE77       0.0023
     56  CD1       83.6240   24.3300   63.4630 C.3    77  ILE77       0.0001
     57  N         82.3700   19.3990   63.3430 N.am   78  LEU78      -0.1963
     58  CA        82.1270   17.9580   63.4000 C.3    78  LEU78       0.1728
     59  C         83.2610   17.1480   64.0340 C.2    78  LEU78       0.2616
     60  O         83.0850   15.9480   64.2500 O.2    78  LEU78      -0.2715
     61  CB        81.8270   17.4120   61.9870 C.3    78  LEU78       0.0311
     62  CG        80.6070   17.9930   61.2520 C.3    78  LEU78       0.0022
     63  CD1       80.3770   17.3790   59.8190 C.3    78  LEU78       0.0001
     64  CD2       79.3330   17.8740   62.1130 C.3    78  LEU78       0.0001
     65  N         84.3970   17.7650   64.3710 N.am   79  ASP79      -0.1971
     66  CA        85.5360   17.0470   64.9370 C.3    79  ASP79       0.1709
     67  C         85.8310   17.4600   66.3790 C.2    79  ASP79       0.2293
     68  O         86.9710   17.3560   66.8330 O.2    79  ASP79      -0.2864
     69  CB        86.7810   17.2450   64.0570 C.3    79  ASP79       0.1436
     70  CG        87.3270   18.6700   64.1210 C.2    79  ASP79       0.3671
     71  OD1       86.5030   19.6110   64.2280 O.co2  79  ASP79      -0.2456
     72  OD2       88.5640   18.8590   64.0300 O.co2  79  ASP79      -0.2456
     73  N         91.0100    8.2760   66.1780 N.3    84  ARG84      -0.1245
     74  CA        91.8560    7.8010   65.0980 C.3    84  ARG84       0.1563
     75  C         92.0160    6.3050   65.3010 C.2    84  ARG84       0.2260
     76  O         92.4280    5.8560   66.3800 O.2    84  ARG84      -0.2867
     77  CB        93.2020    8.5310   65.0990 C.3    84  ARG84       0.0307
     78  CG        94.1380    8.2450   63.9220 C.3    84  ARG84       0.0489
     79  CD        95.3690    9.1610   64.0160 C.3    84  ARG84       0.2205
     80  NE        95.0300   10.5440   63.6850 N.pl3  84  ARG84      -0.0865
     81  CZ        95.6280   11.6060   64.2100 C.cat  84  ARG84       0.5346
     82  NH1       95.2640   12.8250   63.8330 N.pl3  84  ARG84       0.1354
     83  NH2       96.5720   11.4500   65.1290 N.pl3  84  ARG84       0.1354
     84  N         79.2070   12.2840   57.2140 N.3   110  LYS110     -0.1245
     85  CA        80.1290   12.8630   56.2460 C.3   110  LYS110      0.1561
     86  C         81.2180   11.8430   55.9720 C.2   110  LYS110      0.2260
     87  O         81.6520   11.1340   56.8890 O.2   110  LYS110     -0.2867
     88  CB        80.7490   14.1680   56.7660 C.3   110  LYS110      0.0271
     89  CG        81.7300   14.8510   55.7920 C.3   110  LYS110      0.0035
     90  CD        82.3760   16.0120   56.5010 C.3   110  LYS110      0.0206
     91  CE        83.7530   16.2890   55.9770 C.3   110  LYS110      0.1093
     92  NZ        84.4970   17.0400   57.0160 N.3   110  LYS110     -0.1314
     93  N         84.9300   11.4140   53.6730 N.3   112  LYS112     -0.1245
     94  CA        85.9720   11.8930   52.7620 C.3   112  LYS112      0.1561
     95  C         87.0440   10.8140   52.6530 C.2   112  LYS112      0.2260
     96  O         87.6860   10.4750   53.6530 O.2   112  LYS112     -0.2867
     97  CB        86.5940   13.1920   53.2940 C.3   112  LYS112      0.0271
     98  CG        85.5990   14.2740   53.6990 C.3   112  LYS112      0.0035
     99  CD        85.1050   15.1530   52.5860 C.3   112  LYS112      0.0206
    100  CE        86.2270   16.0620   52.1360 C.3   112  LYS112      0.1093
    101  NZ        86.5330   17.0720   53.1850 N.3   112  LYS112     -0.1314
    102  N         90.5200   10.0160   51.3860 N.3   114  TYR114     -0.1241
    103  CA        91.8370   10.4020   50.8810 C.3   114  TYR114      0.1605
    104  C         92.7280    9.2090   50.5540 C.2   114  TYR114      0.2264
    105  O         93.9050    9.3960   50.2320 O.2   114  TYR114     -0.2867
    106  CB        92.5330   11.3280   51.8870 C.3   114  TYR114      0.0534
    107  CG        91.7530   12.6140   52.0730 C.ar  114  TYR114     -0.0201
    108  CD1       91.6020   13.5180   51.0170 C.ar  114  TYR114     -0.0009
    109  CD2       91.1790   12.9330   53.2960 C.ar  114  TYR114     -0.0009
    110  CE1       90.8930   14.6960   51.1820 C.ar  114  TYR114      0.0417
    111  CE2       90.4740   14.1140   53.4730 C.ar  114  TYR114      0.0417
    112  CZ        90.3360   14.9910   52.4150 C.ar  114  TYR114      0.1957
    113  OH        89.6270   16.1560   52.5960 O.3   114  TYR114     -0.2866
    114  N         95.4920   13.5620   49.0690 N.3   119  LYS119     -0.1245
    115  CA        95.7420   14.9900   48.9720 C.3   119  LYS119      0.1561
    116  C         97.0270   15.2350   48.1870 C.2   119  LYS119      0.2260
    117  O         97.8900   14.3620   48.0700 O.2   119  LYS119     -0.2867
    118  CB        95.8640   15.5950   50.3780 C.3   119  LYS119      0.0271
    119  CG        94.5640   15.4720   51.1760 C.3   119  LYS119      0.0035
    120  CD        94.6080   16.2380   52.4620 C.3   119  LYS119      0.0206
    121  CE        94.3240   17.7040   52.2750 C.3   119  LYS119      0.1093
    122  NZ        93.6830   18.2120   53.5170 N.3   119  LYS119     -0.1314
    123  N         99.6800   16.7760   48.9160 N.3   121  ASN121     -0.1240
    124  CA       100.9390   16.5440   49.6250 C.3   121  ASN121      0.1653
    125  C        101.2350   15.0580   49.8240 C.2   121  ASN121      0.2266
    126  O        102.3340   14.7120   50.2730 O.2   121  ASN121     -0.2867
    127  CB       100.9270   17.2650   50.9790 C.3   121  ASN121      0.1155
    128  CG        99.8800   16.7040   51.9300 C.2   121  ASN121      0.2627
    129  OD1       99.1860   15.7350   51.6100 O.2   121  ASN121     -0.2716
    130  ND2       99.7410   17.3310   53.0940 N.am  121  ASN121     -0.0877
    131  N         98.9100   12.9930   51.6160 N.3   123  TYR123     -0.1241
    132  CA        98.1330   12.5130   52.7610 C.3   123  TYR123      0.1605
    133  C         97.0770   11.4910   52.3410 C.2   123  TYR123      0.2264
    134  O         96.3360   11.7060   51.3740 O.2   123  TYR123     -0.2867
    135  CB        97.4370   13.6890   53.4500 C.3   123  TYR123      0.0534
    136  CG        96.5720   13.2970   54.6430 C.ar  123  TYR123     -0.0201
    137  CD1       97.1270   13.1440   55.9180 C.ar  123  TYR123     -0.0009
    138  CD2       95.2050   13.0800   54.4860 C.ar  123  TYR123     -0.0009
    139  CE1       96.3160   12.7790   57.0310 C.ar  123  TYR123      0.0417
    140  CE2       94.4110   12.7270   55.5280 C.ar  123  TYR123      0.0417
    141  CZ        94.9650   12.5860   56.8190 C.ar  123  TYR123      0.1957
    142  OH        94.1390   12.2380   57.8530 O.3   123  TYR123     -0.2866
    143  N         88.1600    9.3250   56.2630 N.3   127  HIS127     -0.1241
    144  CA        87.5490   10.1320   57.3150 C.3   127  HIS127      0.1621
    145  C         86.0420    9.9140   57.2780 C.2   127  HIS127      0.2264
    146  O         85.4090   10.1910   56.2590 O.2   127  HIS127     -0.2867
    147  CB        87.8480   11.6280   57.1240 C.3   127  HIS127      0.0745
    148  CG        89.3030   12.0020   57.1830 C.ar  127  HIS127      0.0817
    149  ND1       89.7400   13.2830   56.9170 N.ar  127  HIS127     -0.2268
    150  CD2       90.4110   11.2890   57.5080 C.ar  127  HIS127      0.1154
    151  CE1       91.0550   13.3420   57.0650 C.ar  127  HIS127      0.1986
    152  NE2       91.4860   12.1480   57.4260 N.ar  127  HIS127     -0.2212
    153  N         84.2060   12.4410   64.6910 N.3   146  GLU146     -0.1245
    154  CA        85.0450   12.3100   63.5020 C.3   146  GLU146      0.1567
    155  C         86.0240   11.1550   63.6820 C.2   146  GLU146      0.2260
    156  O         86.8790   11.1960   64.5760 O.2   146  GLU146     -0.2867
    157  CB        85.8260   13.5940   63.2090 C.3   146  GLU146      0.0388
    158  CG        86.6110   13.5190   61.8590 C.3   146  GLU146      0.1160
    159  CD        87.6930   14.5860   61.7100 C.2   146  GLU146      0.3649
    160  OE1       88.8120   14.4120   62.2550 O.co2 146  GLU146     -0.2457
    161  OE2       87.4120   15.6180   61.0670 O.co2 146  GLU146     -0.2457
    162  N         89.0500    9.1280   62.0210 N.3   148  GLN148     -0.1245
    163  CA        90.1010    9.0100   61.0170 C.3   148  GLN148      0.1566
    164  C         90.5910    7.5650   60.9940 C.2   148  GLN148      0.2260
    165  O         91.1590    7.0850   61.9780 O.2   148  GLN148     -0.2867
    166  CB        91.2580    9.9750   61.3180 C.3   148  GLN148      0.0367
    167  CG        90.8670   11.4690   61.2650 C.3   148  GLN148      0.0905
    168  CD        92.0080   12.4300   61.6440 C.2   148  GLN148      0.2608
    169  OE1       93.1320   12.0080   61.9250 O.2   148  GLN148     -0.2717
    170  NE2       91.7070   13.7330   61.6570 N.am  148  GLN148     -0.0878
    171  N         93.0660    4.7460   59.2000 N.3   150  ARG150     -0.1245
    172  CA        94.2950    4.7470   58.4070 C.3   150  ARG150      0.1563
    173  C         95.1470    3.5360   58.7740 C.2   150  ARG150      0.2260
    174  O         94.9200    2.8870   59.7960 O.2   150  ARG150     -0.2867
    175  CB        95.0690    6.0530   58.6080 C.3   150  ARG150      0.0307
    176  CG        95.2350    6.4150   60.0590 C.3   150  ARG150      0.0489
    177  CD        96.2110    7.5760   60.2960 C.3   150  ARG150      0.2205
    178  NE        95.6740    8.8970   59.9550 N.pl3 150  ARG150     -0.0865
    179  CZ        96.1490   10.0310   60.4690 C.cat 150  ARG150      0.5346
    180  NH1       97.1300    9.9910   61.3600 N.pl3 150  ARG150      0.1354
    181  NH2       95.6360   11.2000   60.1320 N.pl3 150  ARG150      0.1354
    182  N        103.3970    8.4090   58.3680 N.3   157  TRP157     -0.1227
    183  CA       103.6320    9.4960   57.4260 C.3   157  TRP157      0.1737
    184  C        102.9710   10.7830   57.9070 C.2   157  TRP157      0.2595
    185  O        103.5870   11.8550   57.8830 O.2   157  TRP157     -0.2718
    186  CB       103.1220    9.1090   56.0280 C.3   157  TRP157      0.0564
    187  CG       103.4690   10.1220   55.0060 C.ar  157  TRP157      0.0003
    188  CD1      104.6100   10.1630   54.2180 C.ar  157  TRP157      0.0946
    189  CD2      102.7060   11.2800   54.6640 C.ar  157  TRP157      0.0152
    190  NE1      104.5810   11.2740   53.4160 N.ar  157  TRP157     -0.2442
    191  CE2      103.4190   11.9690   53.6560 C.ar  157  TRP157      0.0810
    192  CE3      101.4890   11.8010   55.1070 C.ar  157  TRP157      0.0012
    193  CZ2      102.9450   13.1580   53.0800 C.ar  157  TRP157      0.0191
    194  CZ3      101.0230   12.9830   54.5390 C.ar  157  TRP157      0.0001
    195  CH2      101.7560   13.6470   53.5330 C.ar  157  TRP157      0.0015
    196  N        101.7020   10.6920   58.3180 N.am  158  ALA158     -0.1980
    197  CA       100.9420   11.8670   58.7510 C.3   158  ALA158      0.1597
    198  C        101.5560   12.5380   59.9800 C.2   158  ALA158      0.2287
    199  O        101.5870   13.7740   60.0690 O.2   158  ALA158     -0.2864
    200  CB        99.4920   11.4780   59.0370 C.3   158  ALA158      0.0319
    201  N        104.5250   14.5730   58.6630 N.3   161  GLU161     -0.1231
    202  CA       104.1070   15.7400   57.8860 C.3   161  GLU161      0.1699
    203  C        103.4900   16.8030   58.7870 C.2   161  GLU161      0.2592
    204  O        103.6910   18.0080   58.5770 O.2   161  GLU161     -0.2718
    205  CB       103.1270   15.3270   56.7780 C.3   161  GLU161      0.0402
    206  CG       102.7150   16.4820   55.8820 C.3   161  GLU161      0.1161
    207  CD       101.5290   17.2470   56.4410 C.2   161  GLU161      0.3649
    208  OE1      100.7360   16.6320   57.1850 O.co2 161  GLU161     -0.2457
    209  OE2      101.4110   18.4650   56.1690 O.co2 161  GLU161     -0.2457
    210  N        102.7080   16.3730   59.7700 N.am  162  HIS162     -0.1976
    211  CA       102.1530   17.2950   60.7540 C.3   162  HIS162      0.1656
    212  C        103.2550   18.0620   61.4660 C.2   162  HIS162      0.2291
    213  O        103.1960   19.2910   61.5950 O.2   162  HIS162     -0.2864
    214  CB       101.3180   16.4990   61.7620 C.3   162  HIS162      0.0771
    215  CG       100.7340   17.3240   62.8650 C.ar  162  HIS162      0.0820
    216  ND1      101.4770   17.7560   63.9430 N.ar  162  HIS162     -0.2267
    217  CD2       99.4740   17.7730   63.0710 C.ar  162  HIS162      0.1154
    218  CE1      100.7030   18.4480   64.7590 C.ar  162  HIS162      0.1986
    219  NE2       99.4840   18.4730   64.2520 N.ar  162  HIS162     -0.2212
    220  N        104.6420   20.6410   59.0320 N.3   165  ARG165     -0.1245
    221  CA       103.6880   21.7060   58.7500 C.3   165  ARG165      0.1563
    222  C        103.5010   22.6380   59.9360 C.2   165  ARG165      0.2260
    223  O        103.2770   23.8380   59.7470 O.2   165  ARG165     -0.2867
    224  CB       102.3570   21.1060   58.3150 C.3   165  ARG165      0.0307
    225  CG       101.3280   22.1240   57.8930 C.3   165  ARG165      0.0489
    226  CD       100.2560   21.4390   57.0940 C.3   165  ARG165      0.2205
    227  NE        99.8570   20.1840   57.7230 N.pl3 165  ARG165     -0.0865
    228  CZ        99.0000   20.0890   58.7290 C.cat 165  ARG165      0.5346
    229  NH1       98.6970   18.8980   59.2260 N.pl3 165  ARG165      0.1354
    230  NH2       98.4590   21.1860   59.2400 N.pl3 165  ARG165      0.1354
@<TRIPOS>BOND
     1   117   116    2
     2   116   115    1
     3   123   124    1
     4   115   114    1
     5   115   118    1
     6   124   125    1
     7   124   127    1
     8   125   126    2
     9   105   104    2
    10   118   119    1
    11   104   103    1
    12   103   102    1
    13   103   106    1
    14   127   128    1
    15   108   110   ar
    16   108   107   ar
    17   119   120    1
    18   110   112   ar
    19   134   133    2
    20   129   128    2
    21   131   132    1
    22   106   107    1
    23   128   130   am
    24   107   109   ar
    25   100    99    1
    26   100   101    1
    27   121   120    1
    28   121   122    1
    29   133   132    1
    30   112   113    1
    31   112   111   ar
    32    99    98    1
    33    95    94    1
    34    95    96    2
    35   132   135    1
    36    94    97    1
    37    94    93    1
    38   193   195   ar
    39   193   191   ar
    40    97    98    1
    41   109   111   ar
    42   190   191   ar
    43   190   188   ar
    44   135   136    1
    45   195   194   ar
    46   191   189   ar
    47   188   187   ar
    48   138   136   ar
    49   138   140   ar
    50   194   192   ar
    51   136   137   ar
    52   189   187   ar
    53   189   192   ar
    54   187   186    1
    55   140   141   ar
    56    89    90    1
    57    89    88    1
    58   206   207    1
    59   206   205    1
    60   137   139   ar
    61    86    85    1
    62    86    87    2
    63    91    90    1
    64    91    92    1
    65   186   183    1
    66   209   207   ar
    67    85    88    1
    68    85    84    1
    69   146   145    2
    70   143   144    1
    71   207   208   ar
    72   205   202    1
    73   141   139   ar
    74   141   142    1
    75   149   151   ar
    76   149   148   ar
    77   151   152   ar
    78   226   227    1
    79   226   225    1
    80   147   148    1
    81   147   144    1
    82   148   150   ar
    83   145   144    1
    84   152   150   ar
    85   183   184    1
    86   183   182    1
    87   227   228    2
    88   185   184    2
    89   202   201    1
    90   202   203    1
    91   225   224    1
    92   184   196   am
    93   224   221    1
    94   196   197    1
    95    38    37    1
    96   172   175    1
    97   172   173    1
    98   172   171    1
    99    22    21    2
   100   204   203    2
   101   175   176    1
   102    33    32    2
   103   228   229    1
   104   228   230    1
   105   221   220    1
   106   221   222    1
   107   197   200    1
   108   197   198    1
   109   173   174    2
   110   203   210   am
   111    37    36    1
   112    31    32    1
   113    31    34    1
   114    31    30    1
   115    35    34    1
   116    35    36    1
   117    26    25    1
   118    26    27    2
   119    24    25    1
   120    24    23    1
   121    21    30   am
   122    21    20    1
   123   223   222    2
   124   210   211    1
   125    63    62    1
   126   178   177    1
   127   178   179    2
   128   198   199    2
   129   176   177    1
   130   181   179    1
   131    29    27    1
   132   179   180    1
   133    27    28    1
   134    20    23    1
   135    20    19    1
   136   211   212    1
   137   211   214    1
   138    48    46   ar
   139    48    47   ar
   140    46    44   ar
   141   164   163    1
   142   164   165    2
   143   163   166    1
   144   163   162    1
   145   161   159   ar
   146    62    61    1
   147    62    64    1
   148   167   166    1
   149   167   168    1
   150   212   213    2
   151    47    45   ar
   152    42    41    2
   153   168   170   am
   154   168   169    2
   155   159   158    1
   156   159   160   ar
   157    44    45   ar
   158    44    43    1
   159   214   215    1
   160   158   157    1
   161    17    18    1
   162    17    16    1
   163    61    58    1
   164    43    40    1
   165    13    12    2
   166    40    41    1
   167    40    39    1
   168    41    49   am
   169   215   217   ar
   170   215   216   ar
   171    15    16    1
   172    15    14    1
   173   217   219   ar
   174   157   154    1
   175    57    58    1
   176    57    51   am
   177    58    59    1
   178    56    54    1
   179   154   155    1
   180   154   153    1
   181    12    11    1
   182   155   156    2
   183    80    79    1
   184    80    81    2
   185    82    81    1
   186    49    50    1
   187    78    79    1
   188    78    77    1
   189   216   218   ar
   190    11    14    1
   191    11    10    1
   192    50    51    1
   193    50    53    1
   194    72    70   ar
   195    59    60    2
   196    59    65   am
   197    69    70    1
   198    69    66    1
   199    70    71   ar
   200    81    83    1
   201   219   218   ar
   202    51    52    2
   203    65    66    1
   204    54    53    1
   205    66    67    1
   206    53    55    1
   207    74    77    1
   208    74    75    1
   209    74    73    1
   210    75    76    2
   211     9     8    1
   212     8     7    1
   213    67    68    2
   214     7     6    1
   215     6     5    1
   216     5     2    1
   217     2     1    1
   218     2     3    1
   219     3     4    2
