@<TRIPOS>MOLECULE
tmp/6ewzA01.pdb
 146 137 0 0 0
SMALL
GASTEIGER

@<TRIPOS>ATOM
      1  N         93.3910    6.2480   69.1010 N.3    48  GLU48      -0.1231
      2  CA        93.7400    7.4670   69.8240 C.3    48  GLU48       0.1699
      3  C         92.5140    8.3650   69.8000 C.2    48  GLU48       0.2592
      4  O         91.9220    8.5810   68.7360 O.2    48  GLU48      -0.2718
      5  CB        94.9280    8.2130   69.1900 C.3    48  GLU48       0.0402
      6  CG        96.0950    7.3470   68.7060 C.3    48  GLU48       0.1161
      7  CD        97.1170    8.1470   67.8790 C.2    48  GLU48       0.3649
      8  OE1       97.0790    9.3990   67.9370 O.co2  48  GLU48      -0.2457
      9  OE2       97.9520    7.5260   67.1720 O.co2  48  GLU48      -0.2457
     10  N         92.1710    8.9180   70.9550 N.am   49  ARG49      -0.1966
     11  CA        90.9990    9.7600   71.1390 C.3    49  ARG49       0.1729
     12  C         91.4570   11.1370   71.6060 C.2    49  ARG49       0.2616
     13  O         92.4070   11.2500   72.3770 O.2    49  ARG49      -0.2715
     14  CB        90.0440    9.1570   72.2210 C.3    49  ARG49       0.0348
     15  CG        89.3460    7.8280   71.8840 C.3    49  ARG49       0.0492
     16  CD        90.2110    6.5570   72.0070 C.3    49  ARG49       0.2205
     17  NE        90.8250    6.3840   73.3250 N.pl3  49  ARG49      -0.0865
     18  CZ        90.1890    5.9870   74.4310 C.cat  49  ARG49       0.5346
     19  NH1       88.8870    5.7260   74.3990 N.pl3  49  ARG49       0.1354
     20  NH2       90.8600    5.8660   75.5860 N.pl3  49  ARG49       0.1354
     21  N         90.7500   12.1830   71.1950 N.am   50  ARG50      -0.1977
     22  CA        91.0050   13.4890   71.7930 C.3    50  ARG50       0.1597
     23  C         89.7580   14.3340   71.6070 C.2    50  ARG50       0.2287
     24  O         89.1110   14.2690   70.5580 O.2    50  ARG50      -0.2864
     25  CB        92.2280   14.1910   71.1740 C.3    50  ARG50       0.0334
     26  CG        91.9860   14.7170   69.7110 C.3    50  ARG50       0.0492
     27  CD        91.6560   16.2160   69.6790 C.3    50  ARG50       0.2205
     28  NE        91.3800   16.7560   68.3310 N.pl3  50  ARG50      -0.0865
     29  CZ        90.1780   16.7370   67.7430 C.cat  50  ARG50       0.5346
     30  NH1       89.1370   16.1860   68.3580 N.pl3  50  ARG50       0.1354
     31  NH2       90.0070   17.2720   66.5360 N.pl3  50  ARG50       0.1354
     32  N         88.7060   18.1630   71.1690 N.3    52  LYS52      -0.1231
     33  CA        89.3290   19.4060   70.7320 C.3    52  LYS52       0.1693
     34  C         89.4780   20.3960   71.8870 C.2    52  LYS52       0.2591
     35  O         88.5300   20.6500   72.6310 O.2    52  LYS52      -0.2718
     36  CB        88.4710   19.9930   69.6120 C.3    52  LYS52       0.0285
     37  CG        89.1450   20.9340   68.6530 C.3    52  LYS52       0.0035
     38  CD        88.1680   21.1780   67.4500 C.3    52  LYS52       0.0206
     39  CE        88.9030   21.7470   66.2430 C.3    52  LYS52       0.1093
     40  NZ        89.7830   20.7310   65.5950 N.3    52  LYS52      -0.1314
     41  N         90.6830   20.9360   72.0550 N.am   53  GLU53      -0.1979
     42  CA        90.8940   21.9670   73.0670 C.3    53  GLU53       0.1602
     43  C         90.0750   23.2040   72.7230 C.2    53  GLU53       0.2287
     44  O         89.8520   23.5270   71.5460 O.2    53  GLU53      -0.2864
     45  CB        92.3780   22.3450   73.1610 C.3    53  GLU53       0.0415
     46  CG        93.2730   21.2830   73.7660 C.3    53  GLU53       0.1163
     47  CD        94.7330   21.7050   73.7890 C.2    53  GLU53       0.3649
     48  OE1       95.0270   22.8780   73.4730 O.co2  53  GLU53      -0.2457
     49  OE2       95.5930   20.8610   74.1120 O.co2  53  GLU53      -0.2457
     50  N         91.7610   25.6260   70.3130 N.3    56  SER56      -0.1217
     51  CA        91.7090   25.1380   68.9410 C.3    56  SER56       0.1889
     52  C         90.2960   25.2900   68.3640 C.2    56  SER56       0.2288
     53  O         90.1210   25.6450   67.1840 O.2    56  SER56      -0.2866
     54  CB        92.1860   23.6810   68.9300 C.3    56  SER56       0.2089
     55  OG        92.0580   23.0540   67.6740 O.3    56  SER56      -0.2183
     56  N         89.1440   27.6050   65.1370 N.3    60  LYS60      -0.1245
     57  CA        88.4620   27.0220   63.9800 C.3    60  LYS60       0.1561
     58  C         87.1820   27.7860   63.6720 C.2    60  LYS60       0.2260
     59  O         86.9090   28.1130   62.5130 O.2    60  LYS60      -0.2867
     60  CB        88.1590   25.5380   64.2260 C.3    60  LYS60       0.0271
     61  CG        87.6610   24.7630   62.9990 C.3    60  LYS60       0.0035
     62  CD        87.6770   23.2190   63.2070 C.3    60  LYS60       0.0206
     63  CE        87.1510   22.4730   61.9160 C.3    60  LYS60       0.1093
     64  NZ        87.4130   20.9930   61.9400 N.3    60  LYS60      -0.1314
     65  N         88.2120   30.9360   62.0520 N.3    63  ARG63      -0.1245
     66  CA        88.7000   30.6550   60.7040 C.3    63  ARG63       0.1563
     67  C         87.5470   30.5290   59.7170 C.2    63  ARG63       0.2260
     68  O         87.6660   30.9260   58.5530 O.2    63  ARG63      -0.2867
     69  CB        89.5130   29.3590   60.7190 C.3    63  ARG63       0.0307
     70  CG        90.5570   29.2540   59.6690 C.3    63  ARG63       0.0489
     71  CD        91.5030   28.0880   59.9410 C.3    63  ARG63       0.2205
     72  NE        90.8930   26.7890   59.6520 N.pl3  63  ARG63      -0.0865
     73  CZ        90.7350   25.8060   60.5310 C.cat  63  ARG63       0.5346
     74  NH1       91.1700   25.9470   61.7860 N.pl3  63  ARG63       0.1354
     75  NH2       90.1640   24.6640   60.1400 N.pl3  63  ARG63       0.1354
     76  N         84.3970   17.7650   64.3710 N.3    79  ASP79      -0.1239
     77  CA        85.5360   17.0470   64.9370 C.3    79  ASP79       0.1674
     78  C         85.8310   17.4600   66.3790 C.2    79  ASP79       0.2266
     79  O         86.9710   17.3560   66.8330 O.2    79  ASP79      -0.2867
     80  CB        86.7810   17.2450   64.0570 C.3    79  ASP79       0.1410
     81  CG        87.3270   18.6700   64.1210 C.2    79  ASP79       0.3668
     82  OD1       86.5030   19.6110   64.2280 O.co2  79  ASP79      -0.2456
     83  OD2       88.5640   18.8590   64.0300 O.co2  79  ASP79      -0.2456
     84  N         87.2170   13.5170   68.3520 N.3    82  GLY82      -0.1210
     85  CA        87.9260   12.8120   67.2980 C.3    82  GLY82       0.1956
     86  C         88.5170   11.4900   67.7590 C.2    82  GLY82       0.2612
     87  O         89.1290   11.4080   68.8320 O.2    82  GLY82      -0.2717
     88  N         88.3450   10.4410   66.9690 N.am   83  ILE83      -0.1965
     89  CA        89.0330    9.1870   67.2290 C.3    83  ILE83       0.1727
     90  C         89.8020    8.7840   65.9750 C.2    83  ILE83       0.2616
     91  O         89.3480    8.9970   64.8460 O.2    83  ILE83      -0.2715
     92  CB        88.0650    8.0770   67.6950 C.3    83  ILE83       0.0290
     93  CG1       88.8390    6.8240   68.1050 C.3    83  ILE83       0.0022
     94  CG2       87.0390    7.7310   66.6230 C.3    83  ILE83       0.0023
     95  CD1       88.0350    5.8910   69.0600 C.3    83  ILE83       0.0001
     96  N         91.0100    8.2760   66.1780 N.am   84  ARG84      -0.1977
     97  CA        91.8560    7.8010   65.0980 C.3    84  ARG84       0.1597
     98  C         92.0160    6.3050   65.3010 C.2    84  ARG84       0.2287
     99  O         92.4280    5.8560   66.3800 O.2    84  ARG84      -0.2864
    100  CB        93.2020    8.5310   65.0990 C.3    84  ARG84       0.0334
    101  CG        94.1380    8.2450   63.9220 C.3    84  ARG84       0.0492
    102  CD        95.3690    9.1610   64.0160 C.3    84  ARG84       0.2205
    103  NE        95.0300   10.5440   63.6850 N.pl3  84  ARG84      -0.0865
    104  CZ        95.6280   11.6060   64.2100 C.cat  84  ARG84       0.5346
    105  NH1       95.2640   12.8250   63.8330 N.pl3  84  ARG84       0.1354
    106  NH2       96.5720   11.4500   65.1290 N.pl3  84  ARG84       0.1354
    107  N         84.2060   12.4410   64.6910 N.3   146  GLU146     -0.1245
    108  CA        85.0450   12.3100   63.5020 C.3   146  GLU146      0.1567
    109  C         86.0240   11.1550   63.6820 C.2   146  GLU146      0.2260
    110  O         86.8790   11.1960   64.5760 O.2   146  GLU146     -0.2867
    111  CB        85.8260   13.5940   63.2090 C.3   146  GLU146      0.0388
    112  CG        86.6110   13.5190   61.8590 C.3   146  GLU146      0.1160
    113  CD        87.6930   14.5860   61.7100 C.2   146  GLU146      0.3649
    114  OE1       88.8120   14.4120   62.2550 O.co2 146  GLU146     -0.2457
    115  OE2       87.4120   15.6180   61.0670 O.co2 146  GLU146     -0.2457
    116  N         89.0500    9.1280   62.0210 N.3   148  GLN148     -0.1245
    117  CA        90.1010    9.0100   61.0170 C.3   148  GLN148      0.1566
    118  C         90.5910    7.5650   60.9940 C.2   148  GLN148      0.2260
    119  O         91.1590    7.0850   61.9780 O.2   148  GLN148     -0.2867
    120  CB        91.2580    9.9750   61.3180 C.3   148  GLN148      0.0367
    121  CG        90.8670   11.4690   61.2650 C.3   148  GLN148      0.0905
    122  CD        92.0080   12.4300   61.6440 C.2   148  GLN148      0.2608
    123  OE1       93.1320   12.0080   61.9250 O.2   148  GLN148     -0.2717
    124  NE2       91.7070   13.7330   61.6570 N.am  148  GLN148     -0.0878
    125  N        102.7080   16.3730   59.7700 N.3   162  HIS162     -0.1241
    126  CA       102.1530   17.2950   60.7540 C.3   162  HIS162      0.1621
    127  C        103.2550   18.0620   61.4660 C.2   162  HIS162      0.2264
    128  O        103.1960   19.2910   61.5950 O.2   162  HIS162     -0.2867
    129  CB       101.3180   16.4990   61.7620 C.3   162  HIS162      0.0745
    130  CG       100.7340   17.3240   62.8650 C.ar  162  HIS162      0.0817
    131  ND1      101.4770   17.7560   63.9430 N.ar  162  HIS162     -0.2268
    132  CD2       99.4740   17.7730   63.0710 C.ar  162  HIS162      0.1154
    133  CE1      100.7030   18.4480   64.7590 C.ar  162  HIS162      0.1986
    134  NE2       99.4840   18.4730   64.2520 N.ar  162  HIS162     -0.2212
    135  N        103.5850   22.1250   61.1650 N.3   166  TYR166     -0.1241
    136  CA       103.3880   22.9870   62.3210 C.3   166  TYR166      0.1605
    137  C        104.6860   23.6500   62.7660 C.2   166  TYR166      0.2264
    138  O        104.8830   23.8810   63.9650 O.2   166  TYR166     -0.2867
    139  CB       102.7770   22.1870   63.4740 C.3   166  TYR166      0.0534
    140  CG       101.2750   21.9970   63.3870 C.ar  166  TYR166     -0.0201
    141  CD1      100.6850   21.4830   62.2370 C.ar  166  TYR166     -0.0009
    142  CD2      100.4470   22.3250   64.4520 C.ar  166  TYR166     -0.0009
    143  CE1       99.3150   21.3010   62.1510 C.ar  166  TYR166      0.0417
    144  CE2       99.0720   22.1480   64.3750 C.ar  166  TYR166      0.0417
    145  CZ        98.5110   21.6360   63.2210 C.ar  166  TYR166      0.1957
    146  OH        97.1440   21.4560   63.1390 O.3   166  TYR166     -0.2866
@<TRIPOS>BOND
     1    68    67    2
     2    72    71    1
     3    72    73    2
     4    70    71    1
     5    70    69    1
     6    67    66    1
     7   125   126    1
     8    75    73    1
     9    73    74    1
    10    66    69    1
    11    66    65    1
    12   126   127    1
    13   126   129    1
    14   118   117    1
    15   118   119    2
    16   117   120    1
    17   117   116    1
    18   115   113   ar
    19   135   136    1
    20   121   120    1
    21   121   122    1
    22   127   128    2
    23   122   124   am
    24   122   123    2
    25   113   112    1
    26   113   114   ar
    27   129   130    1
    28   112   111    1
    29    63    64    1
    30    63    62    1
    31   143   141   ar
    32   143   145   ar
    33   141   140   ar
    34   136   137    1
    35   136   139    1
    36    59    58    2
    37   137   138    2
    38   130   132   ar
    39   130   131   ar
    40    61    62    1
    41    61    60    1
    42   132   134   ar
    43   146   145    1
    44   111   108    1
    45   145   144   ar
    46   140   139    1
    47   140   142   ar
    48   108   109    1
    49   108   107    1
    50    58    57    1
    51   109   110    2
    52   103   102    1
    53   103   104    2
    54   105   104    1
    55   101   102    1
    56   101   100    1
    57   131   133   ar
    58    57    60    1
    59    57    56    1
    60    83    81   ar
    61    80    81    1
    62    80    77    1
    63    81    82   ar
    64   104   106    1
    65   134   133   ar
    66    76    77    1
    67   144   142   ar
    68    91    90    2
    69    77    78    1
    70    97   100    1
    71    97    98    1
    72    97    96    1
    73    98    99    2
    74    40    39    1
    75    90    96   am
    76    90    89    1
    77    39    38    1
    78    78    79    2
    79    31    29    1
    80    94    92    1
    81    88    89    1
    82    88    86   am
    83     9     7   ar
    84    53    52    2
    85    89    92    1
    86    85    86    1
    87    85    84    1
    88    38    37    1
    89    55    54    1
    90    92    93    1
    91    29    28    2
    92    29    30    1
    93    86    87    2
    94     7     8   ar
    95     7     6    1
    96    93    95    1
    97    28    27    1
    98    52    51    1
    99    37    36    1
   100     6     5    1
   101     4     3    2
   102    54    51    1
   103    51    50    1
   104     1     2    1
   105     5     2    1
   106    36    33    1
   107    27    26    1
   108    26    25    1
   109     3     2    1
   110     3    10   am
   111    24    23    2
   112    33    32    1
   113    33    34    1
   114    10    11    1
   115    11    12    1
   116    11    14    1
   117    25    22    1
   118    21    12   am
   119    21    22    1
   120    44    43    2
   121    12    13    2
   122    23    22    1
   123    15    16    1
   124    15    14    1
   125    34    41   am
   126    34    35    2
   127    16    17    1
   128    41    42    1
   129    43    42    1
   130    42    45    1
   131    45    46    1
   132    17    18    2
   133    48    47   ar
   134    46    47    1
   135    47    49   ar
   136    19    18    1
   137    18    20    1
