@<TRIPOS>MOLECULE
tmp/6ex0B00.pdb
 219 204 0 0 0
SMALL
GASTEIGER

@<TRIPOS>ATOM
      1  N         82.1250  -10.4220   83.6810 N.3    47  ARG47      -0.1245
      2  CA        82.5040  -11.8140   83.7490 C.3    47  ARG47       0.1563
      3  C         81.6620  -12.5960   82.7600 C.2    47  ARG47       0.2260
      4  O         80.4620  -12.3480   82.6310 O.2    47  ARG47      -0.2867
      5  CB        82.2900  -12.3150   85.1770 C.3    47  ARG47       0.0307
      6  CG        82.5610  -13.7760   85.4090 C.3    47  ARG47       0.0489
      7  CD        82.3370  -14.1350   86.8900 C.3    47  ARG47       0.2205
      8  NE        80.9280  -14.0480   87.2970 N.pl3  47  ARG47      -0.0865
      9  CZ        80.3760  -13.0140   87.9350 C.cat  47  ARG47       0.5346
     10  NH1       81.1010  -11.9460   88.2590 N.pl3  47  ARG47       0.1354
     11  NH2       79.0880  -13.0510   88.2530 N.pl3  47  ARG47       0.1354
     12  N         80.5430  -16.5300   82.1700 N.3    49  LYS49      -0.1245
     13  CA        80.5040  -17.7320   82.9890 C.3    49  LYS49       0.1561
     14  C         81.5340  -18.7380   82.5120 C.2    49  LYS49       0.2260
     15  O         81.6200  -19.0340   81.3110 O.2    49  LYS49      -0.2867
     16  CB        79.1130  -18.3610   82.9630 C.3    49  LYS49       0.0271
     17  CG        78.3520  -18.2140   84.2580 C.3    49  LYS49       0.0035
     18  CD        77.2450  -19.2350   84.3550 C.3    49  LYS49       0.0206
     19  CE        76.7050  -19.3030   85.7650 C.3    49  LYS49       0.1093
     20  NZ        76.2790  -17.9660   86.2580 N.3    49  LYS49      -0.1314
     21  N         81.1750  -23.7340   85.2230 N.3    53  SER53      -0.1217
     22  CA        79.9490  -23.2790   85.8740 C.3    53  SER53       0.1889
     23  C         78.7210  -23.5170   84.9950 C.2    53  SER53       0.2288
     24  O         77.6370  -23.8290   85.5020 O.2    53  SER53      -0.2866
     25  CB        80.0870  -21.7980   86.2440 C.3    53  SER53       0.2089
     26  OG        79.2440  -21.4400   87.3260 O.3    53  SER53      -0.2183
     27  N         75.4470  -25.7650   85.8270 N.3    57  LYS57      -0.1245
     28  CA        74.1100  -25.1770   85.8260 C.3    57  LYS57       0.1561
     29  C         73.1710  -25.9490   84.9040 C.2    57  LYS57       0.2260
     30  O         72.0050  -26.1850   85.2450 O.2    57  LYS57      -0.2867
     31  CB        74.1650  -23.7030   85.4250 C.3    57  LYS57       0.0271
     32  CG        72.8570  -22.9780   85.7380 C.3    57  LYS57       0.0035
     33  CD        72.9430  -21.4660   85.5530 C.3    57  LYS57       0.0206
     34  CE        71.5500  -20.8340   85.6230 C.3    57  LYS57       0.1093
     35  NZ        71.5560  -19.3850   85.9680 N.3    57  LYS57      -0.1314
     36  N         72.1510  -29.0890   86.6220 N.3    60  ARG60      -0.1231
     37  CA        71.1950  -28.8620   87.7050 C.3    60  ARG60       0.1694
     38  C         69.7800  -28.6300   87.1860 C.2    60  ARG60       0.2591
     39  O         68.8140  -29.1400   87.7660 O.2    60  ARG60      -0.2718
     40  CB        71.6900  -27.7180   88.5960 C.3    60  ARG60       0.0321
     41  CG        70.6640  -27.0510   89.4920 C.3    60  ARG60       0.0489
     42  CD        71.3820  -26.2670   90.5750 C.3    60  ARG60       0.2205
     43  NE        72.5350  -25.5300   90.0550 N.pl3  60  ARG60      -0.0865
     44  CZ        72.5230  -24.2730   89.6280 C.cat  60  ARG60       0.5346
     45  NH1       71.3980  -23.5670   89.6420 N.pl3  60  ARG60       0.1354
     46  NH2       73.6470  -23.7270   89.1810 N.pl3  60  ARG60       0.1354
     47  N         69.6320  -27.9080   86.0830 N.am   61  LYS61      -0.1980
     48  CA        68.3130  -27.7090   85.5060 C.3    61  LYS61       0.1596
     49  C         67.9440  -28.8310   84.5440 C.2    61  LYS61       0.2287
     50  O         66.9720  -28.6960   83.7960 O.2    61  LYS61      -0.2864
     51  CB        68.2520  -26.3510   84.7950 C.3    61  LYS61       0.0298
     52  CG        67.5250  -25.2640   85.5860 C.3    61  LYS61       0.0038
     53  CD        68.4990  -24.5450   86.5240 C.3    61  LYS61       0.0206
     54  CE        67.8270  -23.4510   87.3460 C.3    61  LYS61       0.1093
     55  NZ        68.7680  -22.8090   88.3240 N.3    61  LYS61      -0.1314
     56  N         72.4400  -15.6940   82.5180 N.3    76  ASP76      -0.1239
     57  CA        73.5860  -15.0770   83.1680 C.3    76  ASP76       0.1674
     58  C         74.9110  -15.5890   82.6130 C.2    76  ASP76       0.2266
     59  O         75.9120  -15.6320   83.3320 O.2    76  ASP76      -0.2867
     60  CB        73.5020  -15.2560   84.6880 C.3    76  ASP76       0.1410
     61  CG        73.5860  -16.7110   85.1350 C.2    76  ASP76       0.3668
     62  OD1       73.7400  -17.6010   84.2680 O.co2  76  ASP76      -0.2456
     63  OD2       73.4540  -16.9580   86.3620 O.co2  76  ASP76      -0.2456
     64  N         78.4450   -6.3620   86.9370 N.3    81  ARG81      -0.1245
     65  CA        78.1270   -5.9360   88.2910 C.3    81  ARG81       0.1563
     66  C         78.4820   -4.4580   88.4170 C.2    81  ARG81       0.2260
     67  O         79.6460   -4.0750   88.2740 O.2    81  ARG81      -0.2867
     68  CB        78.8910   -6.7990   89.2880 C.3    81  ARG81       0.0307
     69  CG        78.5870   -6.5470   90.7430 C.3    81  ARG81       0.0489
     70  CD        79.3380   -7.5680   91.5850 C.3    81  ARG81       0.2205
     71  NE        78.6410   -8.8390   91.5850 N.pl3  81  ARG81      -0.0865
     72  CZ        79.2230  -10.0170   91.7710 C.cat  81  ARG81       0.5346
     73  NH1       80.5360  -10.0920   91.9360 N.pl3  81  ARG81       0.1354
     74  NH2       78.4840  -11.1230   91.7540 N.pl3  81  ARG81       0.1354
     75  N         64.1300   -9.8150   82.5240 N.3   107  LYS107     -0.1245
     76  CA        63.8980  -10.4020   83.8330 C.3   107  LYS107      0.1561
     77  C         64.3200   -9.4030   84.9020 C.2   107  LYS107      0.2260
     78  O         65.2120   -8.5800   84.6870 O.2   107  LYS107     -0.2867
     79  CB        64.6770  -11.7250   83.9330 C.3   107  LYS107      0.0271
     80  CG        64.2320  -12.7460   84.9560 C.3   107  LYS107      0.0035
     81  CD        65.2090  -13.9290   84.8870 C.3   107  LYS107      0.0206
     82  CE        66.4860  -13.5850   85.6790 C.3   107  LYS107      0.1093
     83  NZ        67.4510  -14.6970   85.9160 N.3   107  LYS107     -0.1314
     84  N         64.6440   -9.0980   89.3850 N.3   109  LYS109     -0.1245
     85  CA        64.5610   -9.6140   90.7540 C.3   109  LYS109      0.1561
     86  C         65.2590   -8.5990   91.6490 C.2   109  LYS109      0.2260
     87  O         66.4610   -8.3580   91.4880 O.2   109  LYS109     -0.2867
     88  CB        65.2390  -10.9890   90.8960 C.3   109  LYS109      0.0271
     89  CG        64.5620  -12.1930   90.2180 C.3   109  LYS109      0.0035
     90  CD        65.5480  -13.3830   90.1460 C.3   109  LYS109      0.0206
     91  CE        64.8860  -14.7140   89.7900 C.3   109  LYS109      0.1093
     92  NZ        64.0820  -15.3200   90.9310 N.3   109  LYS109     -0.1314
     93  N         66.4820   -7.7940   95.1290 N.3   111  TYR111     -0.1241
     94  CA        66.8050   -8.2540   96.4680 C.3   111  TYR111      0.1605
     95  C         67.0800   -7.1100   97.4330 C.2   111  TYR111      0.2264
     96  O         67.3940   -7.3620   98.6010 O.2   111  TYR111     -0.2867
     97  CB        67.9720   -9.2420   96.3950 C.3   111  TYR111      0.0534
     98  CG        67.5880  -10.4820   95.6110 C.ar  111  TYR111     -0.0201
     99  CD1       66.7320  -11.4160   96.1590 C.ar  111  TYR111     -0.0009
    100  CD2       68.0390  -10.6950   94.3180 C.ar  111  TYR111     -0.0009
    101  CE1       66.3690  -12.5350   95.4620 C.ar  111  TYR111      0.0417
    102  CE2       67.6700  -11.8170   93.6130 C.ar  111  TYR111      0.0417
    103  CZ        66.8370  -12.7310   94.1890 C.ar  111  TYR111      0.1957
    104  OH        66.4460  -13.8560   93.5000 O.3   111  TYR111     -0.2866
    105  N         67.3630  -11.4020  100.6620 N.3   116  LYS116     -0.1245
    106  CA        67.3290  -12.8410  100.8390 C.3   116  LYS116      0.1561
    107  C         67.3810  -13.2120  102.3180 C.2   116  LYS116      0.2260
    108  O         67.5350  -12.3630  103.2000 O.2   116  LYS116     -0.2867
    109  CB        68.4880  -13.4980  100.0950 C.3   116  LYS116      0.0271
    110  CG        68.4670  -13.3720   98.5910 C.3   116  LYS116      0.0035
    111  CD        69.2660  -14.5160   97.9910 C.3   116  LYS116      0.0206
    112  CE        69.1900  -14.5480   96.4800 C.3   116  LYS116      0.1093
    113  NZ        69.5800  -15.8890   95.9600 N.3   116  LYS116     -0.1314
    114  N         69.6390  -14.8140  104.0290 N.3   118  ASN118     -0.1240
    115  CA        70.9280  -14.6560  104.6840 C.3   118  ASN118      0.1653
    116  C         71.3790  -13.2080  104.8200 C.2   118  ASN118      0.2266
    117  O         72.4030  -12.9610  105.4650 O.2   118  ASN118     -0.2867
    118  CB        71.9710  -15.4590  103.9200 C.3   118  ASN118      0.1155
    119  CG        72.2110  -14.9280  102.5440 C.2   118  ASN118      0.2627
    120  OD1       71.5030  -14.0430  102.0640 O.2   118  ASN118     -0.2716
    121  ND2       73.1950  -15.4960  101.8740 N.am  118  ASN118     -0.0877
    122  N         71.4550  -11.0530  101.9240 N.3   120  TYR120     -0.1241
    123  CA        71.9030  -10.5560  100.6390 C.3   120  TYR120      0.1605
    124  C         70.9180   -9.5400  100.0610 C.2   120  TYR120      0.2264
    125  O         69.6980   -9.7370  100.0720 O.2   120  TYR120     -0.2867
    126  CB        72.0930  -11.7290   99.6870 C.3   120  TYR120      0.0534
    127  CG        72.4920  -11.3160   98.3090 C.ar  120  TYR120     -0.0201
    128  CD1       73.8120  -11.1100   97.9970 C.ar  120  TYR120     -0.0009
    129  CD2       71.5380  -11.1180   97.3160 C.ar  120  TYR120     -0.0009
    130  CE1       74.1870  -10.7300   96.7250 C.ar  120  TYR120      0.0417
    131  CE2       71.8980  -10.7360   96.0460 C.ar  120  TYR120      0.0417
    132  CZ        73.2310  -10.5410   95.7580 C.ar  120  TYR120      0.1957
    133  OH        73.6280  -10.1610   94.5080 O.3   120  TYR120     -0.2866
    134  N         68.8150   -7.2700   90.5640 N.3   124  HIS124     -0.1241
    135  CA        69.1860   -8.0860   89.4100 C.3   124  HIS124      0.1621
    136  C         68.1920   -7.8420   88.2830 C.2   124  HIS124      0.2264
    137  O         66.9810   -8.0290   88.4650 O.2   124  HIS124     -0.2867
    138  CB        69.2000   -9.5770   89.7480 C.3   124  HIS124      0.0745
    139  CG        70.2180   -9.9830   90.7710 C.ar  124  HIS124      0.0817
    140  ND1       70.6630  -11.2820   90.8920 N.ar  124  HIS124     -0.2268
    141  CD2       70.8540   -9.2800   91.7340 C.ar  124  HIS124      0.1154
    142  CE1       71.5380  -11.3590   91.8760 C.ar  124  HIS124      0.1986
    143  NE2       71.6710  -10.1580   92.4060 N.ar  124  HIS124     -0.2212
    144  N         73.1630  -10.3630   82.1950 N.3   143  GLU143     -0.1245
    145  CA        72.6200  -10.2080   83.5470 C.3   143  GLU143      0.1567
    146  C         73.3900   -9.1270   84.2810 C.2   143  GLU143      0.2260
    147  O         74.6240   -9.1630   84.3380 O.2   143  GLU143     -0.2867
    148  CB        72.6620  -11.4990   84.3720 C.3   143  GLU143      0.0388
    149  CG        72.1090  -11.3060   85.8060 C.3   143  GLU143      0.1160
    150  CD        72.3640  -12.4950   86.7640 C.2   143  GLU143      0.3649
    151  OE1       73.4610  -12.5470   87.3890 O.co2 143  GLU143     -0.2457
    152  OE2       71.4480  -13.3530   86.9140 O.co2 143  GLU143     -0.2457
    153  N         73.9620   -7.0380   87.8450 N.3   145  GLN145     -0.1245
    154  CA        73.7570   -6.9230   89.2760 C.3   145  GLN145      0.1566
    155  C         74.1210   -5.5030   89.6830 C.2   145  GLN145      0.2260
    156  O         75.2810   -5.0950   89.5300 O.2   145  GLN145     -0.2867
    157  CB        74.6080   -7.9570   90.0080 C.3   145  GLN145      0.0367
    158  CG        74.2930   -9.3620   89.5390 C.3   145  GLN145      0.0905
    159  CD        75.2180  -10.4110   90.0960 C.2   145  GLN145      0.2608
    160  OE1       76.0030  -10.1600   91.0210 O.2   145  GLN145     -0.2717
    161  NE2       75.1370  -11.6080   89.5270 N.am  145  GLN145     -0.0878
    162  N         74.3390   -2.7690   92.7770 N.3   147  ARG147     -0.1245
    163  CA        74.4260   -2.7500   94.2330 C.3   147  ARG147      0.1563
    164  C         75.2170   -1.5400   94.7380 C.2   147  ARG147      0.2260
    165  O         75.9820   -0.9080   93.9990 O.2   147  ARG147     -0.2867
    166  CB        75.0630   -4.0560   94.7390 C.3   147  ARG147      0.0307
    167  CG        76.3470   -4.3930   94.0240 C.3   147  ARG147      0.0489
    168  CD        77.0570   -5.6330   94.5560 C.3   147  ARG147      0.2205
    169  NE        76.2870   -6.8580   94.3700 N.pl3 147  ARG147     -0.0865
    170  CZ        76.7950   -8.0800   94.5120 C.cat 147  ARG147      0.5346
    171  NH1       78.0650   -8.2340   94.8230 N.pl3 147  ARG147      0.1354
    172  NH2       76.0370   -9.1540   94.3460 N.pl3 147  ARG147      0.1354
    173  N         78.5320   -8.8500  100.1130 N.3   155  ALA155     -0.1245
    174  CA        78.3670   -9.9510   99.1730 C.3   155  ALA155      0.1562
    175  C         79.6610  -10.7310   98.9890 C.2   155  ALA155      0.2260
    176  O         79.6920  -11.9570   99.1310 O.2   155  ALA155     -0.2867
    177  CB        77.8660   -9.4070   97.8370 C.3   155  ALA155      0.0290
    178  N         80.4550  -12.8770  102.0540 N.3   158  GLU158     -0.1231
    179  CA        79.5490  -14.0190  102.1390 C.3   158  GLU158      0.1699
    180  C         79.8700  -15.0490  101.0670 C.2   158  GLU158      0.2592
    181  O         79.7710  -16.2590  101.3130 O.2   158  GLU158     -0.2718
    182  CB        78.1030  -13.5400  102.0150 C.3   158  GLU158      0.0402
    183  CG        77.0110  -14.5750  102.2500 C.3   158  GLU158      0.1161
    184  CD        76.8450  -15.5420  101.0800 C.2   158  GLU158      0.3649
    185  OE1       77.2600  -15.1970   99.9630 O.co2 158  GLU158     -0.2457
    186  OE2       76.2590  -16.6320  101.2590 O.co2 158  GLU158     -0.2457
    187  N         80.2970  -14.5920   99.8880 N.am  159  HIS159     -0.1976
    188  CA        80.5990  -15.5280   98.8160 C.3   159  HIS159      0.1656
    189  C         81.8130  -16.3730   99.1640 C.2   159  HIS159      0.2291
    190  O         81.8310  -17.5870   98.9300 O.2   159  HIS159     -0.2864
    191  CB        80.8540  -14.7680   97.5250 C.3   159  HIS159      0.0771
    192  CG        80.8070  -15.6280   96.3020 C.ar  159  HIS159      0.0820
    193  ND1       79.6760  -15.7350   95.5170 N.ar  159  HIS159     -0.2267
    194  CD2       81.7360  -16.4370   95.7380 C.ar  159  HIS159      0.1154
    195  CE1       79.9170  -16.5590   94.5140 C.ar  159  HIS159      0.1986
    196  NE2       81.1570  -17.0030   94.6280 N.ar  159  HIS159     -0.2212
    197  N         80.4720  -19.2660  101.8600 N.3   162  ARG162     -0.1231
    198  CA        79.6420  -20.3240  101.2930 C.3   162  ARG162      0.1694
    199  C         80.2930  -20.9640  100.0770 C.2   162  ARG162      0.2592
    200  O         80.2640  -22.1930   99.9300 O.2   162  ARG162     -0.2718
    201  CB        78.2650  -19.7520  100.9450 C.3   162  ARG162      0.0321
    202  CG        77.8400  -19.8390   99.4770 C.3   162  ARG162      0.0489
    203  CD        76.6850  -18.8590   99.2770 C.3   162  ARG162      0.2205
    204  NE        76.0470  -18.8430   97.9560 N.pl3 162  ARG162     -0.0865
    205  CZ        76.5880  -18.3040   96.8620 C.cat 162  ARG162      0.5346
    206  NH1       77.7920  -17.7590   96.9300 N.pl3 162  ARG162      0.1354
    207  NH2       75.9320  -18.3050   95.7000 N.pl3 162  ARG162      0.1354
    208  N         80.9030  -20.1570   99.2100 N.am  163  TYR163     -0.1976
    209  CA        81.5360  -20.7050   98.0140 C.3   163  TYR163      0.1639
    210  C         83.0440  -20.8690   98.2090 C.2   163  TYR163      0.2290
    211  O         83.4910  -21.6010   99.0860 O.2   163  TYR163     -0.2864
    212  CB        81.2320  -19.8330   96.7910 C.3   163  TYR163      0.0560
    213  CG        81.6740  -20.4640   95.4920 C.ar  163  TYR163     -0.0198
    214  CD1       80.7600  -21.1630   94.7140 C.ar  163  TYR163     -0.0009
    215  CD2       83.0020  -20.4260   95.0720 C.ar  163  TYR163     -0.0009
    216  CE1       81.1360  -21.7770   93.5340 C.ar  163  TYR163      0.0417
    217  CE2       83.3930  -21.0340   93.8810 C.ar  163  TYR163      0.0417
    218  CZ        82.4530  -21.7160   93.1140 C.ar  163  TYR163      0.1957
    219  OH        82.8140  -22.3410   91.9290 O.3   163  TYR163     -0.2866
@<TRIPOS>BOND
     1    15    14    2
     2    12    13    1
     3   144   145    1
     4    14    13    1
     5    56    57    1
     6    75    76    1
     7    58    57    1
     8    58    59    2
     9     4     3    2
    10     3     2    1
    11    16    13    1
    12    16    17    1
    13    57    60    1
    14   145   146    1
    15   145   148    1
    16     1     2    1
    17     2     5    1
    18    50    49    2
    19    76    79    1
    20    76    77    1
    21    79    80    1
    22    17    18    1
    23    62    61   ar
    24   146   147    2
    25    18    19    1
    26   148   149    1
    27    49    48    1
    28    78    77    2
    29    60    61    1
    30    51    48    1
    31    51    52    1
    32    81    80    1
    33    81    82    1
    34    29    30    2
    35    29    28    1
    36    23    24    2
    37    23    22    1
    38    61    63   ar
    39     5     6    1
    40    21    22    1
    41     6     7    1
    42    31    32    1
    43    31    28    1
    44    48    47    1
    45    33    34    1
    46    33    32    1
    47    52    53    1
    48    34    35    1
    49    82    83    1
    50    19    20    1
    51   149   150    1
    52    28    27    1
    53    22    25    1
    54    47    38   am
    55    25    26    1
    56    53    54    1
    57    36    37    1
    58   150   152   ar
    59   150   151   ar
    60     7     8    1
    61    64    65    1
    62    38    37    1
    63    38    39    2
    64     8     9    2
    65    54    55    1
    66    37    40    1
    67   153   154    1
    68     9    11    1
    69     9    10    1
    70    67    66    2
    71   136   137    2
    72   136   135    1
    73    65    66    1
    74    65    68    1
    75    40    41    1
    76    46    44    1
    77   154   155    1
    78   154   157    1
    79    68    69    1
    80    84    85    1
    81   135   138    1
    82   135   134    1
    83    41    42    1
    84   161   159   am
    85   156   155    2
    86   158   157    1
    87   158   159    1
    88    44    45    1
    89    44    43    2
    90   138   139    1
    91    91    90    1
    92    91    92    1
    93    43    42    1
    94   159   160    2
    95    90    89    1
    96    89    88    1
    97    69    70    1
    98    85    88    1
    99    85    86    1
   100   139   140   ar
   101   139   141   ar
   102   140   142   ar
   103    87    86    2
   104    71    70    1
   105    71    72    2
   106   141   143   ar
   107    74    72    1
   108    72    73    1
   109   142   143   ar
   110   219   218    1
   111   162   163    1
   112   218   216   ar
   113   218   217   ar
   114   104   103    1
   115   216   214   ar
   116   102   103   ar
   117   102   100   ar
   118   217   215   ar
   119   165   164    2
   120   167   168    1
   121   167   166    1
   122   103   101   ar
   123   163   164    1
   124   163   166    1
   125   100    98   ar
   126   172   170    1
   127   169   170    2
   128   169   168    1
   129   133   132    1
   130   170   171    1
   131   195   196   ar
   132   195   193   ar
   133   196   194   ar
   134   214   213   ar
   135   215   213   ar
   136    93    94    1
   137   101    99   ar
   138   213   212    1
   139   193   192   ar
   140    98    99   ar
   141    98    97    1
   142   207   205    1
   143   194   192   ar
   144   132   131   ar
   145   132   130   ar
   146   113   112    1
   147   131   129   ar
   148   192   191    1
   149    97    94    1
   150    94    95    1
   151   112   111    1
   152   130   128   ar
   153   212   209    1
   154   205   206    1
   155   205   204    2
   156   129   127   ar
   157    95    96    2
   158   191   188    1
   159   177   174    1
   160   204   203    1
   161   111   110    1
   162   128   127   ar
   163   209   210    1
   164   209   208    1
   165   210   211    2
   166   127   126    1
   167   110   109    1
   168   188   189    1
   169   188   187    1
   170   190   189    2
   171   175   176    2
   172   175   174    1
   173   174   173    1
   174   208   199   am
   175   203   202    1
   176   202   201    1
   177   126   123    1
   178   187   180   am
   179   200   199    2
   180   185   184   ar
   181   124   125    2
   182   124   123    1
   183   199   198    1
   184   109   106    1
   185   123   122    1
   186   105   106    1
   187   106   107    1
   188   201   198    1
   189   180   181    2
   190   180   179    1
   191   184   186   ar
   192   184   183    1
   193   198   197    1
   194   121   119   am
   195   182   179    1
   196   182   183    1
   197   178   179    1
   198   120   119    2
   199   107   108    2
   200   119   118    1
   201   118   115    1
   202   114   115    1
   203   115   116    1
   204   116   117    2
