@<TRIPOS>MOLECULE
tmp/6ex1A00.pdb
 189 187 0 0 0
SMALL
GASTEIGER

@<TRIPOS>ATOM
      1  N         16.4240   45.4570    7.6220 N.3     2  TRP2       -0.1241
      2  CA        16.9610   45.8960    8.9130 C.3     2  TRP2        0.1605
      3  C         18.2830   45.2020    9.2270 C.2     2  TRP2        0.2264
      4  O         18.5920   44.1520    8.6590 O.2     2  TRP2       -0.2867
      5  CB        15.9490   45.6220   10.0300 C.3     2  TRP2        0.0550
      6  CG        15.7120   44.1550   10.2750 C.ar    2  TRP2        0.0003
      7  CD1       14.7860   43.3580    9.6590 C.ar    2  TRP2        0.0946
      8  CD2       16.4170   43.3120   11.2010 C.ar    2  TRP2        0.0152
      9  NE1       14.8710   42.0720   10.1440 N.ar    2  TRP2       -0.2442
     10  CE2       15.8620   42.0170   11.0920 C.ar    2  TRP2        0.0810
     11  CE3       17.4620   43.5280   12.1150 C.ar    2  TRP2        0.0012
     12  CZ2       16.3170   40.9370   11.8620 C.ar    2  TRP2        0.0191
     13  CZ3       17.9190   42.4480   12.8800 C.ar    2  TRP2        0.0001
     14  CH2       17.3440   41.1710   12.7450 C.ar    2  TRP2        0.0015
     15  N         22.3530   38.0420    9.9330 N.3    61  HIS61      -0.1241
     16  CA        22.6950   38.8370   11.1210 C.3    61  HIS61       0.1621
     17  C         23.1120   37.9640   12.3050 C.2    61  HIS61       0.2264
     18  O         23.5730   38.4710   13.3350 O.2    61  HIS61      -0.2867
     19  CB        21.5160   39.7310   11.5230 C.3    61  HIS61       0.0745
     20  CG        20.2470   38.9780   11.7830 C.ar   61  HIS61       0.0817
     21  ND1       19.9040   38.5010   13.0320 N.ar   61  HIS61      -0.2268
     22  CD2       19.2430   38.6100   10.9510 C.ar   61  HIS61       0.1154
     23  CE1       18.7410   37.8770   12.9580 C.ar   61  HIS61       0.1986
     24  NE2       18.3200   37.9280   11.7060 N.ar   61  HIS61      -0.2212
     25  N         20.9760   30.3890   13.6160 N.3    64  HIS64      -0.1241
     26  CA        20.0130   29.7110   14.4740 C.3    64  HIS64       0.1621
     27  C         20.1920   28.2030   14.3860 C.2    64  HIS64       0.2264
     28  O         20.5090   27.6650   13.3110 O.2    64  HIS64      -0.2867
     29  CB        18.5700   30.0430   14.0630 C.3    64  HIS64       0.0745
     30  CG        18.1840   31.4770   14.2600 C.ar   64  HIS64       0.0817
     31  ND1       17.0560   32.0240   13.6850 N.ar   64  HIS64      -0.2268
     32  CD2       18.7730   32.4790   14.9550 C.ar   64  HIS64       0.1154
     33  CE1       16.9620   33.2980   14.0270 C.ar   64  HIS64       0.1986
     34  NE2       17.9890   33.5980   14.8020 N.ar   64  HIS64      -0.2212
     35  N         11.7520   25.5520   19.9060 N.3    88  PHE88      -0.1227
     36  CA        11.9050   25.6340   18.4430 C.3    88  PHE88       0.1736
     37  C         13.2860   26.0430   17.9110 C.2    88  PHE88       0.2595
     38  O         13.6400   25.7090   16.7810 O.2    88  PHE88      -0.2718
     39  CB        10.7540   26.4160   17.7710 C.3    88  PHE88       0.0547
     40  CG        10.7360   27.8940   18.0630 C.ar   88  PHE88      -0.0202
     41  CD1       10.1810   28.3840   19.2510 C.ar   88  PHE88      -0.0042
     42  CD2       11.2200   28.8050   17.1240 C.ar   88  PHE88      -0.0042
     43  CE1       10.1410   29.7530   19.4940 C.ar   88  PHE88      -0.0003
     44  CE2       11.1870   30.1810   17.3640 C.ar   88  PHE88      -0.0003
     45  CZ        10.6470   30.6490   18.5550 C.ar   88  PHE88      -0.0000
     46  N         14.0540   26.7820   18.7090 N.am   89  GLN89      -0.1979
     47  CA        15.4140   27.1810   18.3090 C.3    89  GLN89       0.1601
     48  C         16.2260   27.7380   19.4620 C.2    89  GLN89       0.2287
     49  O         15.6780   28.1230   20.4990 O.2    89  GLN89      -0.2864
     50  CB        15.4310   28.1780   17.1300 C.3    89  GLN89       0.0394
     51  CG        14.6880   29.4910   17.3290 C.3    89  GLN89       0.0908
     52  CD        15.5860   30.6630   17.6900 C.2    89  GLN89       0.2608
     53  OE1       16.6420   30.4990   18.3030 O.2    89  GLN89      -0.2717
     54  NE2       15.1480   31.8630   17.3400 N.am   89  GLN89      -0.0878
     55  N         19.9360   30.4010   19.7730 N.3    91  HIS91      -0.1241
     56  CA        20.9050   31.2450   19.0650 C.3    91  HIS91       0.1621
     57  C         21.6430   32.1010   20.0860 C.2    91  HIS91       0.2264
     58  O         21.3540   32.0300   21.2910 O.2    91  HIS91      -0.2867
     59  CB        20.2020   32.1600   18.0590 C.3    91  HIS91       0.0745
     60  CG        19.2170   33.0970   18.6890 C.ar   91  HIS91       0.0817
     61  ND1       17.9110   32.7360   18.9520 N.ar   91  HIS91      -0.2268
     62  CD2       19.3530   34.3700   19.1310 C.ar   91  HIS91       0.1154
     63  CE1       17.2860   33.7510   19.5260 C.ar   91  HIS91       0.1986
     64  NE2       18.1390   34.7520   19.6460 N.ar   91  HIS91      -0.2212
     65  N         23.7170   36.0890   20.8880 N.3    93  HIS93      -0.1241
     66  CA        24.0680   37.4400   20.4940 C.3    93  HIS93       0.1621
     67  C         25.4670   37.7170   21.0210 C.2    93  HIS93       0.2264
     68  O         25.8730   37.1490   22.0410 O.2    93  HIS93      -0.2867
     69  CB        23.1030   38.4660   21.0820 C.3    93  HIS93       0.0745
     70  CG        21.6870   38.2900   20.6460 C.ar   93  HIS93       0.0817
     71  ND1       21.1030   39.0810   19.6800 N.ar   93  HIS93      -0.2268
     72  CD2       20.7340   37.4140   21.0430 C.ar   93  HIS93       0.1154
     73  CE1       19.8460   38.7090   19.5090 C.ar   93  HIS93       0.1986
     74  NE2       19.5940   37.7010   20.3260 N.ar   93  HIS93      -0.2212
     75  N         20.1520   32.6010   23.8520 N.3   116  HIS116     -0.1241
     76  CA        18.6770   32.5840   23.8570 C.3   116  HIS116      0.1621
     77  C         18.1120   31.2300   23.4170 C.2   116  HIS116      0.2264
     78  O         18.4290   30.7560   22.3350 O.2   116  HIS116     -0.2867
     79  CB        18.1330   33.6860   22.9510 C.3   116  HIS116      0.0745
     80  CG        18.3590   35.0660   23.4810 C.ar  116  HIS116      0.0817
     81  ND1       18.3180   36.1880   22.6810 N.ar  116  HIS116     -0.2268
     82  CD2       18.6270   35.5040   24.7360 C.ar  116  HIS116      0.1154
     83  CE1       18.5380   37.2600   23.4230 C.ar  116  HIS116      0.1986
     84  NE2       18.7440   36.8720   24.6690 N.ar  116  HIS116     -0.2212
     85  N         14.5300   29.5380   22.6590 N.3   118  ALA118     -0.1245
     86  CA        13.1810   30.0450   22.3750 C.3   118  ALA118      0.1562
     87  C         12.1380   28.9200   22.2690 C.2   118  ALA118      0.2260
     88  O         12.4290   27.8390   21.7460 O.2   118  ALA118     -0.2867
     89  CB        13.1970   30.8840   21.1020 C.3   118  ALA118      0.0290
     90  N          3.8850   27.9010   15.6570 N.3   128  LEU128     -0.1245
     91  CA         4.7640   29.0280   15.9400 C.3   128  LEU128      0.1561
     92  C          4.2470   30.3190   15.2970 C.2   128  LEU128      0.2260
     93  O          4.2340   31.3680   15.9380 O.2   128  LEU128     -0.2867
     94  CB         6.2060   28.7340   15.4810 C.3   128  LEU128      0.0270
     95  CG         7.1940   29.9140   15.4400 C.3   128  LEU128      0.0019
     96  CD1        7.4270   30.4960   16.8320 C.3   128  LEU128      0.0001
     97  CD2        8.5200   29.5250   14.7890 C.3   128  LEU128      0.0001
     98  N          3.4410   33.5620   17.6380 N.3   132  ALA132     -0.1245
     99  CA         4.5110   34.5700   17.5960 C.3   132  ALA132      0.1562
    100  C          4.1050   36.0000   17.9540 C.2   132  ALA132      0.2260
    101  O          4.9310   36.7720   18.4470 O.2   132  ALA132     -0.2867
    102  CB         5.2000   34.5550   16.2370 C.3   132  ALA132      0.0290
    103  N          5.2310   33.2910   23.3150 N.3   138  LEU138     -0.1245
    104  CA         6.6470   32.8960   23.3370 C.3   138  LEU138      0.1561
    105  C          7.2790   32.9160   24.7260 C.2   138  LEU138      0.2260
    106  O          6.8970   33.7170   25.5810 O.2   138  LEU138     -0.2867
    107  CB         7.4700   33.7760   22.3820 C.3   138  LEU138      0.0270
    108  CG         7.0130   33.9060   20.9240 C.3   138  LEU138      0.0019
    109  CD1        7.9130   34.8630   20.1570 C.3   138  LEU138      0.0001
    110  CD2        6.9540   32.5460   20.2330 C.3   138  LEU138      0.0001
    111  N         11.3820   32.7220   26.2160 N.3   140  VAL140     -0.1245
    112  CA        12.8070   32.6490   25.8990 C.3   140  VAL140      0.1561
    113  C         13.6420   32.6380   27.1790 C.2   140  VAL140      0.2260
    114  O         13.4940   33.5210   28.0240 O.2   140  VAL140     -0.2867
    115  CB        13.2710   33.8000   24.9700 C.3   140  VAL140      0.0252
    116  CG1       14.7380   33.6140   24.5820 C.3   140  VAL140      0.0019
    117  CG2       12.4260   33.8730   23.7080 C.3   140  VAL140      0.0019
    118  N         10.4770   40.3520   21.3280 N.3   195  LEU195     -0.1231
    119  CA        11.6040   39.9150   20.5040 C.3   195  LEU195      0.1693
    120  C         12.6090   41.0490   20.5100 C.2   195  LEU195      0.2593
    121  O         12.2150   42.2130   20.4880 O.2   195  LEU195     -0.2718
    122  CB        11.1650   39.6610   19.0580 C.3   195  LEU195      0.0284
    123  CG        10.0830   38.6130   18.7980 C.3   195  LEU195      0.0019
    124  CD1        9.7340   38.6060   17.3160 C.3   195  LEU195      0.0001
    125  CD2       10.5540   37.2470   19.2480 C.3   195  LEU195      0.0001
    126  N         13.8980   40.7260   20.5330 N.am  196  THR196     -0.1939
    127  CA        14.9230   41.7770   20.6070 C.3   196  THR196      0.2028
    128  C         15.3700   42.3120   19.2430 C.2   196  THR196      0.2642
    129  O         16.2310   43.1970   19.1600 O.2   196  THR196     -0.2714
    130  CB        16.1550   41.3250   21.4040 C.3   196  THR196      0.1808
    131  OG1       16.7580   40.2020   20.7500 O.3   196  THR196     -0.2208
    132  CG2       15.7750   40.9590   22.8390 C.3   196  THR196      0.0379
    133  N         14.7900   41.7750   18.1730 N.am  197  HIS197     -0.1959
    134  CA        14.9700   42.3510   16.8440 C.3   197  HIS197      0.1772
    135  C         13.6530   42.2830   16.0510 C.2   197  HIS197      0.2462
    136  O         12.7100   41.6260   16.5020 O.2   197  HIS197     -0.2730
    137  CB        16.1920   41.7700   16.1010 C.3   197  HIS197      0.0785
    138  CG        16.1180   40.3020   15.8100 C.ar  197  HIS197      0.0821
    139  ND1       15.1400   39.7440   15.0130 N.ar  197  HIS197     -0.2267
    140  CD2       16.9500   39.2870   16.1470 C.ar  197  HIS197      0.1154
    141  CE1       15.3460   38.4420   14.9090 C.ar  197  HIS197      0.1986
    142  NE2       16.4430   38.1390   15.5810 N.ar  197  HIS197     -0.2212
    143  N         13.5590   43.0020   14.9130 N.am  198  PRO198     -0.2716
    144  CA        12.3230   42.9550   14.1080 C.3   198  PRO198      0.1521
    145  C         11.8370   41.5120   13.8910 C.2   198  PRO198      0.2440
    146  O         12.6640   40.6240   13.6590 O.2   198  PRO198     -0.2731
    147  CB        12.7550   43.5970   12.7970 C.3   198  PRO198      0.0310
    148  CG        13.7440   44.6290   13.2440 C.3   198  PRO198      0.0237
    149  CD        14.5230   43.9730   14.3570 C.3   198  PRO198      0.0939
    150  N         10.5290   41.2640   13.9720 N.am  199  PRO199     -0.2727
    151  CA         9.4780   42.2970   14.0560 C.3   199  PRO199      0.1402
    152  C          9.1660   42.8520   15.4570 C.2   199  PRO199      0.2269
    153  O          8.2110   43.6280   15.6040 O.2   199  PRO199     -0.2865
    154  CB         8.2490   41.5640   13.5140 C.3   199  PRO199      0.0296
    155  CG         8.4790   40.1450   13.9300 C.3   199  PRO199      0.0237
    156  CD         9.9630   39.9090   13.8420 C.3   199  PRO199      0.0939
    157  N          7.8030   41.8250   18.2260 N.3   201  TYR201     -0.1241
    158  CA         6.5100   41.5330   18.8570 C.3   201  TYR201      0.1605
    159  C          6.6420   41.4350   20.3730 C.2   201  TYR201      0.2264
    160  O          7.5850   40.8260   20.8820 O.2   201  TYR201     -0.2867
    161  CB         5.9100   40.2120   18.3420 C.3   201  TYR201      0.0534
    162  CG         5.5580   40.1690   16.8670 C.ar  201  TYR201     -0.0201
    163  CD1        5.0910   41.3000   16.1970 C.ar  201  TYR201     -0.0009
    164  CD2        5.6630   38.9790   16.1480 C.ar  201  TYR201     -0.0009
    165  CE1        4.7680   41.2540   14.8470 C.ar  201  TYR201      0.0417
    166  CE2        5.3330   38.9180   14.8020 C.ar  201  TYR201      0.0417
    167  CZ         4.8890   40.0570   14.1530 C.ar  201  TYR201      0.1957
    168  OH         4.5640   39.9990   12.8110 O.3   201  TYR201     -0.2866
    169  N          6.9070   37.8720   24.3240 N.3   204  VAL204     -0.1245
    170  CA         7.8860   37.0370   25.0230 C.3   204  VAL204      0.1561
    171  C          7.8410   37.1920   26.5450 C.2   204  VAL204      0.2260
    172  O          7.9690   38.2960   27.0710 O.2   204  VAL204     -0.2867
    173  CB         9.3300   37.3320   24.5430 C.3   204  VAL204      0.0252
    174  CG1       10.3260   36.4110   25.2360 C.3   204  VAL204      0.0019
    175  CG2        9.4470   37.1800   23.0310 C.3   204  VAL204      0.0019
    176  N         10.2210   36.5250   29.3620 N.3   206  TRP206     -0.1241
    177  CA        11.6560   36.2950   29.5050 C.3   206  TRP206      0.1605
    178  C         11.9810   35.5570   30.7910 C.2   206  TRP206      0.2264
    179  O         11.3980   35.8380   31.8380 O.2   206  TRP206     -0.2867
    180  CB        12.4230   37.6160   29.4120 C.3   206  TRP206      0.0550
    181  CG        12.5730   38.0670   27.9910 C.ar  206  TRP206      0.0003
    182  CD1       11.7690   38.9430   27.3120 C.ar  206  TRP206      0.0946
    183  CD2       13.5700   37.6300   27.0550 C.ar  206  TRP206      0.0152
    184  NE1       12.2120   39.0860   26.0140 N.ar  206  TRP206     -0.2442
    185  CE2       13.3180   38.2960   25.8330 C.ar  206  TRP206      0.0810
    186  CE3       14.6620   36.7530   27.1360 C.ar  206  TRP206      0.0012
    187  CZ2       14.1120   38.1060   24.6980 C.ar  206  TRP206      0.0191
    188  CZ3       15.4550   36.5730   26.0040 C.ar  206  TRP206      0.0001
    189  CH2       15.1750   37.2470   24.8060 C.ar  206  TRP206      0.0015
@<TRIPOS>BOND
     1     1     2    1
     2     4     3    2
     3     2     3    1
     4     2     5    1
     5     7     9   ar
     6     7     6   ar
     7    15    16    1
     8     5     6    1
     9     9    10   ar
    10     6     8   ar
    11    22    24   ar
    12    22    20   ar
    13    10     8   ar
    14    10    12   ar
    15    16    19    1
    16    16    17    1
    17     8    11   ar
    18    19    20    1
    19    24    23   ar
    20    20    21   ar
    21    12    14   ar
    22    11    13   ar
    23    17    18    2
    24    14    13   ar
    25   147   148    1
    26   147   144    1
    27   168   167    1
    28    23    21   ar
    29   148   149    1
    30    28    27    2
    31   154   155    1
    32   154   151    1
    33    25    26    1
    34   146   145    2
    35    31    33   ar
    36    31    30   ar
    37   156   155    1
    38   156   150    1
    39   145   150   am
    40   145   144    1
    41   150   151    1
    42    33    34   ar
    43   151   152    1
    44    29    30    1
    45    29    26    1
    46   144   143    1
    47   167   166   ar
    48   167   165   ar
    49    30    32   ar
    50   149   143    1
    51    27    26    1
    52    97    95    1
    53   166   164   ar
    54    34    32   ar
    55   165   163   ar
    56   141   139   ar
    57   141   142   ar
    58   143   135   am
    59   139   138   ar
    60    92    93    2
    61    92    91    1
    62    95    94    1
    63    95    96    1
    64   152   153    2
    65    94    91    1
    66   142   140   ar
    67    90    91    1
    68   138   137    1
    69   138   140   ar
    70   135   136    2
    71   135   134    1
    72   137   134    1
    73   164   162   ar
    74   163   162   ar
    75   102    99    1
    76    38    37    2
    77   134   133    1
    78   162   161    1
    79    42    44   ar
    80    42    40   ar
    81    50    51    1
    82    50    47    1
    83   124   123    1
    84    51    52    1
    85    54    52   am
    86    44    45   ar
    87    99    98    1
    88    99   100    1
    89    52    53    2
    90    39    40    1
    91    39    36    1
    92    37    36    1
    93    37    46   am
    94   100   101    2
    95    59    60    1
    96    59    56    1
    97    40    41   ar
    98   133   128   am
    99   157   158    1
   100    47    46    1
   101    47    48    1
   102   161   158    1
   103    36    35    1
   104    45    43   ar
   105    60    61   ar
   106    60    62   ar
   107   123   122    1
   108   123   125    1
   109   158   159    1
   110    61    63   ar
   111   122   119    1
   112    56    55    1
   113    56    57    1
   114    62    64   ar
   115   129   128    2
   116   128   127    1
   117    41    43   ar
   118    48    49    2
   119    73    71   ar
   120    73    74   ar
   121    63    64   ar
   122    71    70   ar
   123    57    58    2
   124   109   108    1
   125   110   108    1
   126    74    72   ar
   127   159   160    2
   128   121   120    2
   129    66    65    1
   130    66    67    1
   131    66    69    1
   132   119   120    1
   133   119   118    1
   134   120   126   am
   135   126   127    1
   136   127   130    1
   137    70    72   ar
   138    70    69    1
   139   131   130    1
   140   108   107    1
   141    67    68    2
   142    89    86    1
   143   130   132    1
   144    88    87    2
   145    87    86    1
   146    78    77    2
   147    86    85    1
   148   107   104    1
   149    81    83   ar
   150    81    80   ar
   151    79    80    1
   152    79    76    1
   153   175   173    1
   154   103   104    1
   155   104   105    1
   156    77    76    1
   157    83    84   ar
   158    80    82   ar
   159   117   115    1
   160    75    76    1
   161   169   170    1
   162   173   170    1
   163   173   174    1
   164   116   115    1
   165    84    82   ar
   166   187   189   ar
   167   187   185   ar
   168   105   106    2
   169   189   188   ar
   170   115   112    1
   171   170   171    1
   172   185   184   ar
   173   185   183   ar
   174   112   111    1
   175   112   113    1
   176   188   186   ar
   177   184   182   ar
   178   171   172    2
   179   183   186   ar
   180   183   181   ar
   181   113   114    2
   182   182   181   ar
   183   181   180    1
   184   176   177    1
   185   180   177    1
   186   177   178    1
   187   178   179    2
