@<TRIPOS>MOLECULE
tmp/6ex7A00.pdb
 105 100 0 0 0
SMALL
GASTEIGER

@<TRIPOS>ATOM
      1  N          3.7950   17.0330   -4.9360 N.3    37  MET37      -0.1245
      2  CA         2.9750   16.4860   -3.8510 C.3    37  MET37       0.1570
      3  C          1.5600   16.2810   -4.4000 C.2    37  MET37       0.2261
      4  O          0.7920   17.2460   -4.4570 O.2    37  MET37      -0.2867
      5  CB         2.9410   17.4910   -2.6840 C.3    37  MET37       0.0387
      6  CG         2.9060   16.8830   -1.2940 C.3    37  MET37       0.0595
      7  SD         4.5470   16.7250   -0.5530 S.3    37  MET37      -0.1393
      8  CE         4.9430   18.4280   -0.1510 C.3    37  MET37       0.0692
      9  N         -1.6990   18.2880   -3.9600 N.3    40  PHE40      -0.1241
     10  CA        -1.2130   19.6510   -3.6910 C.3    40  PHE40       0.1605
     11  C         -0.5170   20.3530   -4.8710 C.2    40  PHE40       0.2264
     12  O         -0.5460   21.5800   -4.9530 O.2    40  PHE40      -0.2867
     13  CB        -0.2520   19.6340   -2.4820 C.3    40  PHE40       0.0534
     14  CG        -0.8860   19.2710   -1.1280 C.ar   40  PHE40      -0.0203
     15  CD1       -2.2400   19.4490   -0.9320 C.ar   40  PHE40      -0.0042
     16  CD2       -0.0560   18.8170   -0.1060 C.ar   40  PHE40      -0.0042
     17  CE1       -2.7490   19.1560    0.3160 C.ar   40  PHE40      -0.0003
     18  CE2       -0.5780   18.5330    1.1330 C.ar   40  PHE40      -0.0003
     19  CZ        -1.9370   18.7120    1.3280 C.ar   40  PHE40      -0.0000
     20  N          6.0140   21.7970   -5.1500 N.3    43  VAL43      -0.1245
     21  CA         6.4060   22.6160   -4.0040 C.3    43  VAL43       0.1561
     22  C          7.9050   22.8840   -4.0590 C.2    43  VAL43       0.2260
     23  O          8.7150   21.9530   -4.1770 O.2    43  VAL43      -0.2867
     24  CB         6.0390   21.9410   -2.6540 C.3    43  VAL43       0.0252
     25  CG1        6.2820   22.8820   -1.4820 C.3    43  VAL43       0.0019
     26  CG2        4.5740   21.5040   -2.6490 C.3    43  VAL43       0.0019
     27  N         15.1430   18.0150   -2.0140 N.3    63  TRP63      -0.1241
     28  CA        14.1490   16.9940   -1.6640 C.3    63  TRP63       0.1605
     29  C         14.6280   15.5430   -1.8410 C.2    63  TRP63       0.2264
     30  O         14.2210   14.6810   -1.0800 O.2    63  TRP63      -0.2867
     31  CB        12.8720   17.1590   -2.5150 C.3    63  TRP63       0.0550
     32  CG        12.0500   18.4080   -2.3690 C.ar   63  TRP63       0.0003
     33  CD1       12.1440   19.5400   -3.1250 C.ar   63  TRP63       0.0946
     34  CD2       10.9320   18.6040   -1.5000 C.ar   63  TRP63       0.0152
     35  NE1       11.1840   20.4420   -2.7480 N.ar   63  TRP63      -0.2442
     36  CE2       10.4430   19.8960   -1.7320 C.ar   63  TRP63       0.0810
     37  CE3       10.3100   17.8160   -0.5300 C.ar   63  TRP63       0.0012
     38  CZ2        9.3550   20.4020   -1.0620 C.ar   63  TRP63       0.0191
     39  CZ3        9.2260   18.3490    0.1590 C.ar   63  TRP63       0.0001
     40  CH2        8.7750   19.6230   -0.1040 C.ar   63  TRP63       0.0015
     41  N         13.2190   16.9970    8.0640 N.3    92  HIS92      -0.1241
     42  CA        12.1110   16.8000    7.1140 C.3    92  HIS92       0.1621
     43  C         12.7130   16.6220    5.7280 C.2    92  HIS92       0.2264
     44  O         13.8360   17.0420    5.4730 O.2    92  HIS92      -0.2867
     45  CB        11.1670   18.0150    7.1010 C.3    92  HIS92       0.0745
     46  CG        10.1160   18.0200    8.1710 C.ar   92  HIS92       0.0817
     47  ND1        9.3670   19.1450    8.4600 N.ar   92  HIS92      -0.2268
     48  CD2        9.7010   17.0600    9.0290 C.ar   92  HIS92       0.1154
     49  CE1        8.5170   18.8530    9.4300 C.ar   92  HIS92       0.1986
     50  NE2        8.7100   17.6010    9.8040 N.ar   92  HIS92      -0.2212
     51  N         12.2730   18.1060    2.8960 N.3    94  ASP94      -0.1239
     52  CA        12.6930   19.3170    2.1800 C.3    94  ASP94       0.1674
     53  C         14.0990   19.7570    2.5800 C.2    94  ASP94       0.2266
     54  O         14.7950   20.3680    1.7740 O.2    94  ASP94      -0.2867
     55  CB        11.6580   20.4950    2.1710 C.3    94  ASP94       0.1410
     56  CG        11.0190   20.8560    3.5450 C.2    94  ASP94       0.3668
     57  OD1       11.2550   20.1690    4.5510 O.co2  94  ASP94      -0.2456
     58  OD2       10.2320   21.8770    3.6100 O.co2  94  ASP94      -0.2456
     59  N          8.1440   25.4150   14.1130 N.3   159  HIS159     -0.1241
     60  CA         7.7550   24.5900   13.0050 C.3   159  HIS159      0.1621
     61  C          7.9370   23.1300   13.3410 C.2   159  HIS159      0.2264
     62  O          7.0940   22.3180   13.0340 O.2   159  HIS159     -0.2867
     63  CB         8.5610   24.9510   11.7510 C.3   159  HIS159      0.0745
     64  CG         8.3650   24.0060   10.6110 C.ar  159  HIS159      0.0817
     65  ND1        7.1780   23.9140    9.9210 N.ar  159  HIS159     -0.2268
     66  CD2        9.2000   23.1020   10.0460 C.ar  159  HIS159      0.1154
     67  CE1        7.3010   23.0270    8.9500 C.ar  159  HIS159      0.1986
     68  NE2        8.5200   22.5220    8.9930 N.ar  159  HIS159     -0.2212
     69  N         11.9400   26.4990    7.4390 N.3   178  CYS178     -0.1235
     70  CA        10.4860   26.3870    7.5080 C.3   178  CYS178      0.1677
     71  C          9.8290   27.1360    8.7000 C.2   178  CYS178      0.2270
     72  O          8.5960   27.1850    8.7850 O.2   178  CYS178     -0.2867
     73  CB        10.1140   24.9160    7.5830 C.3   178  CYS178      0.0956
     74  SG        10.7380   23.9450    6.1910 S.3   178  CYS178     -0.0801
     75  N          7.5940   32.2640    7.6900 N.3   181  LYS181     -0.1245
     76  CA         6.7580   32.4110    6.4960 C.3   181  LYS181      0.1561
     77  C          6.8690   33.8460    5.9990 C.2   181  LYS181      0.2260
     78  O          7.2140   34.7510    6.7670 O.2   181  LYS181     -0.2867
     79  CB         5.2880   32.1100    6.8250 C.3   181  LYS181      0.0271
     80  CG         4.8910   30.6710    6.5440 C.3   181  LYS181      0.0035
     81  CD         5.6800   29.6430    7.3290 C.3   181  LYS181      0.0206
     82  CE         5.7090   28.3060    6.5930 C.3   181  LYS181      0.1093
     83  NZ         6.1080   27.1850    7.4810 N.3   181  LYS181     -0.1314
     84  N          1.5710   27.2750    7.1540 N.3   189  GLY189     -0.1210
     85  CA         1.8790   26.1300    6.3310 C.3   189  GLY189      0.1956
     86  C          1.6750   24.8900    7.1510 C.2   189  GLY189      0.2611
     87  O          0.6850   24.7680    7.8900 O.2   189  GLY189     -0.2717
     88  N          2.6530   24.0000    7.0790 N.am  190  ASN190     -0.1974
     89  CA         2.5080   22.7140    7.6900 C.3   190  ASN190      0.1688
     90  C          2.8060   22.8180    9.1830 C.2   190  ASN190      0.2292
     91  O          3.9620   22.9740    9.5850 O.2   190  ASN190     -0.2864
     92  CB         3.4380   21.7210    7.0260 C.3   190  ASN190      0.1181
     93  CG         3.3000   20.3420    7.6020 C.2   190  ASN190      0.2629
     94  OD1        2.2620   19.9870    8.1900 O.2   190  ASN190     -0.2716
     95  ND2        4.3450   19.5370    7.4300 N.am  190  ASN190     -0.0877
     96  N         10.0240   28.2040    1.5200 N.3   220  HIS220     -0.1241
     97  CA         9.0100   28.1710    0.4720 C.3   220  HIS220      0.1621
     98  C          8.5370   29.5410   -0.0060 C.2   220  HIS220      0.2264
     99  O          7.3620   29.7280   -0.3560 O.2   220  HIS220     -0.2867
    100  CB         7.8070   27.4020    0.9630 C.3   220  HIS220      0.0745
    101  CG         8.1740   26.1750    1.6910 C.ar  220  HIS220      0.0817
    102  ND1        8.7420   25.0910    1.0650 N.ar  220  HIS220     -0.2268
    103  CD2        8.1210   25.8820    3.0010 C.ar  220  HIS220      0.1154
    104  CE1        8.9730   24.1560    1.9580 C.ar  220  HIS220      0.1986
    105  NE2        8.6040   24.6180    3.1380 N.ar  220  HIS220     -0.2212
@<TRIPOS>BOND
     1    20    21    1
     2    12    11    2
     3     1     2    1
     4    11    10    1
     5     4     3    2
     6     3     2    1
     7    23    22    2
     8    22    21    1
     9    21    24    1
    10     9    10    1
    11     2     5    1
    12    10    13    1
    13    33    35   ar
    14    33    32   ar
    15    35    36   ar
    16     5     6    1
    17    24    26    1
    18    24    25    1
    19    31    32    1
    20    31    28    1
    21    13    14    1
    22    32    34   ar
    23    27    28    1
    24    29    28    1
    25    29    30    2
    26    36    34   ar
    27    36    38   ar
    28    34    37   ar
    29     6     7    1
    30    14    15   ar
    31    14    16   ar
    32    38    40   ar
    33    15    17   ar
    34     7     8    1
    35    37    39   ar
    36    99    98    2
    37    16    18   ar
    38    40    39   ar
    39    98    97    1
    40    17    19   ar
    41    97   100    1
    42    97    96    1
    43   100   101    1
    44   102   101   ar
    45   102   104   ar
    46    18    19   ar
    47   101   103   ar
    48    54    53    2
    49   104   105   ar
    50    55    52    1
    51    55    56    1
    52    52    53    1
    53    52    51    1
    54   103   105   ar
    55    56    58   ar
    56    56    57   ar
    57    44    43    2
    58    43    42    1
    59    77    76    1
    60    77    78    2
    61    74    73    1
    62    85    86    1
    63    85    84    1
    64    76    79    1
    65    76    75    1
    66    80    79    1
    67    80    81    1
    68    82    81    1
    69    82    83    1
    70    92    93    1
    71    92    89    1
    72    88    86   am
    73    88    89    1
    74    45    42    1
    75    45    46    1
    76    42    41    1
    77    86    87    2
    78    95    93   am
    79    69    70    1
    80    70    73    1
    81    70    71    1
    82    93    94    2
    83    89    90    1
    84    46    47   ar
    85    46    48   ar
    86    47    49   ar
    87    71    72    2
    88    67    68   ar
    89    67    65   ar
    90    68    66   ar
    91    48    50   ar
    92    90    91    2
    93    49    50   ar
    94    65    64   ar
    95    66    64   ar
    96    64    63    1
    97    63    60    1
    98    60    61    1
    99    60    59    1
   100    62    61    2
