@<TRIPOS>MOLECULE
tmp/6ex8A00.pdb
 142 137 0 0 0
SMALL
GASTEIGER

@<TRIPOS>ATOM
      1  N         -0.2290    5.5010  -10.1840 N.3    19  GLN19      -0.1245
      2  CA        -1.4920    4.9370  -10.6330 C.3    19  GLN19       0.1566
      3  C         -2.0140    5.6870  -11.8730 C.2    19  GLN19       0.2260
      4  O         -2.8700    5.1480  -12.5870 O.2    19  GLN19      -0.2867
      5  CB        -2.5550    5.0060   -9.5610 C.3    19  GLN19       0.0367
      6  CG        -2.9950    6.3890   -9.1350 C.3    19  GLN19       0.0905
      7  CD        -3.8840    6.3390   -7.9100 C.2    19  GLN19       0.2608
      8  OE1       -3.4190    6.2190   -6.7320 O.2    19  GLN19      -0.2717
      9  NE2       -5.1570    6.4590   -8.1650 N.am   19  GLN19      -0.0878
     10  N         -8.6070    5.0980  -11.0520 N.3    23  GLY23      -0.1210
     11  CA        -8.8550    5.0280   -9.6380 C.3    23  GLY23       0.1956
     12  C         -8.4630    3.6760   -9.0160 C.2    23  GLY23       0.2612
     13  O         -9.3210    2.9290   -8.5710 O.2    23  GLY23      -0.2717
     14  N         -7.1740    3.3760   -9.0620 N.am   24  SER24      -0.1952
     15  CA        -6.6650    2.0830   -8.7120 C.3    24  SER24       0.1924
     16  C         -5.8010    2.1630   -7.4480 C.2    24  SER24       0.2314
     17  O         -5.0060    1.2480   -7.2010 O.2    24  SER24      -0.2863
     18  CB        -5.8210    1.5230   -9.8940 C.3    24  SER24       0.2116
     19  OG        -4.9020    2.5340  -10.2630 O.3    24  SER24      -0.2180
     20  N         -6.5700    1.4350   -4.5420 N.3    25  TRP25      -0.1241
     21  CA        -6.8610    0.2250   -3.7830 C.3    25  TRP25       0.1605
     22  C         -5.9740   -0.9460   -4.1820 C.2    25  TRP25       0.2264
     23  O         -5.5160   -1.7700   -3.3460 O.2    25  TRP25      -0.2867
     24  CB        -8.3170   -0.1740   -3.9270 C.3    25  TRP25       0.0550
     25  CG        -8.7090   -0.3990   -5.3480 C.ar   25  TRP25       0.0003
     26  CD1       -9.1070    0.5480   -6.2320 C.ar   25  TRP25       0.0946
     27  CD2       -8.7100   -1.6440   -6.0450 C.ar   25  TRP25       0.0152
     28  NE1       -9.3520   -0.0360   -7.4420 N.ar   25  TRP25      -0.2442
     29  CE2       -9.1220   -1.3800   -7.3590 C.ar   25  TRP25       0.0810
     30  CE3       -8.4220   -2.9880   -5.6820 C.ar   25  TRP25       0.0012
     31  CZ2       -9.2390   -2.3910   -8.3170 C.ar   25  TRP25       0.0191
     32  CZ3       -8.5930   -3.9720   -6.6390 C.ar   25  TRP25       0.0001
     33  CH2       -8.9940   -3.6620   -7.9490 C.ar   25  TRP25       0.0015
     34  N        -14.5020   -8.6100   -8.0570 N.3    58  ILE58      -0.1231
     35  CA       -15.2040   -8.0740   -6.9370 C.3    58  ILE58       0.1692
     36  C        -15.1540   -6.5470   -6.9730 C.2    58  ILE58       0.2592
     37  O        -16.1960   -5.8220   -6.8100 O.2    58  ILE58      -0.2718
     38  CB       -14.6620   -8.5770   -5.6140 C.3    58  ILE58       0.0266
     39  CG1      -14.6020  -10.1170   -5.5690 C.3    58  ILE58       0.0019
     40  CG2      -15.5330   -8.0860   -4.4560 C.3    58  ILE58       0.0020
     41  CD1      -13.9000  -10.5620   -4.3080 C.3    58  ILE58       0.0001
     42  N        -13.9720   -6.0410   -7.1830 N.am   59  ASP59      -0.1960
     43  CA       -13.6840   -4.6100   -7.2970 C.3    59  ASP59       0.1840
     44  C        -14.0380   -4.0790   -8.7270 C.2    59  ASP59       0.2622
     45  O        -14.5850   -4.8350   -9.5410 O.2    59  ASP59      -0.2715
     46  CB       -12.2660   -4.3200   -6.9070 C.3    59  ASP59       0.1450
     47  CG       -12.0190   -4.6230   -5.4570 C.2    59  ASP59       0.3671
     48  OD1      -12.7640   -3.9880   -4.6310 O.co2  59  ASP59      -0.2456
     49  OD2      -11.2610   -5.6200   -5.1280 O.co2  59  ASP59      -0.2456
     50  N        -13.8210   -2.7730   -8.9610 N.am   60  PHE60      -0.1974
     51  CA       -14.3800   -2.0850  -10.1550 C.3    60  PHE60       0.1639
     52  C        -13.3050   -1.4710  -11.0600 C.2    60  PHE60       0.2290
     53  O        -13.5160   -0.4940  -11.7960 O.2    60  PHE60      -0.2864
     54  CB       -15.4290   -1.0680   -9.6850 C.3    60  PHE60       0.0560
     55  CG       -16.5690   -1.7310   -8.9560 C.ar   60  PHE60      -0.0200
     56  CD1      -17.6750   -2.1690   -9.6160 C.ar   60  PHE60      -0.0042
     57  CD2      -16.5440   -1.9020   -7.5700 C.ar   60  PHE60      -0.0042
     58  CE1      -18.7750   -2.7240   -8.9880 C.ar   60  PHE60      -0.0003
     59  CE2      -17.6040   -2.5690   -6.9330 C.ar   60  PHE60      -0.0003
     60  CZ       -18.6880   -2.9630   -7.6250 C.ar   60  PHE60      -0.0000
     61  N        -10.5620    0.6570  -12.6540 N.3    62  CYS62      -0.1221
     62  CA       -10.2610    2.0560  -12.4600 C.3    62  CYS62       0.1808
     63  C        -11.4350    2.8230  -11.8280 C.2    62  CYS62       0.2602
     64  O        -11.2710    3.9680  -11.3790 O.2    62  CYS62      -0.2717
     65  CB        -9.9020    2.7820  -13.8040 C.3    62  CYS62       0.0970
     66  SG        -8.3520    2.2760  -14.5170 S.3    62  CYS62      -0.0800
     67  N        -12.5860    2.2120  -11.6680 N.am   63  GLY63      -0.1942
     68  CA       -13.6680    2.8770  -10.9430 C.3    63  GLY63       0.2014
     69  C        -13.5720    2.7820   -9.4230 C.2    63  GLY63       0.2639
     70  O        -14.3230    3.4020   -8.7220 O.2    63  GLY63      -0.2714
     71  N        -12.6400    1.9740   -8.9100 N.am   64  GLY64      -0.1939
     72  CA       -12.3360    1.9160   -7.5180 C.3    64  GLY64       0.2014
     73  C        -12.4460    0.5450   -6.9340 C.2    64  GLY64       0.2639
     74  O        -12.8140   -0.4220   -7.6040 O.2    64  GLY64      -0.2714
     75  N        -12.1270    0.4420   -5.6550 N.am   65  GLY65      -0.1939
     76  CA       -12.1410   -0.8580   -4.9810 C.3    65  GLY65       0.2014
     77  C        -11.7370   -0.8100   -3.5340 C.2    65  GLY65       0.2639
     78  O        -11.5420    0.2670   -2.9700 O.2    65  GLY65      -0.2714
     79  N        -11.6510   -1.9940   -2.9060 N.am   66  LEU66      -0.1963
     80  CA       -11.2510   -2.1120   -1.5260 C.3    66  LEU66       0.1728
     81  C        -10.1770   -3.1520   -1.3730 C.2    66  LEU66       0.2616
     82  O        -10.2600   -4.2340   -1.9650 O.2    66  LEU66      -0.2715
     83  CB       -12.3840   -2.5000   -0.6380 C.3    66  LEU66       0.0311
     84  CG       -13.5270   -1.5400   -0.5030 C.3    66  LEU66       0.0022
     85  CD1      -14.6210   -2.2210    0.2740 C.3    66  LEU66       0.0001
     86  CD2      -13.0620   -0.2580    0.1900 C.3    66  LEU66       0.0001
     87  N         -9.2090   -2.8740   -0.5020 N.am   67  MET67      -0.1977
     88  CA        -8.0680   -3.8170   -0.3290 C.3    67  MET67       0.1605
     89  C         -8.5730   -5.1800    0.1730 C.2    67  MET67       0.2287
     90  O         -8.1150   -6.2170   -0.3100 O.2    67  MET67      -0.2864
     91  CB        -7.0270   -3.2100    0.5750 C.3    67  MET67       0.0413
     92  CG        -6.3130   -1.9880   -0.0190 C.3    67  MET67       0.0598
     93  SD        -7.2040   -0.3860    0.1430 S.3    67  MET67      -0.1393
     94  CE        -6.9450   -0.0430    1.9130 C.3    67  MET67       0.0692
     95  N        -11.3750   -6.5850   -0.5080 N.3    69  ASN69      -0.1240
     96  CA       -11.9620   -7.2910   -1.6190 C.3    69  ASN69       0.1653
     97  C        -10.8710   -7.8900   -2.4870 C.2    69  ASN69       0.2266
     98  O        -11.0060   -9.0460   -2.9390 O.2    69  ASN69      -0.2867
     99  CB       -12.8210   -6.4250   -2.5250 C.3    69  ASN69       0.1155
    100  CG       -14.1280   -5.9860   -1.8960 C.2    69  ASN69       0.2627
    101  OD1      -14.6750   -6.6600   -0.9970 O.2    69  ASN69      -0.2716
    102  ND2      -14.7290   -4.9470   -2.4920 N.am   69  ASN69      -0.0877
    103  N         -6.2910    2.8770    4.7400 N.3   137  ALA137     -0.1245
    104  CA        -7.0930    3.8930    4.0540 C.3   137  ALA137      0.1562
    105  C         -6.9710    5.1500    4.8270 C.2   137  ALA137      0.2260
    106  O         -6.8640    5.0850    6.0860 O.2   137  ALA137     -0.2867
    107  CB        -8.5310    3.4950    3.9570 C.3   137  ALA137      0.0290
    108  N        -12.8940    8.5270    4.8600 N.3   159  LEU159     -0.1231
    109  CA       -11.8850    7.7420    4.1400 C.3   159  LEU159      0.1693
    110  C        -12.1590    7.8100    2.6430 C.2   159  LEU159      0.2592
    111  O        -13.3100    7.6930    2.2150 O.2   159  LEU159     -0.2718
    112  CB       -11.9830    6.3320    4.5960 C.3   159  LEU159      0.0284
    113  CG       -11.5460    6.0440    6.0290 C.3   159  LEU159      0.0019
    114  CD1      -11.8240    4.6010    6.2990 C.3   159  LEU159      0.0001
    115  CD2      -10.1170    6.4200    6.2430 C.3   159  LEU159      0.0001
    116  N        -11.1080    7.9290    1.8480 N.am  160  ASP160     -0.1960
    117  CA       -11.2810    7.9240    0.4090 C.3   160  ASP160      0.1840
    118  C        -10.0620    7.4810   -0.4310 C.2   160  ASP160      0.2622
    119  O        -10.1340    7.5060   -1.6880 O.2   160  ASP160     -0.2715
    120  CB       -11.7740    9.3140   -0.0760 C.3   160  ASP160      0.1450
    121  CG       -10.7220   10.4370    0.0640 C.2   160  ASP160      0.3671
    122  OD1       -9.5570   10.2380    0.4590 O.co2 160  ASP160     -0.2456
    123  OD2      -11.0770   11.6010   -0.2730 O.co2 160  ASP160     -0.2456
    124  N         -9.0100    7.0070    0.2100 N.am  161  HIS161     -0.1959
    125  CA        -7.8170    6.6880   -0.5400 C.3   161  HIS161      0.1787
    126  C         -7.0500    5.5800    0.1470 C.2   161  HIS161      0.2620
    127  O         -6.8690    5.6550    1.3660 O.2   161  HIS161     -0.2715
    128  CB        -6.9840    7.9630   -0.5420 C.3   161  HIS161      0.0785
    129  CG        -5.7420    7.9010   -1.3530 C.ar  161  HIS161      0.0821
    130  ND1       -5.7140    7.3710   -2.6150 N.ar  161  HIS161     -0.2267
    131  CD2       -4.4890    8.3350   -1.1110 C.ar  161  HIS161      0.1154
    132  CE1       -4.4820    7.3850   -3.0820 C.ar  161  HIS161      0.1986
    133  NE2       -3.7230    8.0030   -2.2080 N.ar  161  HIS161     -0.2212
    134  N         -6.6030    4.5710   -0.6010 N.am  162  GLY162     -0.1954
    135  CA        -5.7750    3.5040   -0.0960 C.3   162  GLY162      0.1869
    136  C         -4.3060    3.7890   -0.3140 C.2   162  GLY162      0.2309
    137  O         -3.9580    4.2330   -1.4030 O.2   162  GLY162     -0.2863
    138  N         -9.1730    1.5200    8.8260 N.3   207  ALA207     -0.1245
    139  CA        -9.3110    0.3910    7.8780 C.3   207  ALA207      0.1562
    140  C         -7.9430   -0.1290    7.4490 C.2   207  ALA207      0.2260
    141  O         -7.5100   -0.0520    6.2470 O.2   207  ALA207     -0.2867
    142  CB       -10.1290    0.8240    6.6690 C.3   207  ALA207      0.0290
@<TRIPOS>BOND
     1    66    65    1
     2    65    62    1
     3    61    62    1
     4     4     3    2
     5    62    63    1
     6     3     2    1
     7    63    67   am
     8    63    64    2
     9    53    52    2
    10    67    68    1
    11    52    51    1
    12    10    11    1
    13    68    69    1
    14     2     1    1
    15     2     5    1
    16    19    18    1
    17    51    54    1
    18    51    50    1
    19    18    15    1
    20    54    55    1
    21    11    12    1
    22    56    58   ar
    23    56    55   ar
    24     5     6    1
    25    45    44    2
    26    69    71   am
    27    69    70    2
    28     6     7    1
    29    14    12   am
    30    14    15    1
    31    12    13    2
    32    58    60   ar
    33    50    44   am
    34    55    57   ar
    35    71    72    1
    36    44    43    1
    37    15    16    1
    38    31    33   ar
    39    31    29   ar
    40     9     7   am
    41    34    35    1
    42    33    32   ar
    43     7     8    2
    44    60    59   ar
    45    74    73    2
    46    57    59   ar
    47    72    73    1
    48    16    17    2
    49    28    29   ar
    50    28    26   ar
    51    29    27   ar
    52    43    42    1
    53    43    46    1
    54    42    36   am
    55    36    35    1
    56    36    37    2
    57    35    38    1
    58    73    75   am
    59    46    47    1
    60    32    30   ar
    61    26    25   ar
    62    27    30   ar
    63    27    25   ar
    64    75    76    1
    65    38    39    1
    66    38    40    1
    67    39    41    1
    68    47    49   ar
    69    47    48   ar
    70    25    24    1
    71    76    77    1
    72    20    21    1
    73    22    21    1
    74    22    23    2
    75    24    21    1
    76    77    78    2
    77    77    79   am
    78   132   130   ar
    79   132   133   ar
    80    98    97    2
    81    79    80    1
    82   130   129   ar
    83    99   100    1
    84    99    96    1
    85   102   100   am
    86    97    96    1
    87   133   131   ar
    88    82    81    2
    89   100   101    2
    90   119   118    2
    91    96    95    1
    92    80    81    1
    93    80    83    1
    94   137   136    2
    95    81    87   am
    96   129   131   ar
    97   129   128    1
    98    83    84    1
    99   134   135    1
   100   134   126   am
   101   128   125    1
   102   125   126    1
   103   125   124    1
   104    84    86    1
   105    84    85    1
   106    87    88    1
   107   118   124   am
   108   118   117    1
   109    88    89    1
   110    88    91    1
   111   136   135    1
   112    90    89    2
   113   123   121   ar
   114   120   121    1
   115   120   117    1
   116    92    93    1
   117    92    91    1
   118   121   122   ar
   119    93    94    1
   120   126   127    2
   121   117   116    1
   122   116   110   am
   123   111   110    2
   124   110   109    1
   125   107   104    1
   126   104   103    1
   127   104   105    1
   128   109   112    1
   129   109   108    1
   130   112   113    1
   131   105   106    2
   132   113   115    1
   133   113   114    1
   134   141   140    2
   135   142   139    1
   136   140   139    1
   137   139   138    1
