@<TRIPOS>MOLECULE
tmp/6exeB00.pdb
 83 82 0 0 0
SMALL
GASTEIGER

@<TRIPOS>ATOM
      1  N          1.0270  -36.6970   17.8200 N.3    60  GLU60      -0.1245
      2  CA         1.9620  -37.6940   17.3300 C.3    60  GLU60       0.1567
      3  C          1.2090  -39.0190   17.1970 C.2    60  GLU60       0.2260
      4  O          1.5660  -39.8050   16.3640 O.2    60  GLU60      -0.2867
      5  CB         3.1870  -37.8400   18.2640 C.3    60  GLU60       0.0388
      6  CG         3.5410  -36.6010   19.1120 C.3    60  GLU60       0.1160
      7  CD         2.7340  -36.4740   20.4270 C.2    60  GLU60       0.3649
      8  OE1        2.2260  -35.3630   20.7140 O.co2  60  GLU60      -0.2457
      9  OE2        2.6080  -37.4680   21.1830 O.co2  60  GLU60      -0.2457
     10  N         -2.0450  -39.2370   16.2440 N.3    62  CYS62      -0.1221
     11  CA        -3.0250  -39.0970   15.1650 C.3    62  CYS62       0.1808
     12  C         -2.6450  -39.9390   13.9600 C.2    62  CYS62       0.2602
     13  O         -1.4720  -40.3000   13.8040 O.2    62  CYS62      -0.2717
     14  CB        -3.1140  -37.6170   14.7310 C.3    62  CYS62       0.0970
     15  SG        -4.0720  -36.5970   15.8790 S.3    62  CYS62      -0.0800
     16  N         -3.6250  -40.2090   13.0880 N.am   63  SER63      -0.1938
     17  CA        -3.3600  -40.7660   11.7150 C.3    63  SER63       0.2040
     18  C         -2.4340  -39.8150   10.9750 C.2    63  SER63       0.2485
     19  O         -2.4350  -38.6170   11.2440 O.2    63  SER63      -0.2729
     20  CB        -4.6600  -40.9490   10.8740 C.3    63  SER63       0.2129
     21  OG        -5.1060  -39.7110   10.3050 O.3    63  SER63      -0.2179
     22  N         -1.6560  -40.3320   10.0180 N.am   64  PRO64      -0.2726
     23  CA        -0.8630  -39.4710    9.1580 C.3    64  PRO64       0.1402
     24  C         -1.6170  -38.3310    8.4640 C.2    64  PRO64       0.2269
     25  O         -1.1710  -37.1840    8.4510 O.2    64  PRO64      -0.2865
     26  CB        -0.3280  -40.4630    8.1270 C.3    64  PRO64       0.0296
     27  CG        -0.1200  -41.6990    8.9020 C.3    64  PRO64       0.0237
     28  CD        -1.3350  -41.7600    9.7940 C.3    64  PRO64       0.0939
     29  N         -2.9560  -35.8730   11.1310 N.3    67  TYR67      -0.1241
     30  CA        -1.7360  -35.1550   11.5130 C.3    67  TYR67       0.1605
     31  C         -1.4440  -34.0500   10.5180 C.2    67  TYR67       0.2264
     32  O         -1.4070  -32.8600   10.8640 O.2    67  TYR67      -0.2867
     33  CB        -0.5660  -36.1610   11.6320 C.3    67  TYR67       0.0534
     34  CG         0.7640  -35.5680   12.1040 C.ar   67  TYR67      -0.0201
     35  CD1        1.5360  -34.7800   11.2650 C.ar   67  TYR67      -0.0009
     36  CD2        1.2440  -35.8180   13.3820 C.ar   67  TYR67      -0.0009
     37  CE1        2.7380  -34.2580   11.6660 C.ar   67  TYR67       0.0417
     38  CE2        2.4490  -35.2900   13.8130 C.ar   67  TYR67       0.0417
     39  CZ         3.2000  -34.5140   12.9530 C.ar   67  TYR67       0.1957
     40  OH         4.4180  -33.9860   13.3530 O.3    67  TYR67      -0.2866
     41  N          1.6530  -40.4870   -0.7530 N.3   100  PRO100     -0.2102
     42  CA         2.3200  -39.3060   -0.2440 C.3   100  PRO100      0.1504
     43  C          2.9730  -39.5780    1.1220 C.2   100  PRO100      0.2576
     44  O          2.5870  -40.5290    1.8540 O.2   100  PRO100     -0.2718
     45  CB         1.1570  -38.3260   -0.0960 C.3   100  PRO100      0.0282
     46  CG         0.0910  -39.1910    0.4630 C.3   100  PRO100      0.0208
     47  CD         0.3480  -40.6020   -0.0620 C.3   100  PRO100      0.0893
     48  N          3.9910  -38.7690    1.4150 N.am  101  ASP101     -0.1960
     49  CA         4.4990  -38.6400    2.7530 C.3   101  ASP101      0.1840
     50  C          3.7630  -37.4270    3.2760 C.2   101  ASP101      0.2622
     51  O          3.8000  -36.2970    2.7270 O.2   101  ASP101     -0.2715
     52  CB         6.0320  -38.4660    2.8310 C.3   101  ASP101      0.1450
     53  CG         6.6710  -39.3620    3.8650 C.2   101  ASP101      0.3671
     54  OD1        6.0740  -40.3880    4.2200 O.co2 101  ASP101     -0.2456
     55  OD2        7.7930  -39.0570    4.3130 O.co2 101  ASP101     -0.2456
     56  N          3.0260  -37.7370    4.3250 N.am  102  PHE102     -0.1960
     57  CA         2.4810  -36.7580    5.2310 C.3   102  PHE102      0.1771
     58  C          3.5720  -36.1360    6.1220 C.2   102  PHE102      0.2620
     59  O          3.4000  -35.0360    6.6400 O.2   102  PHE102     -0.2715
     60  CB         1.3910  -37.4460    6.0060 C.3   102  PHE102      0.0574
     61  CG         0.2720  -37.9270    5.1370 C.ar  102  PHE102     -0.0200
     62  CD1       -0.6290  -37.0310    4.6050 C.ar  102  PHE102     -0.0042
     63  CD2        0.0890  -39.2780    4.8840 C.ar  102  PHE102     -0.0042
     64  CE1       -1.6950  -37.4630    3.8350 C.ar  102  PHE102     -0.0003
     65  CE2       -0.9710  -39.7180    4.0980 C.ar  102  PHE102     -0.0003
     66  CZ        -1.8700  -38.8030    3.5800 C.ar  102  PHE102     -0.0000
     67  N          4.7400  -36.7850    6.1890 N.am  103  SER103     -0.1950
     68  CA         5.8940  -36.2940    6.9660 C.3   103  SER103      0.1924
     69  C          6.2960  -34.8790    6.6200 C.2   103  SER103      0.2314
     70  O          6.8760  -34.1750    7.4270 O.2   103  SER103     -0.2863
     71  CB         7.0910  -37.2550    6.8000 C.3   103  SER103      0.2116
     72  OG         7.7200  -37.1030    5.5290 O.3   103  SER103     -0.2180
     73  N          5.4050  -32.4980    9.6250 N.3   106  ARG106     -0.1245
     74  CA         6.1370  -32.5660   10.8890 C.3   106  ARG106      0.1563
     75  C          6.7990  -31.2610   11.3050 C.2   106  ARG106      0.2260
     76  O          6.6330  -30.8310   12.4340 O.2   106  ARG106     -0.2867
     77  CB         7.1410  -33.7060   10.8450 C.3   106  ARG106      0.0307
     78  CG         6.5240  -35.0530   11.1240 C.3   106  ARG106      0.0489
     79  CD         7.0200  -36.1720   10.2290 C.3   106  ARG106      0.2205
     80  NE         8.0700  -37.0050   10.7960 N.pl3 106  ARG106     -0.0865
     81  CZ         8.2400  -38.3070   10.5340 C.cat 106  ARG106      0.5346
     82  NH1        7.4150  -38.9660    9.7270 N.pl3 106  ARG106      0.1354
     83  NH2        9.2460  -38.9770   11.1030 N.pl3 106  ARG106      0.1354
@<TRIPOS>BOND
     1    41    42    1
     2    41    47    1
     3    42    45    1
     4    42    43    1
     5    45    46    1
     6    47    46    1
     7    43    48   am
     8    43    44    2
     9    48    49    1
    10    51    50    2
    11    49    52    1
    12    49    50    1
    13    52    53    1
    14    50    56   am
    15    66    64   ar
    16    66    65   ar
    17    64    62   ar
    18    53    54   ar
    19    53    55   ar
    20    65    63   ar
    21    56    57    1
    22    62    61   ar
    23    63    61   ar
    24    61    60    1
    25    57    60    1
    26    57    58    1
    27    72    71    1
    28    58    67   am
    29    58    59    2
    30    67    68    1
    31    69    68    1
    32    69    70    2
    33    71    68    1
    34    26    27    1
    35    26    23    1
    36    25    24    2
    37    24    23    1
    38    27    28    1
    39    23    22    1
    40    73    74    1
    41    82    81    1
    42    28    22    1
    43    22    18   am
    44    79    80    1
    45    79    78    1
    46    21    20    1
    47    31    32    2
    48    31    30    1
    49    81    80    2
    50    81    83    1
    51    77    74    1
    52    77    78    1
    53    20    17    1
    54    74    75    1
    55    18    19    2
    56    18    17    1
    57    29    30    1
    58    35    37   ar
    59    35    34   ar
    60    75    76    2
    61    30    33    1
    62    33    34    1
    63    37    39   ar
    64    17    16    1
    65    34    36   ar
    66    39    40    1
    67    39    38   ar
    68    16    12   am
    69    36    38   ar
    70    13    12    2
    71    12    11    1
    72    14    11    1
    73    14    15    1
    74    11    10    1
    75     4     3    2
    76     3     2    1
    77     2     1    1
    78     2     5    1
    79     5     6    1
    80     6     7    1
    81     7     8   ar
    82     7     9   ar
