@<TRIPOS>MOLECULE
tmp/6exfC00.pdb
 137 129 0 0 0
SMALL
GASTEIGER

@<TRIPOS>ATOM
      1  N        -15.2140   22.7540    6.9500 N.3    99  TRP99      -0.1241
      2  CA       -14.9100   23.8590    6.0410 C.3    99  TRP99       0.1605
      3  C        -16.1480   24.6030    5.5640 C.2    99  TRP99       0.2264
      4  O        -16.0660   25.7870    5.2090 O.2    99  TRP99      -0.2867
      5  CB       -14.0440   23.4130    4.8500 C.3    99  TRP99       0.0550
      6  CG       -14.6540   22.3810    3.9450 C.ar   99  TRP99       0.0003
      7  CD1      -14.3900   21.0430    3.9420 C.ar   99  TRP99       0.0946
      8  CD2      -15.5390   22.6180    2.8330 C.ar   99  TRP99       0.0152
      9  NE1      -15.0940   20.4210    2.9340 N.ar   99  TRP99      -0.2442
     10  CE2      -15.8260   21.3600    2.2530 C.ar   99  TRP99       0.0810
     11  CE3      -16.1560   23.7660    2.3000 C.ar   99  TRP99       0.0012
     12  CZ2      -16.6890   21.2180    1.1580 C.ar   99  TRP99       0.0191
     13  CZ3      -17.0230   23.6210    1.2270 C.ar   99  TRP99       0.0001
     14  CH2      -17.2710   22.3620    0.6590 C.ar   99  TRP99       0.0015
     15  N        -12.1340   20.2910   -6.6160 N.3   131  GLN131     -0.1231
     16  CA       -12.0210   20.5750   -5.1800 C.3   131  GLN131      0.1698
     17  C        -13.2300   21.4090   -4.7220 C.2   131  GLN131      0.2592
     18  O        -13.3060   22.6210   -5.0040 O.2   131  GLN131     -0.2718
     19  CB       -10.7010   21.3170   -4.8660 C.3   131  GLN131      0.0381
     20  CG        -9.4380   20.5410   -5.2300 C.3   131  GLN131      0.0905
     21  CD        -8.3960   20.5650   -4.1340 C.2   131  GLN131      0.2608
     22  OE1       -8.6470   20.1860   -2.9820 O.2   131  GLN131     -0.2717
     23  NE2       -7.1870   20.9790   -4.4760 N.am  131  GLN131     -0.0878
     24  N        -14.1880   20.7400   -4.0260 N.am  132  ARG132     -0.1980
     25  CA       -15.3980   21.3480   -3.4400 C.3   132  ARG132      0.1597
     26  C        -16.3150   22.0330   -4.4910 C.2   132  ARG132      0.2287
     27  O        -17.0160   23.0040   -4.1550 O.2   132  ARG132     -0.2864
     28  CB       -15.0160   22.3460   -2.3140 C.3   132  ARG132      0.0334
     29  CG       -14.0120   21.7980   -1.3080 C.3   132  ARG132      0.0492
     30  CD       -13.6310   22.8480   -0.2980 C.3   132  ARG132      0.2205
     31  NE       -12.6890   22.3190    0.6910 N.pl3 132  ARG132     -0.0865
     32  CZ       -12.1790   23.0210    1.6980 C.cat 132  ARG132      0.5346
     33  NH1      -12.5370   24.2880    1.8850 N.pl3 132  ARG132      0.1354
     34  NH2      -11.3200   22.4580    2.5370 N.pl3 132  ARG132      0.1354
     35  N         -9.2390   25.0210    5.4870 N.3   141  VAL141     -0.1245
     36  CA        -8.8580   23.6210    5.6780 C.3   141  VAL141      0.1561
     37  C         -8.9610   23.3900    7.1870 C.2   141  VAL141      0.2260
     38  O         -8.1680   23.9210    7.9750 O.2   141  VAL141     -0.2867
     39  CB        -7.4730   23.2810    5.0620 C.3   141  VAL141      0.0252
     40  CG1       -7.0920   21.8210    5.3090 C.3   141  VAL141      0.0019
     41  CG2       -7.4650   23.5850    3.5550 C.3   141  VAL141      0.0019
     42  N         -7.9290   10.2540    4.2600 N.3   151  GLN151     -0.1231
     43  CA        -6.7210   10.7530    3.6020 C.3   151  GLN151      0.1698
     44  C         -7.0180   12.0520    2.8140 C.2   151  GLN151      0.2593
     45  O         -6.8270   12.1180    1.5920 O.2   151  GLN151     -0.2718
     46  CB        -6.0770    9.6500    2.7360 C.3   151  GLN151      0.0381
     47  CG        -4.6040    9.8990    2.4140 C.3   151  GLN151      0.0905
     48  CD        -3.6310    9.7110    3.5630 C.2   151  GLN151      0.2608
     49  OE1       -3.9080    9.0540    4.5770 O.2   151  GLN151     -0.2717
     50  NE2       -2.4450   10.2610    3.4000 N.am  151  GLN151     -0.0878
     51  N         -7.5000   13.0850    3.5420 N.am  152  THR152     -0.1939
     52  CA        -7.8360   14.4050    2.9890 C.3   152  THR152      0.2028
     53  C         -7.4890   15.5470    3.9890 C.2   152  THR152      0.2643
     54  O         -7.1320   15.2680    5.1420 O.2   152  THR152     -0.2714
     55  CB        -9.3050   14.4350    2.4740 C.3   152  THR152      0.1808
     56  OG1       -9.4880   15.5910    1.6470 O.3   152  THR152     -0.2208
     57  CG2      -10.3400   14.4230    3.5930 C.3   152  THR152      0.0379
     58  N         -7.6050   16.8030    3.5200 N.am  153  GLY153     -0.1939
     59  CA        -7.3780   18.0230    4.2960 C.3   153  GLY153      0.2014
     60  C         -8.3040   18.1760    5.4940 C.2   153  GLY153      0.2639
     61  O         -7.9780   18.8950    6.4430 O.2   153  GLY153     -0.2714
     62  N         -9.4720   17.4850    5.4590 N.am  154  SER154     -0.1949
     63  CA       -10.4740   17.4250    6.5310 C.3   154  SER154      0.1924
     64  C        -10.0770   16.3550    7.5650 C.2   154  SER154      0.2314
     65  O        -10.6860   16.2800    8.6300 O.2   154  SER154     -0.2863
     66  CB       -11.8510   17.0920    5.9600 C.3   154  SER154      0.2116
     67  OG       -12.2900   18.0530    5.0170 O.3   154  SER154     -0.2180
     68  N         -1.0660   12.5260    6.8480 N.3   160  LEU160     -0.1245
     69  CA        -1.3560   12.9370    5.4790 C.3   160  LEU160      0.1561
     70  C         -0.0470   12.8240    4.6820 C.2   160  LEU160      0.2260
     71  O          0.7950   13.7230    4.7370 O.2   160  LEU160     -0.2867
     72  CB        -1.9400   14.3650    5.4140 C.3   160  LEU160      0.0270
     73  CG        -2.3550   14.8570    4.0130 C.3   160  LEU160      0.0019
     74  CD1       -3.8380   14.7070    3.7960 C.3   160  LEU160      0.0001
     75  CD2       -1.9560   16.2910    3.8010 C.3   160  LEU160      0.0001
     76  N          2.2990   14.6160   -1.0480 N.3   163  HIS163     -0.1241
     77  CA         1.6770   14.6480   -2.3590 C.3   163  HIS163      0.1621
     78  C          1.7210   16.0820   -2.8620 C.2   163  HIS163      0.2264
     79  O          1.6770   17.0430   -2.0720 O.2   163  HIS163     -0.2867
     80  CB         0.1950   14.1880   -2.2810 C.3   163  HIS163      0.0745
     81  CG        -0.7130   15.1920   -1.6370 C.ar  163  HIS163      0.0817
     82  ND1       -0.5080   15.6160   -0.3400 N.ar  163  HIS163     -0.2268
     83  CD2       -1.7430   15.8930   -2.1600 C.ar  163  HIS163      0.1154
     84  CE1       -1.4260   16.5400   -0.1100 C.ar  163  HIS163      0.1986
     85  NE2       -2.1840   16.7480   -1.1750 N.ar  163  HIS163     -0.2212
     86  N         -0.3740   18.8680   -5.0400 N.3   165  GLU165     -0.1231
     87  CA        -1.8080   19.1320   -5.1350 C.3   165  GLU165      0.1699
     88  C         -2.3660   18.7180   -6.4900 C.2   165  GLU165      0.2592
     89  O         -1.7790   19.0450   -7.5350 O.2   165  GLU165     -0.2718
     90  CB        -2.0990   20.6260   -4.8560 C.3   165  GLU165      0.0402
     91  CG        -3.5250   20.9150   -4.4160 C.3   165  GLU165      0.1161
     92  CD        -3.8330   20.5960   -2.9610 C.2   165  GLU165      0.3649
     93  OE1       -3.1320   19.7340   -2.3870 O.co2 165  GLU165     -0.2457
     94  OE2       -4.7830   21.1840   -2.3960 O.co2 165  GLU165     -0.2457
     95  N         -3.5100   18.0070   -6.4590 N.am  166  ASP166     -0.1974
     96  CA        -4.2690   17.5160   -7.6090 C.3   166  ASP166      0.1709
     97  C         -3.4020   16.8090   -8.6630 C.2   166  ASP166      0.2293
     98  O         -3.4450   17.1470   -9.8540 O.2   166  ASP166     -0.2864
     99  CB        -5.1260   18.6420   -8.2260 C.3   166  ASP166      0.1436
    100  CG        -6.1960   19.1680   -7.2780 C.2   166  ASP166      0.3671
    101  OD1       -6.9020   18.3470   -6.6650 O.co2 166  ASP166     -0.2456
    102  OD2       -6.3220   20.4010   -7.1480 O.co2 166  ASP166     -0.2456
    103  N         -8.4440   12.0650   -5.4970 N.3   217  ASP217     -0.1239
    104  CA        -8.2580   12.0940   -4.0320 C.3   217  ASP217      0.1674
    105  C         -9.3940   11.4000   -3.2360 C.2   217  ASP217      0.2266
    106  O        -10.4870   11.1920   -3.7720 O.2   217  ASP217     -0.2867
    107  CB        -8.0130   13.5350   -3.5340 C.3   217  ASP217      0.1410
    108  CG        -9.1770   14.4870   -3.7380 C.2   217  ASP217      0.3668
    109  OD1      -10.2090   14.3190   -3.0550 O.co2 217  ASP217     -0.2456
    110  OD2       -9.0290   15.4440   -4.5220 O.co2 217  ASP217     -0.2456
    111  N        -11.6300   12.2440   -1.1400 N.3   219  ASN219     -0.1240
    112  CA       -12.9230   12.9320   -0.9640 C.3   219  ASN219      0.1653
    113  C        -14.0250   12.3220   -1.8440 C.2   219  ASN219      0.2266
    114  O        -15.2100   12.4770   -1.5360 O.2   219  ASN219     -0.2867
    115  CB       -12.8010   14.4230   -1.2870 C.3   219  ASN219      0.1155
    116  CG       -12.0410   15.2300   -0.2660 C.2   219  ASN219      0.2627
    117  OD1      -12.3730   15.2470    0.9210 O.2   219  ASN219     -0.2716
    118  ND2      -11.0350   15.9620   -0.7160 N.am  219  ASN219     -0.0877
    119  N          1.6140   11.3550   -5.4730 N.3   240  ASP240     -0.1239
    120  CA         0.7080   11.2100   -4.3440 C.3   240  ASP240      0.1674
    121  C          0.9510    9.8200   -3.7740 C.2   240  ASP240      0.2266
    122  O          0.4060    8.8370   -4.2990 O.2   240  ASP240     -0.2867
    123  CB        -0.7510   11.4400   -4.8060 C.3   240  ASP240      0.1410
    124  CG        -1.7800   11.6770   -3.7150 C.2   240  ASP240      0.3668
    125  OD1       -1.6960   11.0230   -2.6650 O.co2 240  ASP240     -0.2456
    126  OD2       -2.7030   12.4760   -3.9420 O.co2 240  ASP240     -0.2456
    127  N         -6.0110   27.8160    2.2650 N.3   318  ARG318     -0.1245
    128  CA        -5.3240   27.4300    1.0350 C.3   318  ARG318      0.1563
    129  C         -5.7760   28.2280   -0.1770 C.2   318  ARG318      0.2260
    130  O         -6.9740   28.4080   -0.3970 O.2   318  ARG318     -0.2867
    131  CB        -5.4780   25.9190    0.7850 C.3   318  ARG318      0.0307
    132  CG        -4.7680   25.4340   -0.4930 C.3   318  ARG318      0.0489
    133  CD        -5.1660   24.0340   -0.9300 C.3   318  ARG318      0.2205
    134  NE        -6.6170   23.8740   -1.1050 N.pl3 318  ARG318     -0.0865
    135  CZ        -7.2860   22.7610   -0.8040 C.cat 318  ARG318      0.5346
    136  NH1       -6.6450   21.6970   -0.3300 N.pl3 318  ARG318      0.1354
    137  NH2       -8.6000   22.7070   -0.9630 N.pl3 318  ARG318      0.1354
@<TRIPOS>BOND
     1    98    97    2
     2    97    96    1
     3    99    96    1
     4    99   100    1
     5    96    95    1
     6    89    88    2
     7   100   102   ar
     8   100   101   ar
     9    15    16    1
    10    88    95   am
    11    88    87    1
    12   103   104    1
    13   119   120    1
    14    20    19    1
    15    20    21    1
    16    16    19    1
    17    16    17    1
    18    87    86    1
    19    87    90    1
    20    18    17    2
    21    90    91    1
    22   123   120    1
    23   123   124    1
    24    17    24   am
    25   110   108   ar
    26    26    27    2
    27    26    25    1
    28    23    21   am
    29    91    92    1
    30   120   121    1
    31   122   121    2
    32    21    22    2
    33   104   107    1
    34   104   105    1
    35    24    25    1
    36   126   124   ar
    37   106   105    2
    38   108   107    1
    39   108   109   ar
    40   124   125   ar
    41    25    28    1
    42    92    94   ar
    43    92    93   ar
    44    78    77    1
    45    78    79    2
    46    77    80    1
    47    77    76    1
    48    28    29    1
    49    80    81    1
    50    83    81   ar
    51    83    85   ar
    52   113   114    2
    53   113   112    1
    54    81    82   ar
    55    29    30    1
    56   115   112    1
    57   115   116    1
    58    85    84   ar
    59   111   112    1
    60   134   133    1
    61   134   135    2
    62   137   135    1
    63   133   132    1
    64   135   136    1
    65   118   116   am
    66   132   131    1
    67   130   129    2
    68    82    84   ar
    69    30    31    1
    70   116   117    2
    71   129   128    1
    72    14    12   ar
    73    14    13   ar
    74    31    32    2
    75   131   128    1
    76   128   127    1
    77    12    10   ar
    78    13    11   ar
    79    45    44    2
    80    56    55    1
    81    32    33    1
    82    32    34    1
    83    10     8   ar
    84    10     9   ar
    85    11     8   ar
    86    47    46    1
    87    47    48    1
    88    55    52    1
    89    55    57    1
    90    46    43    1
    91    44    51   am
    92    44    43    1
    93     8     6   ar
    94     9     7   ar
    95    52    51    1
    96    52    53    1
    97    50    48   am
    98    58    53   am
    99    58    59    1
   100    41    39    1
   101    48    49    2
   102    43    42    1
   103    74    73    1
   104    75    73    1
   105     7     6   ar
   106     6     5    1
   107    53    54    2
   108    73    72    1
   109    59    60    1
   110    70    71    2
   111    70    69    1
   112     5     2    1
   113    67    66    1
   114    39    40    1
   115    39    36    1
   116     4     3    2
   117    72    69    1
   118    62    60   am
   119    62    63    1
   120    69    68    1
   121    35    36    1
   122    60    61    2
   123     3     2    1
   124    36    37    1
   125    66    63    1
   126     2     1    1
   127    63    64    1
   128    37    38    2
   129    64    65    2
