@<TRIPOS>MOLECULE
tmp/6exfA00.pdb
 146 138 0 0 0
SMALL
GASTEIGER

@<TRIPOS>ATOM
      1  N          8.8250   56.6360   39.1400 N.3   136  VAL136     -0.1245
      2  CA         8.0070   57.1240   40.2540 C.3   136  VAL136      0.1561
      3  C          8.0800   56.0400   41.3160 C.2   136  VAL136      0.2260
      4  O          7.5650   54.9260   41.1350 O.2   136  VAL136     -0.2867
      5  CB         6.5520   57.5000   39.8070 C.3   136  VAL136      0.0252
      6  CG1        5.7440   58.0420   40.9790 C.3   136  VAL136      0.0019
      7  CG2        6.5620   58.5120   38.6510 C.3   136  VAL136      0.0019
      8  N          8.1220   55.2450   45.7450 N.3   138  PRO138     -0.2116
      9  CA         7.8540   55.7900   47.0900 C.3   138  PRO138      0.1372
     10  C          9.1200   55.8480   47.9400 C.2   138  PRO138      0.2244
     11  O          9.8070   54.8360   48.1390 O.2   138  PRO138     -0.2868
     12  CB         6.7780   54.8560   47.6710 C.3   138  PRO138      0.0268
     13  CG         6.9040   53.6110   46.9180 C.3   138  PRO138      0.0207
     14  CD         7.5270   53.9050   45.5830 C.3   138  PRO138      0.0892
     15  N          3.0330   64.1560   46.7070 N.3   147  THR147     -0.1203
     16  CA         3.8470   64.0130   45.4920 C.3   147  THR147      0.1994
     17  C          3.8330   62.5480   45.0190 C.2   147  THR147      0.2618
     18  O          3.1570   61.7050   45.6160 O.2   147  THR147     -0.2717
     19  CB         5.3010   64.4930   45.7350 C.3   147  THR147      0.1784
     20  OG1        5.8720   63.7790   46.8320 O.3   147  THR147     -0.2211
     21  CG2        5.4100   65.9950   45.9570 C.3   147  THR147      0.0376
     22  N          4.5840   62.2700   43.9540 N.am  148  GLY148     -0.1956
     23  CA         4.7520   60.9330   43.3970 C.3   148  GLY148      0.1869
     24  C          5.7000   60.0890   44.2240 C.2   148  GLY148      0.2309
     25  O          5.6530   58.8640   44.1570 O.2   148  GLY148     -0.2863
     26  N          5.4720   60.0190   47.2910 N.3   150  GLY150     -0.1225
     27  CA         4.5820   59.7800   48.4190 C.3   150  GLY150      0.1811
     28  C          4.0200   58.3760   48.4940 C.2   150  GLY150      0.2280
     29  O          4.0940   57.6080   47.5280 O.2   150  GLY150     -0.2866
     30  N         -6.0640   64.7110   40.4140 N.3   158  HIS158     -0.1241
     31  CA        -5.5310   65.8780   39.7430 C.3   158  HIS158      0.1621
     32  C         -5.1640   65.5350   38.3050 C.2   158  HIS158      0.2264
     33  O         -4.8460   64.3760   37.9920 O.2   158  HIS158     -0.2867
     34  CB        -4.3050   66.4720   40.4780 C.3   158  HIS158      0.0745
     35  CG        -3.0750   65.6240   40.3830 C.ar  158  HIS158      0.0817
     36  ND1       -2.8720   64.5420   41.2350 N.ar  158  HIS158     -0.2268
     37  CD2       -2.0400   65.6990   39.5250 C.ar  158  HIS158      0.1154
     38  CE1       -1.7510   63.9720   40.8200 C.ar  158  HIS158      0.1986
     39  NE2       -1.2110   64.6440   39.8020 N.ar  158  HIS158     -0.2212
     40  N          1.3050   55.7770   32.3030 N.3   173  PHE173     -0.1241
     41  CA         1.7820   55.2550   33.5910 C.3   173  PHE173      0.1605
     42  C          2.0070   53.7610   33.4090 C.2   173  PHE173      0.2264
     43  O          1.0450   53.0100   33.3010 O.2   173  PHE173     -0.2867
     44  CB         0.7940   55.5340   34.7380 C.3   173  PHE173      0.0534
     45  CG         0.4550   56.9920   34.9680 C.ar  173  PHE173     -0.0203
     46  CD1        1.4220   57.8910   35.4180 C.ar  173  PHE173     -0.0042
     47  CD2       -0.8390   57.4660   34.7580 C.ar  173  PHE173     -0.0042
     48  CE1        1.1000   59.2350   35.6630 C.ar  173  PHE173     -0.0003
     49  CE2       -1.1570   58.8160   34.9900 C.ar  173  PHE173     -0.0003
     50  CZ        -0.1860   59.6850   35.4510 C.ar  173  PHE173     -0.0000
     51  N          3.2250   50.4110   35.0310 N.3   175  TYR175     -0.1241
     52  CA         3.4440   49.7980   36.3510 C.3   175  TYR175      0.1605
     53  C          4.3720   48.6200   36.2630 C.2   175  TYR175      0.2264
     54  O          4.0370   47.6180   35.6430 O.2   175  TYR175     -0.2867
     55  CB         2.1140   49.4070   37.0260 C.3   175  TYR175      0.0534
     56  CG         1.2390   50.6110   37.2900 C.ar  175  TYR175     -0.0201
     57  CD1        0.3270   51.0580   36.3340 C.ar  175  TYR175     -0.0009
     58  CD2        1.3650   51.3430   38.4670 C.ar  175  TYR175     -0.0009
     59  CE1       -0.4300   52.2100   36.5400 C.ar  175  TYR175      0.0417
     60  CE2        0.5990   52.4870   38.6910 C.ar  175  TYR175      0.0417
     61  CZ        -0.2940   52.9210   37.7220 C.ar  175  TYR175      0.1957
     62  OH        -1.0360   54.0690   37.9110 O.3   175  TYR175     -0.2866
     63  N         -5.5480   52.4210   41.3290 N.3   184  SER184     -0.1202
     64  CA        -5.2410   53.6030   40.5280 C.3   184  SER184      0.2020
     65  C         -6.5240   54.3400   40.3630 C.2   184  SER184      0.2619
     66  O         -7.4350   53.8390   39.7150 O.2   184  SER184     -0.2717
     67  CB        -4.6580   53.2300   39.1760 C.3   184  SER184      0.2103
     68  OG        -3.2490   53.3340   39.2680 O.3   184  SER184     -0.2182
     69  N         -6.6140   55.5210   40.9390 N.am  185  THR185     -0.1938
     70  CA        -7.8620   56.2650   40.8670 C.3   185  THR185      0.2028
     71  C         -7.8930   57.1860   39.6380 C.2   185  THR185      0.2642
     72  O         -6.9090   57.8560   39.2880 O.2   185  THR185     -0.2714
     73  CB        -8.1900   56.9560   42.2100 C.3   185  THR185      0.1808
     74  OG1       -7.5010   58.1760   42.3230 O.3   185  THR185     -0.2208
     75  CG2       -7.8580   56.0800   43.4190 C.3   185  THR185      0.0379
     76  N         -9.0470   57.1930   38.9780 N.am  186  LEU186     -0.1977
     77  CA        -9.2850   58.0180   37.8020 C.3   186  LEU186      0.1596
     78  C        -10.5650   58.8050   37.9500 C.2   186  LEU186      0.2287
     79  O        -11.5020   58.3700   38.6240 O.2   186  LEU186     -0.2864
     80  CB        -9.3440   57.1630   36.5320 C.3   186  LEU186      0.0297
     81  CG        -8.0600   56.3960   36.1540 C.3   186  LEU186      0.0022
     82  CD1       -8.3600   55.3320   35.0880 C.3   186  LEU186      0.0001
     83  CD2       -6.9250   57.3420   35.6920 C.3   186  LEU186      0.0001
     84  N         -1.4850   52.5610   31.9660 N.3   275  ILE275     -0.1245
     85  CA        -2.6540   53.4370   31.8840 C.3   275  ILE275      0.1561
     86  C         -2.2700   54.6450   31.0060 C.2   275  ILE275      0.2260
     87  O         -1.2680   55.3110   31.2760 O.2   275  ILE275     -0.2867
     88  CB        -3.2200   53.8370   33.2810 C.3   275  ILE275      0.0252
     89  CG1       -3.6430   52.5640   34.0690 C.3   275  ILE275      0.0019
     90  CG2       -4.4180   54.8100   33.1110 C.3   275  ILE275      0.0019
     91  CD1       -3.9470   52.7630   35.5450 C.3   275  ILE275      0.0001
     92  N         -6.1160   61.9120   37.6640 N.3   284  HIS284     -0.1226
     93  CA        -5.6230   60.6720   38.2490 C.3   284  HIS284      0.1752
     94  C         -5.2280   60.8970   39.7100 C.2   284  HIS284      0.2597
     95  O         -4.9800   62.0320   40.1460 O.2   284  HIS284     -0.2718
     96  CB        -4.4420   60.1030   37.4100 C.3   284  HIS284      0.0759
     97  CG        -3.2420   60.9990   37.4400 C.ar  284  HIS284      0.0818
     98  ND1       -3.1460   62.1010   36.5980 N.ar  284  HIS284     -0.2268
     99  CD2       -2.1920   61.0070   38.2960 C.ar  284  HIS284      0.1154
    100  CE1       -2.0070   62.6830   36.9050 C.ar  284  HIS284      0.1986
    101  NE2       -1.4040   62.0710   37.9320 N.ar  284  HIS284     -0.2212
    102  N         -5.2100   59.8070   40.4650 N.am  285  GLY285     -0.1942
    103  CA        -4.8000   59.8290   41.8640 C.3   285  GLY285      0.2014
    104  C         -4.3430   58.4640   42.3300 C.2   285  GLY285      0.2638
    105  O         -4.2970   57.5010   41.5560 O.2   285  GLY285     -0.2714
    106  N         -4.0520   58.3590   43.6140 N.am  286  ARG286     -0.1977
    107  CA        -3.6130   57.0940   44.2110 C.3   286  ARG286      0.1597
    108  C         -4.0700   57.0670   45.6610 C.2   286  ARG286      0.2287
    109  O         -3.8900   58.0600   46.3770 O.2   286  ARG286     -0.2864
    110  CB        -2.0720   56.9410   44.0690 C.3   286  ARG286      0.0334
    111  CG        -1.4150   56.1830   45.1880 C.3   286  ARG286      0.0492
    112  CD         0.0880   56.1880   45.1710 C.3   286  ARG286      0.2205
    113  NE         0.7180   57.4680   45.5000 N.pl3 286  ARG286     -0.0865
    114  CZ         0.6220   58.1010   46.6650 C.cat 286  ARG286      0.5346
    115  NH1       -0.1710   57.6320   47.6220 N.pl3 286  ARG286      0.1354
    116  NH2        1.2720   59.2400   46.8600 N.pl3 286  ARG286      0.1354
    117  N          6.5190   49.7880   45.3870 N.3   306  ARG306     -0.1245
    118  CA         5.8460   50.2650   44.1900 C.3   306  ARG306      0.1563
    119  C          6.8200   50.9410   43.2180 C.2   306  ARG306      0.2260
    120  O          7.7590   51.6190   43.6410 O.2   306  ARG306     -0.2867
    121  CB         4.6890   51.2010   44.5750 C.3   306  ARG306      0.0307
    122  CG         3.6420   51.3390   43.4990 C.3   306  ARG306      0.0489
    123  CD         2.3270   51.7540   44.1190 C.3   306  ARG306      0.2205
    124  NE         1.3390   52.2020   43.1270 N.pl3 306  ARG306     -0.0865
    125  CZ         1.2230   53.4600   42.7150 C.cat 306  ARG306      0.5346
    126  NH1        0.2860   53.7930   41.8440 N.pl3 306  ARG306      0.1354
    127  NH2        2.0460   54.3940   43.1700 N.pl3 306  ARG306      0.1354
    128  N          6.6260   52.6400   39.1790 N.3   308  MET308     -0.1245
    129  CA         5.8600   53.0870   38.0340 C.3   308  MET308      0.1570
    130  C          6.7240   54.0100   37.1590 C.2   308  MET308      0.2261
    131  O          7.5900   54.7020   37.6780 O.2   308  MET308     -0.2867
    132  CB         4.5790   53.7830   38.5480 C.3   308  MET308      0.0387
    133  CG         3.5950   54.2090   37.4440 C.3   308  MET308      0.0595
    134  SD         3.8940   55.9130   36.8790 S.3   308  MET308     -0.1393
    135  CE         3.1680   56.8080   38.2070 C.3   308  MET308      0.0692
    136  N          6.5400   57.0790   34.2660 N.3   310  ARG310     -0.1245
    137  CA         5.7050   58.1230   33.6920 C.3   310  ARG310      0.1563
    138  C          6.3410   58.7990   32.4530 C.2   310  ARG310      0.2260
    139  O          7.5060   59.1460   32.4570 O.2   310  ARG310     -0.2867
    140  CB         5.3120   59.1610   34.7640 C.3   310  ARG310      0.0307
    141  CG         4.4010   60.2800   34.2300 C.3   310  ARG310      0.0489
    142  CD         4.2550   61.4410   35.2050 C.3   310  ARG310      0.2205
    143  NE         5.5410   62.0390   35.5770 N.pl3 310  ARG310     -0.0865
    144  CZ         5.7940   62.5610   36.7740 C.cat 310  ARG310      0.5346
    145  NH1        4.8460   62.6020   37.6990 N.pl3 310  ARG310      0.1354
    146  NH2        7.0040   63.0270   37.0620 N.pl3 310  ARG310      0.1354
@<TRIPOS>BOND
     1    86    87    2
     2    86    85    1
     3    85    84    1
     4    85    88    1
     5    40    41    1
     6   138   139    2
     7   138   137    1
     8    90    88    1
     9    88    89    1
    10    43    42    2
    11    42    41    1
    12    41    44    1
    13   137   136    1
    14   137   140    1
    15    89    91    1
    16   141   140    1
    17   141   142    1
    18    44    45    1
    19    47    45   ar
    20    47    49   ar
    21    45    46   ar
    22    49    50   ar
    23    51    52    1
    24    82    81    1
    25   142   143    1
    26    46    48   ar
    27    50    48   ar
    28   143   144    2
    29    54    53    2
    30    83    81    1
    31    81    80    1
    32    53    52    1
    33    57    59   ar
    34    57    56   ar
    35    52    55    1
    36    80    77    1
    37    59    61   ar
    38    98   100   ar
    39    98    97   ar
    40   144   146    1
    41   144   145    1
    42   134   133    1
    43   134   135    1
    44   100   101   ar
    45    55    56    1
    46   130   131    2
    47   130   129    1
    48    56    58   ar
    49    96    97    1
    50    96    93    1
    51    97    99   ar
    52   133   132    1
    53    92    93    1
    54    61    62    1
    55    61    60   ar
    56    77    78    1
    57    77    76    1
    58   101    99   ar
    59    78    79    2
    60    33    32    2
    61   129   132    1
    62   129   128    1
    63    93    94    1
    64    32    31    1
    65    58    60   ar
    66     7     5    1
    67    76    71   am
    68     1     2    1
    69    67    68    1
    70    67    64    1
    71    72    71    2
    72    37    39   ar
    73    37    35   ar
    74    71    70    1
    75    94    95    2
    76    94   102   am
    77    66    65    2
    78    31    30    1
    79    31    34    1
    80    39    38   ar
    81     5     2    1
    82     5     6    1
    83     2     3    1
    84    65    64    1
    85    65    69   am
    86    35    34    1
    87    35    36   ar
    88   102   103    1
    89    64    63    1
    90    38    36   ar
    91    70    69    1
    92    70    73    1
    93     4     3    2
    94   105   104    2
    95   126   125    1
    96   103   104    1
    97    73    74    1
    98    73    75    1
    99   104   106   am
   100   125   124    2
   101   125   127    1
   102   124   123    1
   103   119   120    2
   104   119   118    1
   105    23    22    1
   106    23    24    1
   107   122   123    1
   108   122   121    1
   109   106   107    1
   110    22    17   am
   111   110   107    1
   112   110   111    1
   113    25    24    2
   114   118   121    1
   115   118   117    1
   116   107   108    1
   117    17    16    1
   118    17    18    2
   119   112   111    1
   120   112   113    1
   121    16    19    1
   122    16    15    1
   123   113   114    2
   124    14     8    1
   125    14    13    1
   126   108   109    2
   127    19    21    1
   128    19    20    1
   129     8     9    1
   130   114   116    1
   131   114   115    1
   132    13    12    1
   133     9    12    1
   134     9    10    1
   135    26    27    1
   136    29    28    2
   137    10    11    2
   138    27    28    1
