@<TRIPOS>MOLECULE
tmp/6exhA01.pdb
 122 114 0 0 0
SMALL
GASTEIGER

@<TRIPOS>ATOM
      1  N          8.6740   56.2640   39.0300 N.3   138  VAL138     -0.1245
      2  CA         7.8240   56.6960   40.1540 C.3   138  VAL138      0.1561
      3  C          7.9580   55.5930   41.2250 C.2   138  VAL138      0.2260
      4  O          7.3310   54.5340   41.1060 O.2   138  VAL138     -0.2867
      5  CB         6.3540   57.0080   39.7170 C.3   138  VAL138      0.0252
      6  CG1        5.4600   57.3110   40.9140 C.3   138  VAL138      0.0019
      7  CG2        6.2960   58.1320   38.6900 C.3   138  VAL138      0.0019
      8  N          4.4490   61.5140   43.6060 N.3   150  GLY150     -0.1225
      9  CA         4.5700   60.1400   43.1360 C.3   150  GLY150      0.1811
     10  C          5.4930   59.3430   44.0390 C.2   150  GLY150      0.2280
     11  O          5.3080   58.1310   44.2120 O.2   150  GLY150     -0.2866
     12  N         -3.1690   59.9090   47.0560 N.3   157  LEU157     -0.1245
     13  CA        -2.8770   60.9060   46.0290 C.3   157  LEU157      0.1561
     14  C         -4.2250   61.2590   45.3440 C.2   157  LEU157      0.2260
     15  O         -4.6570   60.5520   44.4090 O.2   157  LEU157     -0.2867
     16  CB        -1.8510   60.3200   45.0310 C.3   157  LEU157      0.0270
     17  CG        -1.1720   61.2580   44.0340 C.3   157  LEU157      0.0019
     18  CD1       -0.0440   62.0480   44.6800 C.3   157  LEU157      0.0001
     19  CD2       -0.5920   60.4630   42.8960 C.3   157  LEU157      0.0001
     20  N         -6.0380   64.2660   40.2530 N.3   160  HIS160     -0.1241
     21  CA        -5.5050   65.4310   39.5820 C.3   160  HIS160      0.1621
     22  C         -5.1700   65.1060   38.1360 C.2   160  HIS160      0.2264
     23  O         -4.8730   63.9590   37.7920 O.2   160  HIS160     -0.2867
     24  CB        -4.2610   65.9690   40.3050 C.3   160  HIS160      0.0745
     25  CG        -3.0620   65.0840   40.2200 C.ar  160  HIS160      0.0817
     26  ND1       -2.9150   63.9790   41.0460 N.ar  160  HIS160     -0.2268
     27  CD2       -1.9780   65.1790   39.4180 C.ar  160  HIS160      0.1154
     28  CE1       -1.7730   63.4180   40.6880 C.ar  160  HIS160      0.1986
     29  NE2       -1.1780   64.1050   39.7040 N.ar  160  HIS160     -0.2212
     30  N         -2.3200   65.9440   35.2870 N.3   162  GLU162     -0.1245
     31  CA        -0.9040   66.2560   35.4320 C.3   162  GLU162      0.1567
     32  C         -0.6150   67.7330   35.1120 C.2   162  GLU162      0.2260
     33  O         -1.0760   68.2500   34.0880 O.2   162  GLU162     -0.2867
     34  CB        -0.0720   65.3140   34.5640 C.3   162  GLU162      0.0388
     35  CG         1.3450   65.1290   35.0550 C.3   162  GLU162      0.1160
     36  CD         1.5260   64.4580   36.4000 C.2   162  GLU162      0.3649
     37  OE1        2.2490   65.0130   37.2600 O.co2 162  GLU162     -0.2457
     38  OE2        0.9610   63.3590   36.5850 O.co2 162  GLU162     -0.2457
     39  N          1.2980   55.3430   32.2210 N.3   175  PHE175     -0.1241
     40  CA         1.7710   54.8370   33.5110 C.3   175  PHE175      0.1605
     41  C          2.0090   53.3620   33.3370 C.2   175  PHE175      0.2264
     42  O          1.0460   52.6080   33.2630 O.2   175  PHE175     -0.2867
     43  CB         0.7500   55.0840   34.6520 C.3   175  PHE175      0.0534
     44  CG         0.3800   56.5250   34.8970 C.ar  175  PHE175     -0.0203
     45  CD1        1.3110   57.4230   35.4050 C.ar  175  PHE175     -0.0042
     46  CD2       -0.9010   56.9780   34.6470 C.ar  175  PHE175     -0.0042
     47  CE1        0.9780   58.7530   35.6270 C.ar  175  PHE175     -0.0003
     48  CE2       -1.2340   58.3150   34.8560 C.ar  175  PHE175     -0.0003
     49  CZ        -0.2890   59.1900   35.3530 C.ar  175  PHE175     -0.0000
     50  N          3.1420   49.9900   34.8870 N.3   177  TYR177     -0.1241
     51  CA         3.3300   49.3930   36.2110 C.3   177  TYR177      0.1605
     52  C          4.2690   48.2310   36.1070 C.2   177  TYR177      0.2264
     53  O          3.9700   47.2530   35.4170 O.2   177  TYR177     -0.2867
     54  CB         1.9800   49.0140   36.8610 C.3   177  TYR177      0.0534
     55  CG         1.1410   50.2340   37.1690 C.ar  177  TYR177     -0.0201
     56  CD1        0.2920   50.7860   36.2050 C.ar  177  TYR177     -0.0009
     57  CD2        1.2670   50.8980   38.3840 C.ar  177  TYR177     -0.0009
     58  CE1       -0.4120   51.9620   36.4480 C.ar  177  TYR177      0.0417
     59  CE2        0.5590   52.0700   38.6410 C.ar  177  TYR177      0.0417
     60  CZ        -0.2850   52.5960   37.6730 C.ar  177  TYR177      0.1957
     61  OH        -0.9970   53.7440   37.9120 O.3   177  TYR177     -0.2866
     62  N         -5.5440   52.1410   41.2790 N.3   186  SER186     -0.1217
     63  CA        -5.2730   53.3120   40.4710 C.3   186  SER186      0.1889
     64  C         -6.6110   54.0050   40.3250 C.2   186  SER186      0.2288
     65  O         -7.5380   53.4600   39.7110 O.2   186  SER186     -0.2866
     66  CB        -4.7030   52.9160   39.1090 C.3   186  SER186      0.2089
     67  OG        -3.2860   52.8590   39.1310 O.3   186  SER186     -0.2183
     68  N         -6.0190   61.5160   37.4380 N.3   288  HIS288     -0.1226
     69  CA        -5.4970   60.2880   38.0320 C.3   288  HIS288      0.1752
     70  C         -5.0880   60.5020   39.4780 C.2   288  HIS288      0.2597
     71  O         -4.9560   61.6420   39.9460 O.2   288  HIS288     -0.2718
     72  CB        -4.2910   59.7530   37.2170 C.3   288  HIS288      0.0759
     73  CG        -3.1270   60.6900   37.1790 C.ar  288  HIS288      0.0818
     74  ND1       -3.0830   61.7540   36.2950 N.ar  288  HIS288     -0.2268
     75  CD2       -2.0270   60.7240   37.9500 C.ar  288  HIS288      0.1154
     76  CE1       -1.9520   62.3770   36.5310 C.ar  288  HIS288      0.1986
     77  NE2       -1.2800   61.8010   37.5240 N.ar  288  HIS288     -0.2212
     78  N         -4.8780   59.3860   40.1650 N.am  289  GLY289     -0.1942
     79  CA        -4.4140   59.3220   41.5480 C.3   289  GLY289      0.2014
     80  C         -4.1170   57.8930   41.9200 C.2   289  GLY289      0.2638
     81  O         -3.9980   57.0370   41.0510 O.2   289  GLY289     -0.2714
     82  N         -4.0040   57.6220   43.2140 N.am  290  ARG290     -0.1977
     83  CA        -3.7580   56.2880   43.7890 C.3   290  ARG290      0.1597
     84  C         -3.9710   56.3890   45.2900 C.2   290  ARG290      0.2287
     85  O         -3.5380   57.3740   45.9030 O.2   290  ARG290     -0.2864
     86  CB        -2.3590   55.7150   43.4430 C.3   290  ARG290      0.0334
     87  CG        -1.1770   56.6400   43.7590 C.3   290  ARG290      0.0492
     88  CD        -0.1620   56.0110   44.6980 C.3   290  ARG290      0.2205
     89  NE         0.7410   57.0280   45.2310 N.pl3 290  ARG290     -0.0865
     90  CZ         0.6010   57.6120   46.4180 C.cat 290  ARG290      0.5346
     91  NH1       -0.3910   57.2540   47.2320 N.pl3 290  ARG290      0.1354
     92  NH2        1.4510   58.5560   46.8030 N.pl3 290  ARG290      0.1354
     93  N          6.5870   49.3330   45.1850 N.3   310  ARG310     -0.1245
     94  CA         5.9130   49.7980   43.9730 C.3   310  ARG310      0.1563
     95  C          6.8750   50.5220   43.0550 C.2   310  ARG310      0.2260
     96  O          7.7510   51.2440   43.5120 O.2   310  ARG310     -0.2867
     97  CB         4.7460   50.7040   44.3510 C.3   310  ARG310      0.0307
     98  CG         3.6590   50.8680   43.3050 C.3   310  ARG310      0.0489
     99  CD         2.5180   51.5980   43.9860 C.3   310  ARG310      0.2205
    100  NE         1.4300   51.9830   43.0860 N.pl3 310  ARG310     -0.0865
    101  CZ         1.3170   53.1680   42.4940 C.cat 310  ARG310      0.5346
    102  NH1        2.2630   54.0930   42.6500 N.pl3 310  ARG310      0.1354
    103  NH2        0.2690   53.4310   41.7230 N.pl3 310  ARG310      0.1354
    104  N          6.6350   52.2380   39.0900 N.3   312  MET312     -0.1245
    105  CA         5.8410   52.6330   37.9450 C.3   312  MET312      0.1570
    106  C          6.6830   53.5610   37.0760 C.2   312  MET312      0.2261
    107  O          7.5100   54.2840   37.6140 O.2   312  MET312     -0.2867
    108  CB         4.5530   53.3200   38.4580 C.3   312  MET312      0.0387
    109  CG         3.5680   53.7220   37.3870 C.3   312  MET312      0.0595
    110  SD         3.7580   55.4520   36.9120 S.3   312  MET312     -0.1393
    111  CE         3.0100   56.2290   38.2470 C.3   312  MET312      0.0692
    112  N          6.4430   56.7060   34.3100 N.3   314  ARG314     -0.1245
    113  CA         5.6080   57.7600   33.7120 C.3   314  ARG314      0.1563
    114  C          6.2600   58.4570   32.4890 C.2   314  ARG314      0.2260
    115  O          7.4160   58.8700   32.5360 O.2   314  ARG314     -0.2867
    116  CB         5.1890   58.7950   34.7640 C.3   314  ARG314      0.0307
    117  CG         4.2190   59.8390   34.2170 C.3   314  ARG314      0.0489
    118  CD         4.0300   61.0340   35.1220 C.3   314  ARG314      0.2205
    119  NE         5.2890   61.7230   35.4160 N.pl3 314  ARG314     -0.0865
    120  CZ         5.6280   62.1430   36.6310 C.cat 314  ARG314      0.5346
    121  NH1        4.8110   61.9580   37.6540 N.pl3 314  ARG314      0.1354
    122  NH2        6.7930   62.7440   36.8320 N.pl3 314  ARG314      0.1354
@<TRIPOS>BOND
     1    39    40    1
     2   114   115    2
     3   114   113    1
     4    42    41    2
     5    41    40    1
     6    40    43    1
     7   113   112    1
     8   113   116    1
     9    33    32    2
    10   117   116    1
    11   117   118    1
    12    34    35    1
    13    34    31    1
    14    46    48   ar
    15    46    44   ar
    16    43    44    1
    17    48    49   ar
    18    50    51    1
    19    44    45   ar
    20    35    36    1
    21    32    31    1
    22   118   119    1
    23    30    31    1
    24    49    47   ar
    25    45    47   ar
    26   119   120    2
    27    53    52    2
    28    52    51    1
    29    56    58   ar
    30    56    55   ar
    31    51    54    1
    32    74    76   ar
    33    74    73   ar
    34    36    38   ar
    35    36    37   ar
    36    58    60   ar
    37    76    77   ar
    38   120   122    1
    39   120   121    1
    40    54    55    1
    41   110   109    1
    42   110   111    1
    43   106   107    2
    44   106   105    1
    45    55    57   ar
    46    73    72    1
    47    73    75   ar
    48    72    69    1
    49   109   108    1
    50    68    69    1
    51    77    75   ar
    52    60    61    1
    53    60    59   ar
    54    23    22    2
    55   105   108    1
    56   105   104    1
    57    69    70    1
    58    22    21    1
    59    57    59   ar
    60     7     5    1
    61     1     2    1
    62    66    67    1
    63    66    63    1
    64    27    29   ar
    65    27    25   ar
    66    70    71    2
    67    70    78   am
    68    21    20    1
    69    21    24    1
    70    29    28   ar
    71    65    64    2
    72     5     2    1
    73     5     6    1
    74     2     3    1
    75    78    79    1
    76    25    24    1
    77    25    26   ar
    78    64    63    1
    79    63    62    1
    80    28    26   ar
    81    81    80    2
    82     4     3    2
    83    79    80    1
    84   103   101    1
    85    80    82   am
    86   101   102    1
    87   101   100    2
    88    19    17    1
    89    95    96    2
    90    95    94    1
    91   100    99    1
    92     9     8    1
    93     9    10    1
    94    82    83    1
    95    98    99    1
    96    98    97    1
    97    86    87    1
    98    86    83    1
    99    87    88    1
   100    83    84    1
   101    94    97    1
   102    94    93    1
   103    17    18    1
   104    17    16    1
   105    10    11    2
   106    15    14    2
   107    88    89    1
   108    16    13    1
   109    89    90    2
   110    84    85    2
   111    14    13    1
   112    13    12    1
   113    90    92    1
   114    90    91    1
