@<TRIPOS>MOLECULE
tmp/6exiD02.pdb
 99 94 0 0 0
SMALL
GASTEIGER

@<TRIPOS>ATOM
      1  N         13.9650   44.8120   43.2070 N.3   255  ALA255     -0.1231
      2  CA        13.5770   43.8440   44.2210 C.3   255  ALA255      0.1694
      3  C         13.4770   44.5510   45.5670 C.2   255  ALA255      0.2593
      4  O         14.4480   45.1460   46.0410 O.2   255  ALA255     -0.2718
      5  CB        14.5550   42.6800   44.2900 C.3   255  ALA255      0.0304
      6  N         12.2950   44.5140   46.1590 N.am  256  GLY256     -0.1942
      7  CA        12.0630   45.1710   47.4280 C.3   256  GLY256      0.2014
      8  C         11.3600   46.5050   47.2650 C.2   256  GLY256      0.2639
      9  O         11.6300   47.2420   46.3100 O.2   256  GLY256     -0.2714
     10  N         10.4620   46.8340   48.1990 N.am  257  PHE257     -0.1959
     11  CA         9.6910   48.0810   48.1450 C.3   257  PHE257      0.1771
     12  C          9.5210   48.6500   49.5580 C.2   257  PHE257      0.2620
     13  O          8.4660   49.1870   49.9080 O.2   257  PHE257     -0.2715
     14  CB         8.3320   47.8830   47.4670 C.3   257  PHE257      0.0574
     15  CG         7.7470   49.1600   46.8610 C.ar  257  PHE257     -0.0200
     16  CD1        8.3210   49.7520   45.7360 C.ar  257  PHE257     -0.0042
     17  CD2        6.6210   49.7590   47.3980 C.ar  257  PHE257     -0.0042
     18  CE1        7.7750   50.9140   45.1970 C.ar  257  PHE257     -0.0003
     19  CE2        6.0980   50.9110   46.8480 C.ar  257  PHE257     -0.0003
     20  CZ         6.6850   51.4800   45.7500 C.ar  257  PHE257     -0.0000
     21  N         10.5910   48.5580   50.3550 N.am  258  GLY258     -0.1954
     22  CA        10.8090   49.4070   51.5010 C.3   258  GLY258      0.1869
     23  C         11.2510   50.7880   51.0770 C.2   258  GLY258      0.2309
     24  O         11.0570   51.1980   49.9290 O.2   258  GLY258     -0.2863
     25  N         14.1880   52.0370   50.5300 N.3   260  VAL260     -0.1245
     26  CA        15.1960   52.0350   49.4700 C.3   260  VAL260      0.1561
     27  C         14.5670   51.6650   48.1170 C.2   260  VAL260      0.2260
     28  O         14.7810   52.3450   47.1080 O.2   260  VAL260     -0.2867
     29  CB        16.3520   51.0820   49.8350 C.3   260  VAL260      0.0252
     30  CG1       17.2980   50.9310   48.6690 C.3   260  VAL260      0.0019
     31  CG2       17.1300   51.5640   51.1070 C.3   260  VAL260      0.0019
     32  N          9.5300   43.4830   42.9060 N.3   278  SER278     -0.1202
     33  CA         9.1930   42.2620   43.6330 C.3   278  SER278      0.2020
     34  C          9.0590   42.5590   45.1250 C.2   278  SER278      0.2619
     35  O          9.6540   43.5060   45.6390 O.2   278  SER278     -0.2717
     36  CB        10.2160   41.1480   43.3980 C.3   278  SER278      0.2103
     37  OG        11.4910   41.4730   43.9070 O.3   278  SER278     -0.2182
     38  N          8.2610   41.7540   45.8240 N.am  279  GLU279     -0.1965
     39  CA         8.1170   41.9690   47.2580 C.3   279  GLU279      0.1733
     40  C          7.6780   40.6690   47.9080 C.2   279  GLU279      0.2616
     41  O          7.0370   39.8390   47.2680 O.2   279  GLU279     -0.2715
     42  CB         7.1100   43.0850   47.5610 C.3   279  GLU279      0.0429
     43  CG         7.7160   44.3720   48.0930 C.3   279  GLU279      0.1163
     44  CD         8.3510   44.2250   49.4890 C.2   279  GLU279      0.3649
     45  OE1        9.0270   45.1870   49.9160 O.co2 279  GLU279     -0.2457
     46  OE2        8.1790   43.1560   50.1360 O.co2 279  GLU279     -0.2457
     47  N          8.0320   40.4960   49.1770 N.am  280  VAL280     -0.1963
     48  CA         7.5040   39.3830   49.9560 C.3   280  VAL280      0.1727
     49  C          6.4070   39.8610   50.8880 C.2   280  VAL280      0.2616
     50  O          5.5900   39.0470   51.3370 O.2   280  VAL280     -0.2715
     51  CB         8.6010   38.6670   50.7730 C.3   280  VAL280      0.0290
     52  CG1        9.6390   38.0690   49.8390 C.3   280  VAL280      0.0023
     53  CG2        9.2480   39.6530   51.8070 C.3   280  VAL280      0.0023
     54  N          6.3870   41.1430   51.2020 N.am  281  ASP281     -0.1971
     55  CA         5.4500   41.7220   52.1380 C.3   281  ASP281      0.1709
     56  C          4.1880   42.1350   51.3890 C.2   281  ASP281      0.2293
     57  O          4.2700   42.9960   50.4990 O.2   281  ASP281     -0.2864
     58  CB         6.0970   42.9300   52.7950 C.3   281  ASP281      0.1436
     59  CG         5.2060   43.5700   53.8700 C.2   281  ASP281      0.3671
     60  OD1        3.9760   43.6130   53.6840 O.co2 281  ASP281     -0.2456
     61  OD2        5.7410   44.0690   54.8700 O.co2 281  ASP281     -0.2456
     62  N          3.6000   45.9920   51.3600 N.3   284  CYS284     -0.1235
     63  CA         4.5290   46.7230   50.5110 C.3   284  CYS284      0.1677
     64  C          4.2220   46.4560   49.0460 C.2   284  CYS284      0.2270
     65  O          4.2300   47.3810   48.2490 O.2   284  CYS284     -0.2867
     66  CB         5.9790   46.3730   50.8420 C.3   284  CYS284      0.0956
     67  SG         6.3970   46.9290   52.5310 S.3   284  CYS284     -0.0801
     68  N         17.1670   45.7060   46.2340 N.3   311  ALA311     -0.1231
     69  CA        16.9600   46.6780   47.2890 C.3   311  ALA311      0.1694
     70  C         16.2380   46.0290   48.4740 C.2   311  ALA311      0.2593
     71  O         15.3980   46.6620   49.1190 O.2   311  ALA311     -0.2718
     72  CB        16.1700   47.8820   46.7770 C.3   311  ALA311      0.0304
     73  N         16.5610   44.7720   48.7790 N.am  312  THR312     -0.1939
     74  CA        15.8160   43.9840   49.7600 C.3   312  THR312      0.2028
     75  C         16.4640   43.8990   51.1340 C.2   312  THR312      0.2643
     76  O         15.7530   43.6400   52.1130 O.2   312  THR312     -0.2714
     77  CB        15.6150   42.5470   49.2780 C.3   312  THR312      0.1808
     78  OG1       16.8410   41.8270   49.3940 O.3   312  THR312     -0.2208
     79  CG2       15.1000   42.5050   47.8450 C.3   312  THR312      0.0379
     80  N         17.7840   44.0460   51.2270 N.am  313  GLY313     -0.1939
     81  CA        18.4890   43.6770   52.4300 C.3   313  GLY313      0.2014
     82  C         18.4410   42.2040   52.7730 C.2   313  GLY313      0.2638
     83  O         18.7690   41.8370   53.9050 O.2   313  GLY313     -0.2714
     84  N         18.0150   41.3510   51.8520 N.am  314  ASN314     -0.1972
     85  CA        18.0120   39.9110   52.0330 C.3   314  ASN314      0.1688
     86  C         19.1860   39.2970   51.2450 C.2   314  ASN314      0.2292
     87  O         20.0030   40.0060   50.6650 O.2   314  ASN314     -0.2864
     88  CB        16.6320   39.3850   51.6140 C.3   314  ASN314      0.1181
     89  CG        16.2270   38.1480   52.3620 C.2   314  ASN314      0.2629
     90  OD1       17.0810   37.3490   52.7460 O.2   314  ASN314     -0.2716
     91  ND2       14.9280   37.9660   52.5650 N.am  314  ASN314     -0.0877
     92  N         18.8700   37.1280   46.1720 N.3   317  ILE317     -0.1245
     93  CA        17.7690   37.7210   45.4040 C.3   317  ILE317      0.1561
     94  C         17.9530   37.4790   43.9070 C.2   317  ILE317      0.2260
     95  O         17.0090   37.1080   43.2040 O.2   317  ILE317     -0.2867
     96  CB        17.6730   39.2270   45.7040 C.3   317  ILE317      0.0252
     97  CG1       17.4800   39.4300   47.2060 C.3   317  ILE317      0.0019
     98  CG2       16.5990   39.9220   44.8180 C.3   317  ILE317      0.0019
     99  CD1       16.2390   38.7330   47.7360 C.3   317  ILE317      0.0001
@<TRIPOS>BOND
     1    32    33    1
     2    95    94    2
     3     1     2    1
     4    36    33    1
     5    36    37    1
     6    33    34    1
     7    94    93    1
     8     2     5    1
     9     2     3    1
    10    98    96    1
    11    34    35    2
    12    34    38   am
    13    18    16   ar
    14    18    20   ar
    15    93    96    1
    16    93    92    1
    17     3     4    2
    18     3     6   am
    19    96    97    1
    20    16    15   ar
    21    20    19   ar
    22    38    39    1
    23     6     7    1
    24    68    69    1
    25     9     8    2
    26    72    69    1
    27    19    17   ar
    28    15    17   ar
    29    15    14    1
    30    28    27    2
    31    97    99    1
    32    39    42    1
    33    39    40    1
    34     8     7    1
    35     8    10   am
    36    41    40    2
    37    69    70    1
    38    14    11    1
    39    42    43    1
    40    79    77    1
    41    40    47   am
    42    43    44    1
    43    27    26    1
    44    11    10    1
    45    11    12    1
    46    65    64    2
    47    70    73   am
    48    70    71    2
    49    30    29    1
    50    73    74    1
    51    64    63    1
    52    47    48    1
    53    77    78    1
    54    77    74    1
    55    26    29    1
    56    26    25    1
    57    44    45   ar
    58    44    46   ar
    59    12    13    2
    60    12    21   am
    61    74    75    1
    62    29    31    1
    63    52    51    1
    64    24    23    2
    65    48    51    1
    66    48    49    1
    67    21    22    1
    68    57    56    2
    69    63    66    1
    70    63    62    1
    71    87    86    2
    72    51    53    1
    73    66    67    1
    74    49    54   am
    75    49    50    2
    76    23    22    1
    77    75    80   am
    78    75    76    2
    79    54    55    1
    80    80    81    1
    81    86    85    1
    82    56    55    1
    83    88    85    1
    84    88    89    1
    85    84    85    1
    86    84    82   am
    87    55    58    1
    88    89    91   am
    89    89    90    2
    90    81    82    1
    91    82    83    2
    92    58    59    1
    93    60    59   ar
    94    59    61   ar
