@<TRIPOS>MOLECULE
tmp/6exjC00.pdb
 165 161 0 0 0
SMALL
GASTEIGER

@<TRIPOS>ATOM
      1  N          0.4140  100.7610   -5.1520 N.3     7  LYS7       -0.1245
      2  CA         0.8960  101.5840   -4.0530 C.3     7  LYS7        0.1561
      3  C          1.8020  102.6770   -4.5930 C.2     7  LYS7        0.2260
      4  O          2.1500  102.7100   -5.7710 O.2     7  LYS7       -0.2867
      5  CB         1.6410  100.7440   -3.0100 C.3     7  LYS7        0.0271
      6  CG         2.8830  100.0750   -3.5410 C.3     7  LYS7        0.0035
      7  CD         3.5920   99.3150   -2.4260 C.3     7  LYS7        0.0206
      8  CE         4.9930   98.8720   -2.8040 C.3     7  LYS7        0.1093
      9  NZ         5.9390  100.0270   -2.8460 N.3     7  LYS7       -0.1314
     10  N          4.5140  100.6690    1.7560 N.3    12  GLY12      -0.1210
     11  CA         4.3960   99.2490    1.5910 C.3    12  GLY12       0.1956
     12  C          3.0200   98.9110    1.0880 C.2    12  GLY12       0.2612
     13  O          2.1620   99.7720    0.8740 O.2    12  GLY12      -0.2717
     14  N          2.8310   97.6240    0.8620 N.am   13  PHE13      -0.1962
     15  CA         1.5170   97.1330    0.5830 C.3    13  PHE13       0.1771
     16  C          0.6710   96.9980    1.8080 C.2    13  PHE13       0.2620
     17  O         -0.5430   96.9110    1.6800 O.2    13  PHE13      -0.2715
     18  CB         1.6260   95.8050   -0.1310 C.3    13  PHE13       0.0574
     19  CG         2.0410   95.9420   -1.5660 C.ar   13  PHE13      -0.0200
     20  CD1        3.2970   95.5570   -2.0030 C.ar   13  PHE13      -0.0042
     21  CD2        1.1530   96.4840   -2.4850 C.ar   13  PHE13      -0.0042
     22  CE1        3.6520   95.7160   -3.3390 C.ar   13  PHE13      -0.0003
     23  CE2        1.5000   96.6480   -3.7950 C.ar   13  PHE13      -0.0003
     24  CZ         2.7370   96.2580   -4.2270 C.ar   13  PHE13      -0.0000
     25  N          1.2880   97.0150    2.9910 N.am   14  GLY14      -0.1940
     26  CA         0.5630   96.9930    4.2410 C.3    14  GLY14       0.2014
     27  C          0.1610   95.6050    4.6800 C.2    14  GLY14       0.2639
     28  O         -0.9810   95.4010    5.0880 O.2    14  GLY14      -0.2714
     29  N          1.0670   94.6380    4.6130 N.am   15  PHE15      -0.1959
     30  CA         0.7400   93.3260    5.1330 C.3    15  PHE15       0.1771
     31  C          2.0040   92.5650    5.4740 C.2    15  PHE15       0.2619
     32  O          3.0990   92.8670    5.0090 O.2    15  PHE15      -0.2715
     33  CB        -0.1280   92.4920    4.1810 C.3    15  PHE15       0.0574
     34  CG         0.5170   92.1070    2.9090 C.ar   15  PHE15      -0.0200
     35  CD1        1.3000   90.9480    2.7970 C.ar   15  PHE15      -0.0042
     36  CD2        0.2740   92.8380    1.7820 C.ar   15  PHE15      -0.0042
     37  CE1        1.8460   90.5610    1.5470 C.ar   15  PHE15      -0.0003
     38  CE2        0.8120   92.4610    0.5710 C.ar   15  PHE15      -0.0003
     39  CZ         1.5900   91.3230    0.4640 C.ar   15  PHE15      -0.0000
     40  N          1.8230   91.5860    6.3400 N.am   16  VAL16      -0.1963
     41  CA         2.8930   90.6770    6.7090 C.3    16  VAL16       0.1727
     42  C          2.5470   89.3430    6.1390 C.2    16  VAL16       0.2616
     43  O          1.4800   88.7970    6.4460 O.2    16  VAL16      -0.2715
     44  CB         3.0930   90.5900    8.2390 C.3    16  VAL16       0.0290
     45  CG1        4.1230   89.5340    8.4620 C.3    16  VAL16       0.0023
     46  CG2        3.5790   91.9010    8.7360 C.3    16  VAL16       0.0023
     47  N          3.3920   88.8500    5.2370 N.am   17  LEU17      -0.1963
     48  CA         3.2160   87.5460    4.7300 C.3    17  LEU17       0.1728
     49  C          3.9600   86.6250    5.6500 C.2    17  LEU17       0.2616
     50  O          5.0760   86.9360    6.0490 O.2    17  LEU17      -0.2715
     51  CB         3.8080   87.4570    3.3200 C.3    17  LEU17       0.0311
     52  CG         3.6510   86.1940    2.5100 C.3    17  LEU17       0.0022
     53  CD1        2.2430   86.0710    2.0810 C.3    17  LEU17       0.0001
     54  CD2        4.6380   86.2410    1.3230 C.3    17  LEU17       0.0001
     55  N          3.3910   85.4580    5.8970 N.am   18  ARG18      -0.1963
     56  CA         4.0170   84.4710    6.7290 C.3    18  ARG18       0.1729
     57  C          3.8360   83.1160    6.0840 C.2    18  ARG18       0.2617
     58  O          2.7590   82.8210    5.5720 O.2    18  ARG18      -0.2715
     59  CB         3.3560   84.5150    8.1370 C.3    18  ARG18       0.0348
     60  CG         3.9320   83.5000    9.0720 C.3    18  ARG18       0.0492
     61  CD         3.4140   83.6860   10.5300 C.3    18  ARG18       0.2205
     62  NE         4.1200   82.7390   11.4360 N.pl3  18  ARG18      -0.0865
     63  CZ         3.8490   82.6170   12.7270 C.cat  18  ARG18       0.5346
     64  NH1        2.9160   83.3870   13.2980 N.pl3  18  ARG18       0.1354
     65  NH2        4.4970   81.7020   13.4460 N.pl3  18  ARG18       0.1354
     66  N          4.8610   82.2850    6.1540 N.am   19  GLY19      -0.1940
     67  CA         4.6990   80.8860    5.8270 C.3    19  GLY19       0.2014
     68  C          6.0060   80.1230    5.7580 C.2    19  GLY19       0.2639
     69  O          7.0910   80.6160    6.0950 O.2    19  GLY19      -0.2714
     70  N          5.8580   78.8780    5.3270 N.am   20  ALA20      -0.1963
     71  CA         6.9600   77.9370    5.3310 C.3    20  ALA20       0.1728
     72  C          8.1130   78.4320    4.4740 C.2    20  ALA20       0.2616
     73  O          7.9040   78.9550    3.3760 O.2    20  ALA20      -0.2715
     74  CB         6.4540   76.6080    4.7730 C.3    20  ALA20       0.0334
     75  N          9.3270   78.2430    4.9590 N.am   21  LYS21      -0.1977
     76  CA        10.4840   78.4700    4.1390 C.3    21  LYS21       0.1596
     77  C         10.5250   77.3930    3.0640 C.2    21  LYS21       0.2287
     78  O          9.8880   76.3440    3.1960 O.2    21  LYS21      -0.2864
     79  CB        11.7670   78.4070    4.9290 C.3    21  LYS21       0.0298
     80  CG        11.8250   79.3200    6.1130 C.3    21  LYS21       0.0038
     81  CD        12.9580   78.9040    7.0460 C.3    21  LYS21       0.0206
     82  CE        14.2710   79.7030    6.8950 C.3    21  LYS21       0.1093
     83  NZ        15.2610   79.3490    8.0080 N.3    21  LYS21      -0.1314
     84  N         13.0740   75.7200    2.5190 N.3    23  GLU23      -0.1231
     85  CA        13.8860   74.6670    3.0900 C.3    23  GLU23       0.1699
     86  C         13.1190   73.7990    4.1030 C.2    23  GLU23       0.2592
     87  O         13.7530   73.0120    4.8060 O.2    23  GLU23      -0.2718
     88  CB        15.1420   75.3030    3.7120 C.3    23  GLU23       0.0402
     89  CG        14.8700   76.1630    4.9750 C.3    23  GLU23       0.1161
     90  CD        16.0860   76.3140    5.9220 C.2    23  GLU23       0.3649
     91  OE1       16.1240   75.6180    6.9770 O.co2  23  GLU23      -0.2457
     92  OE2       16.9920   77.1350    5.6150 O.co2  23  GLU23      -0.2457
     93  N         11.7900   73.8890    4.1970 N.am   24  THR24      -0.1953
     94  CA        11.0700   73.0280    5.1450 C.3    24  THR24       0.1897
     95  C         10.1040   72.1140    4.4020 C.2    24  THR24       0.2313
     96  O          9.2250   72.5930    3.6980 O.2    24  THR24      -0.2863
     97  CB        10.2870   73.8460    6.2300 C.3    24  THR24       0.1794
     98  OG1        8.9270   74.0560    5.8210 O.3    24  THR24      -0.2208
     99  CG2       10.9410   75.1990    6.5000 C.3    24  THR24       0.0378
    100  N          0.5440   82.9290    3.9810 N.3    33  TYR33      -0.1241
    101  CA        -0.6860   83.5680    4.3630 C.3    33  TYR33       0.1605
    102  C         -0.3790   84.9230    4.9640 C.2    33  TYR33       0.2264
    103  O          0.7680   85.2710    5.1810 O.2    33  TYR33      -0.2867
    104  CB        -1.4500   82.7120    5.3550 C.3    33  TYR33       0.0534
    105  CG        -0.6310   82.2910    6.5560 C.ar   33  TYR33      -0.0201
    106  CD1        0.1010   81.1410    6.5380 C.ar   33  TYR33      -0.0009
    107  CD2       -0.5700   83.0820    7.6810 C.ar   33  TYR33      -0.0009
    108  CE1        0.8610   80.7290    7.6600 C.ar   33  TYR33       0.0417
    109  CE2        0.1670   82.6820    8.7400 C.ar   33  TYR33       0.0417
    110  CZ         0.8960   81.5080    8.7100 C.ar   33  TYR33       0.1957
    111  OH         1.6530   81.0780    9.7780 O.3    33  TYR33      -0.2866
    112  N         -0.2220   87.1110    7.8980 N.3    35  GLU35      -0.1245
    113  CA        -0.1410   87.0840    9.3470 C.3    35  GLU35       0.1567
    114  C         -0.8240   88.3030    9.9090 C.2    35  GLU35       0.2260
    115  O         -1.5140   88.2170   10.9160 O.2    35  GLU35      -0.2867
    116  CB         1.3300   86.9900    9.7650 C.3    35  GLU35       0.0388
    117  CG         1.7140   87.3100   11.1740 C.3    35  GLU35       0.1160
    118  CD         1.1290   86.3250   12.1750 C.2    35  GLU35       0.3649
    119  OE1        1.0170   86.7400   13.3400 O.co2  35  GLU35      -0.2457
    120  OE2        0.7530   85.1940   11.7760 O.co2  35  GLU35      -0.2457
    121  N          8.6770   80.5360    1.2820 N.3    67  HIS67      -0.1226
    122  CA         8.3470   81.9030    1.6640 C.3    67  HIS67       0.1752
    123  C          9.1490   82.9230    0.8720 C.2    67  HIS67       0.2595
    124  O          8.6150   83.9380    0.4040 O.2    67  HIS67      -0.2718
    125  CB         8.6070   82.0570    3.1800 C.3    67  HIS67       0.0759
    126  CG         8.3470   83.4370    3.6960 C.ar   67  HIS67       0.0818
    127  ND1        7.0940   83.9010    3.9780 N.ar   67  HIS67      -0.2268
    128  CD2        9.1970   84.4310    3.9970 C.ar   67  HIS67       0.1154
    129  CE1        7.1790   85.1520    4.3650 C.ar   67  HIS67       0.1986
    130  NE2        8.4500   85.4990    4.3460 N.ar   67  HIS67      -0.2212
    131  N         10.4550   82.7200    0.8280 N.am   68  LYS68      -0.1980
    132  CA        11.3320   83.7050    0.2380 C.3    68  LYS68       0.1596
    133  C         11.0140   83.8530   -1.2350 C.2    68  LYS68       0.2287
    134  O         11.1380   84.9460   -1.8030 O.2    68  LYS68      -0.2864
    135  CB        12.7710   83.3010    0.4640 C.3    68  LYS68       0.0298
    136  CG        13.1650   83.3650    1.9090 C.3    68  LYS68       0.0038
    137  CD        14.6890   83.0830    2.1530 C.3    68  LYS68       0.0206
    138  CE        15.1960   83.7020    3.4760 C.3    68  LYS68       0.1093
    139  NZ        16.6980   83.5550    3.6110 N.3    68  LYS68      -0.1314
    140  N          7.9800   85.9700   -1.6010 N.3    71  VAL71      -0.1245
    141  CA         8.2760   87.3630   -1.3500 C.3    71  VAL71       0.1561
    142  C          8.9370   87.9640   -2.5670 C.2    71  VAL71       0.2260
    143  O          8.6300   89.0880   -2.9450 O.2    71  VAL71      -0.2867
    144  CB         9.1400   87.5280   -0.0750 C.3    71  VAL71       0.0252
    145  CG1        9.6850   88.9640   -0.0100 C.3    71  VAL71       0.0019
    146  CG2        8.3210   87.1940    1.0850 C.3    71  VAL71       0.0019
    147  N          6.2480   88.8790   -5.0760 N.3    74  ILE74      -0.1231
    148  CA         5.4800   90.0650   -4.7170 C.3    74  ILE74       0.1692
    149  C          6.2550   91.3100   -4.9960 C.2    74  ILE74       0.2591
    150  O          5.6780   92.3760   -5.2400 O.2    74  ILE74      -0.2718
    151  CB         5.0980   89.9870   -3.2400 C.3    74  ILE74       0.0266
    152  CG1        4.1850   88.8020   -3.0630 C.3    74  ILE74       0.0019
    153  CG2        4.5100   91.3610   -2.7590 C.3    74  ILE74       0.0020
    154  CD1        3.8120   88.4700   -1.5330 C.3    74  ILE74       0.0001
    155  N          7.5700   91.2110   -4.9640 N.am   75  ARG75      -0.1980
    156  CA         8.4110   92.3900   -5.1200 C.3    75  ARG75       0.1597
    157  C          8.7140   92.6450   -6.5920 C.2    75  ARG75       0.2287
    158  O          8.9980   93.7830   -6.9960 O.2    75  ARG75      -0.2864
    159  CB         9.6990   92.2140   -4.3130 C.3    75  ARG75       0.0334
    160  CG         9.5910   92.7340   -2.8700 C.3    75  ARG75       0.0492
    161  CD        10.6960   92.2780   -1.9240 C.3    75  ARG75       0.2205
    162  NE        10.3790   92.8290   -0.5990 N.pl3  75  ARG75      -0.0865
    163  CZ        10.9190   92.4670    0.5520 C.cat  75  ARG75       0.5346
    164  NH1       11.8610   91.5260    0.6200 N.pl3  75  ARG75       0.1354
    165  NH2       10.4990   93.0840    1.6410 N.pl3  75  ARG75       0.1354
@<TRIPOS>BOND
     1   158   157    2
     2   157   156    1
     3     4     3    2
     4   150   149    2
     5     1     2    1
     6   156   155    1
     7   156   159    1
     8   147   148    1
     9   149   155   am
    10   149   148    1
    11   148   151    1
    12     3     2    1
    13   159   160    1
    14    24    23   ar
    15    24    22   ar
    16     2     5    1
    17    23    21   ar
    18     6     5    1
    19     6     7    1
    20    22    20   ar
    21   151   152    1
    22   151   153    1
    23   152   154    1
    24   143   142    2
    25   160   161    1
    26     9     8    1
    27     8     7    1
    28   142   141    1
    29    21    19   ar
    30    20    19   ar
    31   161   162    1
    32   134   133    2
    33   140   141    1
    34    19    18    1
    35   141   144    1
    36   133   132    1
    37   162   163    2
    38    18    15    1
    39   144   145    1
    40   144   146    1
    41   132   135    1
    42   132   131    1
    43   124   123    2
    44    39    38   ar
    45    39    37   ar
    46   135   136    1
    47   163   164    1
    48   163   165    1
    49    38    36   ar
    50    15    14    1
    51    15    16    1
    52   131   123   am
    53    14    12   am
    54   123   122    1
    55    13    12    2
    56    12    11    1
    57   121   122    1
    58    54    52    1
    59    37    35   ar
    60    11    10    1
    61   122   125    1
    62    17    16    2
    63    36    34   ar
    64    16    25   am
    65   136   137    1
    66    53    52    1
    67   137   138    1
    68    52    51    1
    69    84    85    1
    70    35    34   ar
    71    34    33    1
    72    25    26    1
    73    77    78    2
    74    77    76    1
    75    85    88    1
    76    85    86    1
    77   125   126    1
    78    51    48    1
    79    73    72    2
    80   138   139    1
    81   126   127   ar
    82   126   128   ar
    83    96    95    2
    84    88    89    1
    85   127   129   ar
    86   100   101    1
    87   128   130   ar
    88    86    93   am
    89    86    87    2
    90    76    79    1
    91    76    75    1
    92    33    30    1
    93    93    94    1
    94    26    27    1
    95   130   129   ar
    96   101   102    1
    97   101   104    1
    98    95    94    1
    99    72    75   am
   100    72    71    1
   101    29    27   am
   102    29    30    1
   103    27    28    2
   104    48    47    1
   105    48    49    1
   106    74    71    1
   107    79    80    1
   108   102   103    2
   109    89    90    1
   110    32    31    2
   111    30    31    1
   112    94    97    1
   113    47    42   am
   114    70    71    1
   115    70    68   am
   116   104   105    1
   117    31    40   am
   118    58    57    2
   119    92    90   ar
   120    49    55   am
   121    49    50    2
   122    68    67    1
   123    68    69    2
   124    98    97    1
   125    67    66    1
   126    55    56    1
   127    90    91   ar
   128    57    66   am
   129    57    56    1
   130    80    81    1
   131    42    43    2
   132    42    41    1
   133    97    99    1
   134    40    41    1
   135   106   105   ar
   136   106   108   ar
   137   105   107   ar
   138    41    44    1
   139    56    59    1
   140    82    81    1
   141    82    83    1
   142   108   110   ar
   143   107   109   ar
   144   112   113    1
   145    59    60    1
   146    44    45    1
   147    44    46    1
   148   110   109   ar
   149   110   111    1
   150    60    61    1
   151   113   116    1
   152   113   114    1
   153   116   117    1
   154   114   115    2
   155    61    62    1
   156   117   118    1
   157    62    63    2
   158   120   118   ar
   159   118   119   ar
   160    63    64    1
   161    63    65    1
