@<TRIPOS>MOLECULE
tmp/6exlB00.pdb
 194 189 0 0 0
SMALL
GASTEIGER

@<TRIPOS>ATOM
      1  N        -10.5730  -41.9790   31.8790 N.3     3  ASN3       -0.1240
      2  CA       -11.1890  -41.3680   30.6950 C.3     3  ASN3        0.1653
      3  C        -10.9880  -42.3400   29.5360 C.2     3  ASN3        0.2266
      4  O         -9.9240  -42.3760   28.9110 O.2     3  ASN3       -0.2867
      5  CB       -10.5780  -39.9950   30.4190 C.3     3  ASN3        0.1155
      6  CG       -11.1530  -39.3050   29.1670 C.2     3  ASN3        0.2627
      7  OD1      -11.7730  -39.9410   28.3020 O.2     3  ASN3       -0.2716
      8  ND2      -10.9080  -37.9860   29.0570 N.am    3  ASN3       -0.0877
      9  N         -0.9580  -30.3910   34.6210 N.3    46  ILE46      -0.1245
     10  CA        -1.6880  -29.1340   34.5410 C.3    46  ILE46       0.1561
     11  C         -0.8110  -28.1190   33.8170 C.2    46  ILE46       0.2260
     12  O          0.3840  -27.9680   34.1240 O.2    46  ILE46      -0.2867
     13  CB        -2.0990  -28.5890   35.9180 C.3    46  ILE46       0.0252
     14  CG1       -2.8670  -29.6620   36.7090 C.3    46  ILE46       0.0019
     15  CG2       -2.9380  -27.3700   35.7260 C.3    46  ILE46       0.0019
     16  CD1       -3.1470  -29.3290   38.1280 C.3    46  ILE46       0.0001
     17  N         -5.9260  -19.5660   29.7410 N.3    62  GLN62      -0.1231
     18  CA        -6.6990  -20.7850   29.8690 C.3    62  GLN62       0.1698
     19  C         -5.8550  -21.7900   30.6230 C.2    62  GLN62       0.2592
     20  O         -4.6460  -21.8220   30.4460 O.2    62  GLN62      -0.2718
     21  CB        -7.0510  -21.3270   28.4860 C.3    62  GLN62       0.0381
     22  CG        -7.8320  -22.6270   28.4110 C.3    62  GLN62       0.0905
     23  CD        -9.2500  -22.4390   28.8640 C.2    62  GLN62       0.2608
     24  OE1      -10.0390  -21.7710   28.2070 O.2    62  GLN62      -0.2717
     25  NE2       -9.5800  -23.0290   30.0020 N.am   62  GLN62      -0.0878
     26  N         -6.5030  -22.6180   31.4500 N.am   63  TYR63      -0.1962
     27  CA        -5.8870  -23.7750   32.0830 C.3    63  TYR63       0.1771
     28  C         -6.3600  -25.0590   31.4310 C.2    63  TYR63       0.2620
     29  O         -7.5190  -25.1810   31.0180 O.2    63  TYR63      -0.2715
     30  CB        -6.2020  -23.8460   33.5910 C.3    63  TYR63       0.0574
     31  CG        -5.6750  -22.6670   34.3220 C.ar   63  TYR63      -0.0198
     32  CD1       -4.3210  -22.5400   34.5640 C.ar   63  TYR63      -0.0009
     33  CD2       -6.5160  -21.6270   34.7390 C.ar   63  TYR63      -0.0009
     34  CE1       -3.8040  -21.4380   35.1980 C.ar   63  TYR63       0.0417
     35  CE2       -5.9980  -20.5030   35.3820 C.ar   63  TYR63       0.0417
     36  CZ        -4.6300  -20.4230   35.6040 C.ar   63  TYR63       0.1957
     37  OH        -4.0860  -19.3330   36.2290 O.3    63  TYR63      -0.2866
     38  N         -5.4580  -26.0070   31.3490 N.am   64  TYR64      -0.1960
     39  CA        -5.7690  -27.3390   30.8690 C.3    64  TYR64       0.1771
     40  C         -5.1790  -28.3930   31.7890 C.2    64  TYR64       0.2619
     41  O         -4.0310  -28.2660   32.2190 O.2    64  TYR64      -0.2715
     42  CB        -5.1860  -27.5650   29.4980 C.3    64  TYR64       0.0574
     43  CG        -5.5830  -26.6080   28.4110 C.ar   64  TYR64      -0.0198
     44  CD1       -6.7570  -26.7650   27.7280 C.ar   64  TYR64      -0.0009
     45  CD2       -4.7350  -25.5990   28.0200 C.ar   64  TYR64      -0.0009
     46  CE1       -7.1260  -25.8920   26.7220 C.ar   64  TYR64       0.0417
     47  CE2       -5.0770  -24.7360   27.0070 C.ar   64  TYR64       0.0417
     48  CZ        -6.2720  -24.8850   26.3620 C.ar   64  TYR64       0.1957
     49  OH        -6.6280  -24.0600   25.3420 O.3    64  TYR64      -0.2866
     50  N         -5.9110  -29.4820   31.9940 N.am   65  LYS65      -0.1977
     51  CA        -5.3830  -30.6370   32.7110 C.3    65  LYS65       0.1596
     52  C         -5.4610  -31.8810   31.8360 C.2    65  LYS65       0.2287
     53  O         -6.3530  -32.0250   30.9940 O.2    65  LYS65      -0.2864
     54  CB        -6.1420  -30.9000   34.0130 C.3    65  LYS65       0.0298
     55  CG        -7.6160  -31.2640   33.7930 C.3    65  LYS65       0.0038
     56  CD        -8.2200  -31.9780   35.0170 C.3    65  LYS65       0.0206
     57  CE        -9.1850  -33.1000   34.5920 C.3    65  LYS65       0.1093
     58  NZ        -8.5050  -34.4500   34.5330 N.3    65  LYS65      -0.1314
     59  N         -6.5100  -35.5950   31.0180 N.3    67  ALA67      -0.1231
     60  CA        -6.2430  -35.7480   29.6060 C.3    67  ALA67       0.1694
     61  C         -6.9870  -34.7100   28.7650 C.2    67  ALA67       0.2592
     62  O         -8.1760  -34.4800   28.9570 O.2    67  ALA67      -0.2718
     63  CB        -6.6300  -37.1330   29.1680 C.3    67  ALA67       0.0304
     64  N         -6.2930  -34.1270   27.8000 N.am   68  PHE68      -0.1976
     65  CA        -6.9070  -33.1450   26.9120 C.3    68  PHE68       0.1639
     66  C         -6.0320  -32.9680   25.6770 C.2    68  PHE68       0.2290
     67  O         -4.9050  -33.4570   25.6100 O.2    68  PHE68      -0.2864
     68  CB        -7.1130  -31.8170   27.6210 C.3    68  PHE68       0.0560
     69  CG        -8.2840  -31.0010   27.0780 C.ar   68  PHE68      -0.0200
     70  CD1       -9.5820  -31.4080   27.3060 C.ar   68  PHE68      -0.0042
     71  CD2       -8.0810  -29.8310   26.3470 C.ar   68  PHE68      -0.0042
     72  CE1      -10.6470  -30.6780   26.8210 C.ar   68  PHE68      -0.0003
     73  CE2       -9.1530  -29.0940   25.8640 C.ar   68  PHE68      -0.0003
     74  CZ       -10.4350  -29.5190   26.1070 C.ar   68  PHE68      -0.0000
     75  N        -15.8000  -28.7230   23.8640 N.3   123  LYS123     -0.1231
     76  CA       -15.7780  -28.4660   25.2990 C.3   123  LYS123      0.1693
     77  C        -15.0630  -27.1580   25.6170 C.2   123  LYS123      0.2591
     78  O        -15.5160  -26.4100   26.4810 O.2   123  LYS123     -0.2718
     79  CB       -15.1310  -29.6300   26.0600 C.3   123  LYS123      0.0285
     80  CG       -16.1050  -30.7560   26.3050 C.3   123  LYS123      0.0035
     81  CD       -15.6010  -31.7530   27.3040 C.3   123  LYS123      0.0206
     82  CE       -16.3390  -33.0680   27.1800 C.3   123  LYS123      0.1093
     83  NZ       -15.5620  -34.1280   27.9010 N.3   123  LYS123     -0.1314
     84  N        -13.9900  -26.8380   24.9000 N.am  124  GLN124     -0.1979
     85  CA       -13.3200  -25.5510   25.0950 C.3   124  GLN124      0.1601
     86  C        -14.2380  -24.3960   24.7270 C.2   124  GLN124      0.2287
     87  O        -14.3230  -23.4100   25.4610 O.2   124  GLN124     -0.2864
     88  CB       -12.0480  -25.4350   24.2420 C.3   124  GLN124      0.0394
     89  CG       -10.8610  -26.2590   24.6090 C.3   124  GLN124      0.0908
     90  CD        -9.5940  -25.7280   23.9350 C.2   124  GLN124      0.2608
     91  OE1       -9.1890  -24.5820   24.1740 O.2   124  GLN124     -0.2717
     92  NE2       -8.9770  -26.5430   23.0730 N.am  124  GLN124     -0.0878
     93  N        -16.9130  -24.0440   27.2370 N.3   127  TYR127     -0.1241
     94  CA       -16.2760  -23.5520   28.4680 C.3   127  TYR127      0.1605
     95  C        -16.1170  -22.0320   28.4450 C.2   127  TYR127      0.2264
     96  O        -16.4820  -21.3470   29.3980 O.2   127  TYR127     -0.2867
     97  CB       -14.9210  -24.2280   28.6610 C.3   127  TYR127      0.0534
     98  CG       -14.2020  -23.7200   29.8810 C.ar  127  TYR127     -0.0201
     99  CD1      -14.4850  -24.2270   31.1700 C.ar  127  TYR127     -0.0009
    100  CD2      -13.2200  -22.7470   29.7550 C.ar  127  TYR127     -0.0009
    101  CE1      -13.8010  -23.6980   32.3010 C.ar  127  TYR127      0.0417
    102  CE2      -12.5550  -22.2170   30.8630 C.ar  127  TYR127      0.0417
    103  CZ       -12.8340  -22.6980   32.1160 C.ar  127  TYR127      0.1957
    104  OH       -12.1180  -22.1410   33.1580 O.3   127  TYR127     -0.2866
    105  N        -13.7400  -20.9410   39.1390 N.3   147  GLN147     -0.1245
    106  CA       -12.4640  -21.6390   39.1960 C.3   147  GLN147      0.1566
    107  C        -12.4250  -22.5670   40.4140 C.2   147  GLN147      0.2260
    108  O        -12.0430  -23.7330   40.3070 O.2   147  GLN147     -0.2867
    109  CB       -11.3410  -20.5920   39.2140 C.3   147  GLN147      0.0367
    110  CG        -9.9830  -21.0110   38.7490 C.3   147  GLN147      0.0905
    111  CD        -9.0270  -19.7940   38.6260 C.2   147  GLN147      0.2608
    112  OE1       -8.6850  -19.1430   39.6190 O.2   147  GLN147     -0.2717
    113  NE2       -8.6200  -19.4820   37.3970 N.am  147  GLN147     -0.0878
    114  N        -14.7650  -25.7400   39.8030 N.3   150  ILE150     -0.1231
    115  CA       -14.1220  -26.7620   38.9800 C.3   150  ILE150      0.1692
    116  C        -13.0380  -27.4730   39.7860 C.2   150  ILE150      0.2591
    117  O        -12.9610  -28.6980   39.8170 O.2   150  ILE150     -0.2718
    118  CB       -13.5470  -26.1290   37.7010 C.3   150  ILE150      0.0266
    119  CG1      -14.6760  -25.5790   36.7990 C.3   150  ILE150      0.0019
    120  CG2      -12.6650  -27.1170   36.9410 C.3   150  ILE150      0.0020
    121  CD1      -15.9460  -26.4440   36.7180 C.3   150  ILE150      0.0001
    122  N        -12.2190  -26.7130   40.4850 N.am  151  LEU151     -0.1980
    123  CA       -11.1920  -27.3310   41.3040 C.3   151  LEU151      0.1596
    124  C        -11.8060  -28.2800   42.3150 C.2   151  LEU151      0.2287
    125  O        -11.2760  -29.3720   42.5610 O.2   151  LEU151     -0.2864
    126  CB       -10.3920  -26.2660   42.0250 C.3   151  LEU151      0.0297
    127  CG        -9.4400  -25.4500   41.1670 C.3   151  LEU151      0.0022
    128  CD1       -8.7490  -24.4590   42.0710 C.3   151  LEU151      0.0001
    129  CD2       -8.4270  -26.3540   40.5020 C.3   151  LEU151      0.0001
    130  N        -13.0350  -31.4240   40.4860 N.3   154  VAL154     -0.1231
    131  CA       -12.0100  -32.2720   39.8820 C.3   154  VAL154      0.1692
    132  C        -11.0490  -32.8400   40.9290 C.2   154  VAL154      0.2592
    133  O        -10.5970  -33.9870   40.8190 O.2   154  VAL154     -0.2718
    134  CB       -11.2250  -31.4540   38.8360 C.3   154  VAL154      0.0266
    135  CG1       -9.9940  -32.1970   38.4000 C.3   154  VAL154      0.0020
    136  CG2      -12.1440  -31.1340   37.6150 C.3   154  VAL154      0.0020
    137  N        -10.6400  -32.0140   41.8840 N.am  155  TYR155     -0.1976
    138  CA        -9.5820  -32.3640   42.8240 C.3   155  TYR155      0.1639
    139  C        -10.0640  -32.5020   44.2520 C.2   155  TYR155      0.2290
    140  O         -9.2540  -32.7750   45.1470 O.2   155  TYR155     -0.2864
    141  CB        -8.4970  -31.3020   42.7610 C.3   155  TYR155      0.0560
    142  CG        -7.8660  -31.2290   41.4060 C.ar  155  TYR155     -0.0198
    143  CD1       -7.0410  -32.2310   40.9730 C.ar  155  TYR155     -0.0009
    144  CD2       -8.0940  -30.1440   40.5630 C.ar  155  TYR155     -0.0009
    145  CE1       -6.4520  -32.1800   39.7660 C.ar  155  TYR155      0.0417
    146  CE2       -7.5080  -30.0830   39.3340 C.ar  155  TYR155      0.0417
    147  CZ        -6.6790  -31.1090   38.9440 C.ar  155  TYR155      0.1957
    148  OH        -6.0770  -31.1030   37.7180 O.3   155  TYR155     -0.2866
    149  N         -2.0260  -21.3780   40.5460 N.3   175  LEU175     -0.1245
    150  CA        -3.4050  -21.0910   40.1640 C.3   175  LEU175      0.1561
    151  C         -3.9020  -19.7640   40.7260 C.2   175  LEU175      0.2260
    152  O         -4.9870  -19.3090   40.3390 O.2   175  LEU175     -0.2867
    153  CB        -4.3320  -22.2270   40.6170 C.3   175  LEU175      0.0270
    154  CG        -4.2230  -23.5570   39.8490 C.3   175  LEU175      0.0019
    155  CD1       -5.2350  -24.5390   40.3760 C.3   175  LEU175      0.0001
    156  CD2       -4.4180  -23.3970   38.3510 C.3   175  LEU175      0.0001
    157  N        -21.0280  -21.9690   34.6160 N.3   215  LEU215     -0.1245
    158  CA       -19.9640  -22.9580   34.6000 C.3   215  LEU215      0.1561
    159  C        -20.4020  -24.2500   35.2680 C.2   215  LEU215      0.2260
    160  O        -19.9230  -25.3270   34.9160 O.2   215  LEU215     -0.2867
    161  CB       -18.6980  -22.4200   35.3140 C.3   215  LEU215      0.0270
    162  CG       -17.4170  -22.0420   34.5940 C.3   215  LEU215      0.0019
    163  CD1      -16.2880  -22.1020   35.6260 C.3   215  LEU215      0.0001
    164  CD2      -17.1040  -22.8960   33.4040 C.3   215  LEU215      0.0001
    165  N        -22.1510  -25.9790   32.6080 N.3   218  TRP218     -0.1227
    166  CA       -21.1810  -26.5260   31.6610 C.3   218  TRP218      0.1737
    167  C        -20.5980  -27.8170   32.1930 C.2   218  TRP218      0.2595
    168  O        -20.4770  -28.8130   31.4690 O.2   218  TRP218     -0.2718
    169  CB       -20.0570  -25.4990   31.4010 C.3   218  TRP218      0.0564
    170  CG       -18.9470  -26.0330   30.5640 C.ar  218  TRP218      0.0003
    171  CD1      -18.8980  -26.1430   29.2180 C.ar  218  TRP218      0.0946
    172  CD2      -17.7550  -26.5960   31.0640 C.ar  218  TRP218      0.0152
    173  NE1      -17.7120  -26.7520   28.8430 N.ar  218  TRP218     -0.2442
    174  CE2      -16.9950  -27.0130   29.9750 C.ar  218  TRP218      0.0810
    175  CE3      -17.2460  -26.7620   32.3490 C.ar  218  TRP218      0.0012
    176  CZ2      -15.7620  -27.6030   30.1260 C.ar  218  TRP218      0.0191
    177  CZ3      -15.9890  -27.3200   32.4970 C.ar  218  TRP218      0.0001
    178  CH2      -15.2820  -27.7560   31.4030 C.ar  218  TRP218      0.0015
    179  N        -20.2330  -27.8280   33.4630 N.am  219  PHE219     -0.1976
    180  CA       -19.5910  -29.0270   33.9980 C.3   219  PHE219      0.1639
    181  C        -20.5840  -30.2000   34.0850 C.2   219  PHE219      0.2290
    182  O        -20.2340  -31.3670   33.8130 O.2   219  PHE219     -0.2864
    183  CB       -18.9890  -28.7300   35.3550 C.3   219  PHE219      0.0560
    184  CG       -17.9310  -29.7260   35.7740 C.ar  219  PHE219     -0.0200
    185  CD1      -16.6610  -29.7080   35.1930 C.ar  219  PHE219     -0.0042
    186  CD2      -18.2260  -30.7180   36.6960 C.ar  219  PHE219     -0.0042
    187  CE1      -15.7020  -30.6370   35.5480 C.ar  219  PHE219     -0.0003
    188  CE2      -17.2570  -31.6570   37.0670 C.ar  219  PHE219     -0.0003
    189  CZ       -15.9900  -31.6130   36.4860 C.ar  219  PHE219     -0.0000
    190  N        -20.7900  -31.2760   30.3290 N.3   222  ALA222     -0.1245
    191  CA       -19.5350  -31.8180   29.8300 C.3   222  ALA222      0.1562
    192  C        -18.9410  -32.9720   30.6590 C.2   222  ALA222      0.2260
    193  O        -18.3660  -33.8930   30.1000 O.2   222  ALA222     -0.2867
    194  CB       -18.5170  -30.7030   29.6870 C.3   222  ALA222      0.0290
@<TRIPOS>BOND
     1    92    90   am
     2    75    76    1
     3    90    91    2
     4    90    89    1
     5    88    89    1
     6    88    85    1
     7    86    85    1
     8    86    87    2
     9    84    85    1
    10    84    77   am
    11    76    77    1
    12    76    79    1
    13    49    48    1
    14    67    66    2
    15    77    78    2
    16    66    65    1
    17    73    74   ar
    18    73    71   ar
    19    79    80    1
    20    74    72   ar
    21    80    81    1
    22    71    69   ar
    23    48    46   ar
    24    48    47   ar
    25    46    44   ar
    26    72    70   ar
    27    65    68    1
    28    65    64    1
    29    47    45   ar
    30    69    70   ar
    31    69    68    1
    32    82    81    1
    33    82    83    1
    34    93    94    1
    35    44    43   ar
    36    64    61   am
    37    45    43   ar
    38    24    23    2
    39     7     6    2
    40    43    42    1
    41    22    21    1
    42    22    23    1
    43    95    94    1
    44    95    96    2
    45    94    97    1
    46    21    18    1
    47    97    98    1
    48    61    62    2
    49    61    60    1
    50   173   171   ar
    51   173   174   ar
    52    23    25   am
    53     4     3    2
    54     8     6   am
    55     6     5    1
    56    63    60    1
    57   171   170   ar
    58    42    39    1
    59     3     2    1
    60    60    59    1
    61   194   191    1
    62    17    18    1
    63   100    98   ar
    64   100   102   ar
    65   191   190    1
    66   191   192    1
    67    18    19    1
    68    98    99   ar
    69   174   176   ar
    70   174   172   ar
    71   193   192    2
    72   176   178   ar
    73     5     2    1
    74    20    19    2
    75   170   172   ar
    76   170   169    1
    77    19    26   am
    78     2     1    1
    79   102   103   ar
    80    39    38    1
    81    39    40    1
    82    53    52    2
    83    29    28    2
    84   172   175   ar
    85    99   101   ar
    86    38    28   am
    87   169   166    1
    88   178   177   ar
    89    28    27    1
    90    26    27    1
    91   168   167    2
    92   166   167    1
    93   166   165    1
    94    40    50   am
    95    40    41    2
    96    52    51    1
    97    50    51    1
    98    27    30    1
    99   103   101   ar
   100   103   104    1
   101   167   179   am
   102   175   177   ar
   103    51    54    1
   104   164   162    1
   105   179   180    1
   106    30    31    1
   107    55    54    1
   108    55    56    1
   109   182   181    2
   110    11    12    2
   111    11    10    1
   112   180   181    1
   113   180   183    1
   114    31    32   ar
   115    31    33   ar
   116    58    57    1
   117    10     9    1
   118    10    13    1
   119    32    34   ar
   120    57    56    1
   121   162   161    1
   122   162   163    1
   123   158   157    1
   124   158   159    1
   125   158   161    1
   126    33    35   ar
   127   160   159    2
   128   185   187   ar
   129   185   184   ar
   130    34    36   ar
   131   183   184    1
   132    35    36   ar
   133   187   189   ar
   134    36    37    1
   135    15    13    1
   136   184   186   ar
   137    13    14    1
   138   189   188   ar
   139   186   188   ar
   140    14    16    1
   141   121   119    1
   142   119   118    1
   143   120   118    1
   144   113   111   am
   145   136   134    1
   146   118   115    1
   147   148   147    1
   148   156   154    1
   149   135   134    1
   150   111   110    1
   151   111   112    2
   152   110   109    1
   153   134   131    1
   154   147   146   ar
   155   147   145   ar
   156   115   116    1
   157   115   114    1
   158   105   106    1
   159   106   109    1
   160   106   107    1
   161   146   144   ar
   162   145   143   ar
   163   116   117    2
   164   116   122   am
   165   154   155    1
   166   154   153    1
   167   131   130    1
   168   131   132    1
   169   150   149    1
   170   150   153    1
   171   150   151    1
   172   108   107    2
   173   152   151    2
   174   122   123    1
   175   129   127    1
   176   144   142   ar
   177   133   132    2
   178   132   137   am
   179   143   142   ar
   180   127   126    1
   181   127   128    1
   182   123   126    1
   183   123   124    1
   184   142   141    1
   185   137   138    1
   186   124   125    2
   187   141   138    1
   188   138   139    1
   189   139   140    2
