@<TRIPOS>MOLECULE
tmp/6exmB00.pdb
 191 188 0 0 0
SMALL
GASTEIGER

@<TRIPOS>ATOM
      1  N         58.3640  131.0080   32.2280 N.3     1  ASN1       -0.1240
      2  CA        58.9050  130.4380   30.9960 C.3     1  ASN1        0.1653
      3  C         58.6430  131.3770   29.8160 C.2     1  ASN1        0.2266
      4  O         57.5450  131.4150   29.2880 O.2     1  ASN1       -0.2867
      5  CB        58.2910  129.0550   30.7510 C.3     1  ASN1        0.1155
      6  CG        58.8860  128.3370   29.5490 C.2     1  ASN1        0.2627
      7  OD1       59.5980  128.9250   28.7320 O.2     1  ASN1       -0.2716
      8  ND2       58.5690  127.0480   29.4250 N.am    1  ASN1       -0.0877
      9  N         48.6780  119.2300   34.6730 N.3    44  ILE44      -0.1245
     10  CA        49.4150  117.9680   34.5550 C.3    44  ILE44       0.1561
     11  C         48.5640  116.9370   33.8430 C.2    44  ILE44       0.2260
     12  O         47.3690  116.7480   34.1500 O.2    44  ILE44      -0.2867
     13  CB        49.8450  117.3950   35.9130 C.3    44  ILE44       0.0252
     14  CG1       50.5700  118.4780   36.7170 C.3    44  ILE44       0.0019
     15  CG2       50.7130  116.1770   35.6800 C.3    44  ILE44       0.0019
     16  CD1       50.8670  118.0910   38.1600 C.3    44  ILE44       0.0001
     17  N         53.7380  108.3510   29.7840 N.3    60  GLN60      -0.1231
     18  CA        54.5000  109.6110   29.8820 C.3    60  GLN60       0.1698
     19  C         53.6480  110.5870   30.7000 C.2    60  GLN60       0.2592
     20  O         52.4120  110.4860   30.6680 O.2    60  GLN60      -0.2718
     21  CB        54.8010  110.1370   28.4960 C.3    60  GLN60       0.0381
     22  CG        55.7220  111.3840   28.3840 C.3    60  GLN60       0.0905
     23  CD        57.0380  111.2450   29.0720 C.2    60  GLN60       0.2608
     24  OE1       57.8550  110.3800   28.7550 O.2    60  GLN60      -0.2717
     25  NE2       57.2830  112.1500   30.0230 N.am   60  GLN60      -0.0878
     26  N         54.2970  111.4730   31.4680 N.am   61  TYR61      -0.1962
     27  CA        53.6400  112.6120   32.0750 C.3    61  TYR61       0.1771
     28  C         54.1270  113.9010   31.4560 C.2    61  TYR61       0.2620
     29  O         55.2880  114.0180   31.0210 O.2    61  TYR61      -0.2715
     30  CB        53.8740  112.6080   33.5890 C.3    61  TYR61       0.0574
     31  CG        53.3280  111.3670   34.2470 C.ar   61  TYR61      -0.0198
     32  CD1       52.0260  111.2930   34.6640 C.ar   61  TYR61      -0.0009
     33  CD2       54.1270  110.2340   34.4010 C.ar   61  TYR61      -0.0009
     34  CE1       51.5240  110.1410   35.2440 C.ar   61  TYR61       0.0417
     35  CE2       53.6280  109.0740   34.9740 C.ar   61  TYR61       0.0417
     36  CZ        52.3130  109.0420   35.3950 C.ar   61  TYR61       0.1957
     37  OH        51.7780  107.9090   35.9760 O.3    61  TYR61      -0.2866
     38  N         53.2620  114.9110   31.4370 N.am   62  TYR62      -0.1960
     39  CA        53.5870  116.2210   30.9610 C.3    62  TYR62       0.1771
     40  C         53.0010  117.2570   31.8940 C.2    62  TYR62       0.2619
     41  O         51.8790  117.0660   32.3480 O.2    62  TYR62      -0.2715
     42  CB        53.0430  116.4910   29.5680 C.3    62  TYR62       0.0574
     43  CG        53.3550  115.4750   28.5090 C.ar   62  TYR62      -0.0198
     44  CD1       54.5430  115.5000   27.8050 C.ar   62  TYR62      -0.0009
     45  CD2       52.4610  114.4860   28.2170 C.ar   62  TYR62      -0.0009
     46  CE1       54.7980  114.5670   26.8360 C.ar   62  TYR62       0.0417
     47  CE2       52.7100  113.5880   27.2460 C.ar   62  TYR62       0.0417
     48  CZ        53.8600  113.6090   26.5830 C.ar   62  TYR62       0.1957
     49  OH        54.0510  112.6570   25.6240 O.3    62  TYR62      -0.2866
     50  N         53.6830  118.3810   32.0640 N.am   63  LYS63      -0.1963
     51  CA        53.1600  119.5250   32.7940 C.3    63  LYS63       0.1728
     52  C         53.2410  120.7620   31.9180 C.2    63  LYS63       0.2617
     53  O         54.1080  120.8790   31.0640 O.2    63  LYS63      -0.2715
     54  CB        53.9300  119.7740   34.0750 C.3    63  LYS63       0.0311
     55  CG        55.3910  120.2210   33.8520 C.3    63  LYS63       0.0038
     56  CD        56.0180  120.7550   35.1480 C.3    63  LYS63       0.0206
     57  CE        55.4660  122.1350   35.5020 C.3    63  LYS63       0.1093
     58  NZ        55.8630  122.6070   36.8490 N.3    63  LYS63      -0.1314
     59  N         52.3430  121.7190   32.1480 N.am   64  GLY64      -0.1940
     60  CA        52.3910  122.9440   31.3950 C.3    64  GLY64       0.2014
     61  C         53.5840  123.7550   31.8890 C.2    64  GLY64       0.2639
     62  O         53.8650  123.7240   33.0860 O.2    64  GLY64      -0.2714
     63  N         54.2910  124.4580   31.0220 N.am   65  ALA65      -0.1963
     64  CA        54.0140  124.5560   29.6070 C.3    65  ALA65       0.1728
     65  C         54.7720  123.4890   28.8140 C.2    65  ALA65       0.2616
     66  O         55.9570  123.2990   29.0330 O.2    65  ALA65      -0.2715
     67  CB        54.4140  125.9440   29.1220 C.3    65  ALA65       0.0334
     68  N         54.0980  122.8580   27.8560 N.am   66  PHE66      -0.1974
     69  CA        54.7340  121.8750   26.9770 C.3    66  PHE66       0.1639
     70  C         53.8930  121.7020   25.7550 C.2    66  PHE66       0.2290
     71  O         52.7720  122.1980   25.7060 O.2    66  PHE66      -0.2864
     72  CB        54.9160  120.5530   27.6900 C.3    66  PHE66       0.0560
     73  CG        56.0700  119.7420   27.1630 C.ar   66  PHE66      -0.0200
     74  CD1       57.3550  120.1800   27.3940 C.ar   66  PHE66      -0.0042
     75  CD2       55.8570  118.5810   26.4270 C.ar   66  PHE66      -0.0042
     76  CE1       58.4460  119.4590   26.9190 C.ar   66  PHE66      -0.0003
     77  CE2       56.9390  117.8510   25.9620 C.ar   66  PHE66      -0.0003
     78  CZ        58.2240  118.2910   26.2020 C.ar   66  PHE66      -0.0000
     79  N         63.5290  117.5830   23.9160 N.3   121  LYS121     -0.1231
     80  CA        63.4570  117.3300   25.3510 C.3   121  LYS121      0.1693
     81  C         62.7630  116.0060   25.6640 C.2   121  LYS121      0.2591
     82  O         63.1980  115.2770   26.5550 O.2   121  LYS121     -0.2718
     83  CB        62.7240  118.4750   26.0760 C.3   121  LYS121      0.0285
     84  CG        63.6270  119.6290   26.3420 C.3   121  LYS121      0.0035
     85  CD        63.0440  120.6890   27.2820 C.3   121  LYS121      0.0206
     86  CE        63.7380  122.0360   27.0450 C.3   121  LYS121      0.1093
     87  NZ        63.1300  123.1560   27.8110 N.3   121  LYS121     -0.1314
     88  N         61.7050  115.6520   24.9400 N.am  122  GLN122     -0.1979
     89  CA        61.0440  114.3510   25.1530 C.3   122  GLN122      0.1601
     90  C         61.9260  113.1560   24.7840 C.2   122  GLN122      0.2287
     91  O         61.9840  112.1950   25.5030 O.2   122  GLN122     -0.2864
     92  CB        59.7660  114.1840   24.3310 C.3   122  GLN122      0.0394
     93  CG        58.5780  114.9640   24.7140 C.3   122  GLN122      0.0908
     94  CD        57.3670  114.4820   23.9410 C.2   122  GLN122      0.2608
     95  OE1       56.9110  115.1480   23.0050 O.2   122  GLN122     -0.2717
     96  NE2       56.8770  113.2990   24.2780 N.am  122  GLN122     -0.0878
     97  N         64.5910  112.8030   27.3190 N.3   125  TYR125     -0.1241
     98  CA        63.9710  112.3200   28.5750 C.3   125  TYR125      0.1605
     99  C         63.7240  110.7890   28.5590 C.2   125  TYR125      0.2264
    100  O         64.0670  110.0720   29.4860 O.2   125  TYR125     -0.2867
    101  CB        62.6470  113.0320   28.8260 C.3   125  TYR125      0.0534
    102  CG        61.9050  112.5510   30.0480 C.ar  125  TYR125     -0.0201
    103  CD1       62.1940  113.0490   31.3010 C.ar  125  TYR125     -0.0009
    104  CD2       60.8700  111.6410   29.9180 C.ar  125  TYR125     -0.0009
    105  CE1       61.4880  112.5890   32.4310 C.ar  125  TYR125      0.0417
    106  CE2       60.1790  111.1730   31.0250 C.ar  125  TYR125      0.0417
    107  CZ        60.4790  111.6750   32.2620 C.ar  125  TYR125      0.1957
    108  OH        59.7410  111.2080   33.3330 O.3   125  TYR125     -0.2866
    109  N         61.6340  109.7020   39.2930 N.3   145  GLN145     -0.1245
    110  CA        60.3560  110.3860   39.3360 C.3   145  GLN145      0.1566
    111  C         60.3000  111.3060   40.5760 C.2   145  GLN145      0.2260
    112  O         59.9200  112.4680   40.4620 O.2   145  GLN145     -0.2867
    113  CB        59.1930  109.3790   39.3200 C.3   145  GLN145      0.0367
    114  CG        57.8310  110.0290   39.1920 C.3   145  GLN145      0.0905
    115  CD        56.7340  109.0170   38.8510 C.2   145  GLN145      0.2608
    116  OE1       56.5750  108.0010   39.5330 O.2   145  GLN145     -0.2717
    117  NE2       55.9860  109.2890   37.7850 N.am  145  GLN145     -0.0878
    118  N         62.5420  114.4600   39.9450 N.3   148  ILE148     -0.1231
    119  CA        61.9830  115.5020   39.0980 C.3   148  ILE148      0.1692
    120  C         60.8530  116.2280   39.8460 C.2   148  ILE148      0.2591
    121  O         60.7460  117.4340   39.7870 O.2   148  ILE148     -0.2718
    122  CB        61.4780  114.9250   37.7470 C.3   148  ILE148      0.0266
    123  CG1       62.6500  114.3390   36.9360 C.3   148  ILE148      0.0019
    124  CG2       60.7320  115.9900   36.9410 C.3   148  ILE148      0.0020
    125  CD1       63.8600  115.2930   36.7150 C.3   148  ILE148      0.0001
    126  N         60.0590  115.4980   40.6110 N.am  149  LEU149     -0.1980
    127  CA        59.0030  116.1390   41.3740 C.3   149  LEU149      0.1596
    128  C         59.5850  117.0700   42.4230 C.2   149  LEU149      0.2287
    129  O         59.0060  118.1090   42.7120 O.2   149  LEU149     -0.2864
    130  CB        58.1270  115.1000   42.0420 C.3   149  LEU149      0.0297
    131  CG        57.2160  114.3430   41.0790 C.3   149  LEU149      0.0022
    132  CD1       56.4080  113.3640   41.9120 C.3   149  LEU149      0.0001
    133  CD2       56.2830  115.2830   40.2820 C.3   149  LEU149      0.0001
    134  N         60.7690  120.3100   40.6620 N.3   152  VAL152     -0.1231
    135  CA        59.7510  121.1190   40.0290 C.3   152  VAL152      0.1692
    136  C         58.7410  121.6520   41.0540 C.2   152  VAL152      0.2592
    137  O         58.2910  122.8000   40.9530 O.2   152  VAL152     -0.2718
    138  CB        58.9970  120.3040   38.9670 C.3   152  VAL152      0.0266
    139  CG1       57.8000  121.0880   38.4450 C.3   152  VAL152      0.0020
    140  CG2       59.9030  119.9700   37.8100 C.3   152  VAL152      0.0020
    141  N         58.4000  120.8020   42.0170 N.am  153  TYR153     -0.1976
    142  CA        57.3260  121.1100   42.9780 C.3   153  TYR153      0.1639
    143  C         57.8170  121.2070   44.4150 C.2   153  TYR153      0.2290
    144  O         57.0270  121.4320   45.3240 O.2   153  TYR153     -0.2864
    145  CB        56.2290  120.0530   42.8960 C.3   153  TYR153      0.0560
    146  CG        55.5750  120.0200   41.5450 C.ar  153  TYR153     -0.0198
    147  CD1       54.8100  121.0830   41.1060 C.ar  153  TYR153     -0.0009
    148  CD2       55.7290  118.9280   40.7070 C.ar  153  TYR153     -0.0009
    149  CE1       54.2070  121.0720   39.8680 C.ar  153  TYR153      0.0417
    150  CE2       55.1560  118.9060   39.4710 C.ar  153  TYR153      0.0417
    151  CZ        54.3780  119.9720   39.0520 C.ar  153  TYR153      0.1957
    152  OH        53.7850  119.9450   37.8030 O.3   153  TYR153     -0.2866
    153  N         49.7840  109.9700   40.3690 N.3   173  LEU173     -0.1245
    154  CA        51.1710  109.8080   39.9300 C.3   173  LEU173      0.1561
    155  C         51.7480  108.4810   40.4510 C.2   173  LEU173      0.2260
    156  O         52.8240  108.0530   40.0250 O.2   173  LEU173     -0.2867
    157  CB        52.0240  111.0150   40.3780 C.3   173  LEU173      0.0270
    158  CG        51.8170  112.3240   39.5780 C.3   173  LEU173      0.0019
    159  CD1       52.4300  113.5430   40.2620 C.3   173  LEU173      0.0001
    160  CD2       52.3750  112.2400   38.1760 C.3   173  LEU173      0.0001
    161  N         69.9310  114.7650   32.6830 N.3   216  TRP216     -0.1227
    162  CA        68.9420  115.2990   31.7420 C.3   216  TRP216      0.1737
    163  C         68.3540  116.6110   32.2270 C.2   216  TRP216      0.2595
    164  O         68.2300  117.5790   31.4810 O.2   216  TRP216     -0.2718
    165  CB        67.8100  114.2810   31.5040 C.3   216  TRP216      0.0564
    166  CG        66.6850  114.8460   30.6910 C.ar  216  TRP216      0.0003
    167  CD1       66.6320  114.9200   29.3460 C.ar  216  TRP216      0.0946
    168  CD2       65.4450  115.3980   31.1720 C.ar  216  TRP216      0.0152
    169  NE1       65.4460  115.5060   28.9450 N.ar  216  TRP216     -0.2442
    170  CE2       64.7160  115.8270   30.0570 C.ar  216  TRP216      0.0810
    171  CE3       64.9210  115.6180   32.4400 C.ar  216  TRP216      0.0012
    172  CZ2       63.4760  116.4360   30.1710 C.ar  216  TRP216      0.0191
    173  CZ3       63.6760  116.1990   32.5550 C.ar  216  TRP216      0.0001
    174  CH2       62.9700  116.6030   31.4270 C.ar  216  TRP216      0.0015
    175  N         68.0440  116.6790   33.5300 N.am  217  PHE217     -0.1976
    176  CA        67.3930  117.8320   34.0630 C.3   217  PHE217      0.1639
    177  C         68.3780  119.0210   34.1190 C.2   217  PHE217      0.2290
    178  O         68.0030  120.1520   33.7800 O.2   217  PHE217     -0.2864
    179  CB        66.7910  117.5130   35.4280 C.3   217  PHE217      0.0560
    180  CG        65.6840  118.4730   35.8350 C.ar  217  PHE217     -0.0200
    181  CD1       64.4260  118.4220   35.2470 C.ar  217  PHE217     -0.0042
    182  CD2       65.9310  119.4850   36.7480 C.ar  217  PHE217     -0.0042
    183  CE1       63.4320  119.3350   35.5950 C.ar  217  PHE217     -0.0003
    184  CE2       64.9580  120.3770   37.1120 C.ar  217  PHE217     -0.0003
    185  CZ        63.6960  120.3240   36.5270 C.ar  217  PHE217     -0.0000
    186  N         66.8970  121.7480   31.8860 N.3   221  CYS221     -0.1235
    187  CA        66.2350  122.6870   32.7880 C.3   221  CYS221      0.1677
    188  C         67.2450  123.2660   33.7950 C.2   221  CYS221      0.2270
    189  O         67.1040  123.0810   35.0070 O.2   221  CYS221     -0.2867
    190  CB        65.1200  122.0040   33.5400 C.3   221  CYS221      0.0956
    191  SG        63.9080  121.2080   32.4630 S.3   221  CYS221     -0.0801
@<TRIPOS>BOND
     1    95    94    2
     2    79    80    1
     3    94    96   am
     4    94    93    1
     5    92    93    1
     6    92    89    1
     7    90    89    1
     8    90    91    2
     9    88    89    1
    10    88    81   am
    11    80    81    1
    12    80    83    1
    13    49    48    1
    14    81    82    2
    15    71    70    2
    16    70    69    1
    17    77    78   ar
    18    77    75   ar
    19    83    84    1
    20    78    76   ar
    21    84    85    1
    22    75    73   ar
    23    48    46   ar
    24    48    47   ar
    25    46    44   ar
    26    76    74   ar
    27    69    72    1
    28    69    68    1
    29    86    85    1
    30    86    87    1
    31    73    74   ar
    32    73    72    1
    33    47    45   ar
    34    97    98    1
    35    44    43   ar
    36    68    65   am
    37    45    43   ar
    38    22    21    1
    39    22    23    1
    40    21    18    1
    41    43    42    1
    42    99    98    1
    43    99   100    2
    44    98   101    1
    45     7     6    2
    46    24    23    2
    47    65    66    2
    48    65    64    1
    49   101   102    1
    50   169   167   ar
    51   169   170   ar
    52    23    25   am
    53    67    64    1
    54     4     3    2
    55   167   166   ar
    56     8     6   am
    57     6     5    1
    58    42    39    1
    59    64    63    1
    60    17    18    1
    61     3     2    1
    62    18    19    1
    63   104   102   ar
    64   104   106   ar
    65   102   103   ar
    66   170   172   ar
    67   170   168   ar
    68   172   174   ar
    69    20    19    2
    70   166   168   ar
    71   166   165    1
    72    19    26   am
    73     5     2    1
    74    39    38    1
    75    39    40    1
    76     2     1    1
    77    29    28    2
    78    63    61   am
    79   106   107   ar
    80    53    52    2
    81   168   171   ar
    82   103   105   ar
    83    60    61    1
    84    60    59    1
    85   174   173   ar
    86    38    28   am
    87    28    27    1
    88    26    27    1
    89   164   163    2
    90   165   162    1
    91   162   163    1
    92   162   161    1
    93   186   187    1
    94    61    62    2
    95    40    50   am
    96    40    41    2
    97    52    59   am
    98    52    51    1
    99    50    51    1
   100    27    30    1
   101   163   175   am
   102   107   105   ar
   103   107   108    1
   104   171   173   ar
   105   191   190    1
   106   187   190    1
   107   187   188    1
   108    51    54    1
   109   175   176    1
   110    30    31    1
   111   178   177    2
   112   188   189    2
   113    11    12    2
   114    11    10    1
   115    55    54    1
   116    55    56    1
   117   176   177    1
   118   176   179    1
   119    31    33   ar
   120    31    32   ar
   121    33    35   ar
   122    10     9    1
   123    10    13    1
   124    32    34   ar
   125    35    36   ar
   126    56    57    1
   127    34    36   ar
   128   181   183   ar
   129   181   180   ar
   130    36    37    1
   131   179   180    1
   132    57    58    1
   133   183   185   ar
   134    15    13    1
   135   180   182   ar
   136    13    14    1
   137   185   184   ar
   138   125   123    1
   139    14    16    1
   140   182   184   ar
   141   123   122    1
   142   124   122    1
   143   122   119    1
   144   117   115   am
   145   152   151    1
   146   140   138    1
   147   160   158    1
   148   139   138    1
   149   115   114    1
   150   115   116    2
   151   138   135    1
   152   151   150   ar
   153   151   149   ar
   154   119   120    1
   155   119   118    1
   156   114   113    1
   157   109   110    1
   158   113   110    1
   159   110   111    1
   160   150   148   ar
   161   158   159    1
   162   158   157    1
   163   121   120    2
   164   120   126   am
   165   149   147   ar
   166   154   153    1
   167   154   157    1
   168   154   155    1
   169   156   155    2
   170   135   134    1
   171   135   136    1
   172   133   131    1
   173   112   111    2
   174   126   127    1
   175   148   146   ar
   176   137   136    2
   177   136   141   am
   178   131   132    1
   179   131   130    1
   180   147   146   ar
   181   127   130    1
   182   127   128    1
   183   146   145    1
   184   141   142    1
   185   128   129    2
   186   145   142    1
   187   142   143    1
   188   143   144    2
