@<TRIPOS>MOLECULE
tmp/6exnE00.pdb
 196 190 0 0 0
SMALL
GASTEIGER

@<TRIPOS>ATOM
      1  N        281.7020  335.3230  307.2940 N.3    73  PRO73      -0.2102
      2  CA       280.4620  334.6510  306.8990 C.3    73  PRO73       0.1504
      3  C        280.7260  333.5260  305.9110 C.2    73  PRO73       0.2576
      4  O        281.8430  333.3180  305.4330 O.2    73  PRO73      -0.2718
      5  CB       279.6520  335.7650  306.2410 C.3    73  PRO73       0.0282
      6  CG       280.1550  336.9740  306.8560 C.3    73  PRO73       0.0208
      7  CD       281.6070  336.7750  307.1020 C.3    73  PRO73       0.0893
      8  N        279.6570  332.7830  305.6310 N.am   74  LEU74      -0.1966
      9  CA       279.6390  331.8120  304.5460 C.3    74  LEU74       0.1728
     10  C        280.0340  332.4400  303.2200 C.2    74  LEU74       0.2616
     11  O        279.4570  333.4490  302.8070 O.2    74  LEU74      -0.2715
     12  CB       278.2490  331.1860  304.4380 C.3    74  LEU74       0.0311
     13  CG       277.9380  330.2590  303.2650 C.3    74  LEU74       0.0022
     14  CD1      277.1270  329.1130  303.7430 C.3    74  LEU74       0.0001
     15  CD2      277.1230  331.0000  302.1980 C.3    74  LEU74       0.0001
     16  N        281.0080  331.8030  302.5570 N.am   75  HIS75      -0.1959
     17  CA       281.4780  332.1620  301.2150 C.3    75  HIS75       0.1787
     18  C        281.9200  333.6180  301.1320 C.2    75  HIS75       0.2621
     19  O        281.4410  334.3950  300.3060 O.2    75  HIS75      -0.2715
     20  CB       280.4290  331.8300  300.1530 C.3    75  HIS75       0.0785
     21  CG       280.3660  330.3740  299.8150 C.ar   75  HIS75       0.0821
     22  ND1      281.2880  329.7720  298.9870 N.ar   75  HIS75      -0.2267
     23  CD2      279.5190  329.3960  300.2060 C.ar   75  HIS75       0.1154
     24  CE1      280.9990  328.4910  298.8660 C.ar   75  HIS75       0.1986
     25  NE2      279.9310  328.2370  299.5980 N.ar   75  HIS75      -0.2212
     26  N        282.8340  333.9860  302.0180 N.am   76  SER76      -0.1936
     27  CA       283.3560  335.3380  302.0430 C.3    76  SER76       0.2055
     28  C        284.6170  335.4970  301.2180 C.2    76  SER76       0.2644
     29  O        285.0870  336.6200  301.0440 O.2    76  SER76      -0.2714
     30  CB       283.6270  335.7530  303.4780 C.3    76  SER76       0.2130
     31  OG       282.4240  335.6810  304.2020 O.3    76  SER76      -0.2179
     32  N        285.1590  334.4110  300.6860 N.am   77  GLY77      -0.1939
     33  CA       286.4260  334.4730  300.0040 C.3    77  GLY77       0.2014
     34  C        287.6280  334.3580  300.9060 C.2    77  GLY77       0.2639
     35  O        288.7430  334.6120  300.4470 O.2    77  GLY77      -0.2714
     36  N        287.4330  333.9980  302.1770 N.am   78  LYS78      -0.1963
     37  CA       288.5400  333.9340  303.1250 C.3    78  LYS78       0.1728
     38  C        289.4810  332.7730  302.8200 C.2    78  LYS78       0.2617
     39  O        290.7020  332.8980  302.9830 O.2    78  LYS78      -0.2715
     40  CB       287.9880  333.8590  304.5460 C.3    78  LYS78       0.0311
     41  CG       287.0140  332.7450  304.7710 C.3    78  LYS78       0.0038
     42  CD       286.3980  332.8290  306.1190 C.3    78  LYS78       0.0206
     43  CE       285.3600  331.7600  306.2270 C.3    78  LYS78       0.1093
     44  NZ       284.2080  332.0220  305.3210 N.3    78  LYS78      -0.1314
     45  N        288.9390  331.6330  302.3870 N.am   79  THR79      -0.1937
     46  CA       289.7970  330.5750  301.8720 C.3    79  THR79       0.2028
     47  C        290.4960  331.0440  300.6130 C.2    79  THR79       0.2642
     48  O        291.7030  330.8420  300.4490 O.2    79  THR79      -0.2714
     49  CB       288.9900  329.3180  301.5760 C.3    79  THR79       0.1808
     50  OG1      288.2750  328.9080  302.7440 O.3    79  THR79      -0.2208
     51  CG2      289.9100  328.2120  301.1690 C.3    79  THR79       0.0379
     52  N        289.7560  331.7230  299.7380 N.am   80  SER80      -0.1949
     53  CA       290.3520  332.3280  298.5550 C.3    80  SER80       0.1924
     54  C        291.2910  333.4730  298.9250 C.2    80  SER80       0.2314
     55  O        292.2210  333.7750  298.1720 O.2    80  SER80      -0.2863
     56  CB       289.2550  332.8010  297.6050 C.3    80  SER80       0.2116
     57  OG       289.8060  333.4080  296.4510 O.3    80  SER80      -0.2180
     58  N        289.1170  328.5390  291.7300 N.3   106  PRO106     -0.2116
     59  CA       289.8620  329.0200  292.8990 C.3   106  PRO106      0.1372
     60  C        290.6360  327.8900  293.5580 C.2   106  PRO106      0.2244
     61  O        290.1050  326.8030  293.7930 O.2   106  PRO106     -0.2868
     62  CB       288.7650  329.5700  293.8120 C.3   106  PRO106      0.0268
     63  CG       287.5510  328.8000  293.4340 C.3   106  PRO106      0.0207
     64  CD       287.6650  328.5100  291.9710 C.3   106  PRO106      0.0892
     65  N        291.4720  326.2410  296.1410 N.3   108  ARG108     -0.1245
     66  CA       290.9990  326.0940  297.5160 C.3   108  ARG108      0.1563
     67  C        291.9560  325.1660  298.2560 C.2   108  ARG108      0.2260
     68  O        291.7020  323.9800  298.4700 O.2   108  ARG108     -0.2867
     69  CB       289.5780  325.5700  297.5220 C.3   108  ARG108      0.0307
     70  CG       288.5680  326.5200  296.9100 C.3   108  ARG108      0.0489
     71  CD       287.2440  325.8360  296.9210 C.3   108  ARG108      0.2205
     72  NE       286.8890  325.5460  298.2970 N.pl3 108  ARG108     -0.0865
     73  CZ       286.0000  324.6360  298.6540 C.cat 108  ARG108      0.5346
     74  NH1      285.3970  323.9040  297.7320 N.pl3 108  ARG108      0.1354
     75  NH2      285.7430  324.4360  299.9350 N.pl3 108  ARG108      0.1354
     76  N        291.2690  323.9280  301.7970 N.3   111  ASP111     -0.1239
     77  CA       290.0960  323.0660  301.8280 C.3   111  ASP111      0.1674
     78  C        290.5170  321.6710  301.3740 C.2   111  ASP111      0.2266
     79  O        290.2550  321.2500  300.2490 O.2   111  ASP111     -0.2867
     80  CB       288.9960  323.6420  300.9550 C.3   111  ASP111      0.1410
     81  CG       288.5090  324.9790  301.4540 C.2   111  ASP111      0.3668
     82  OD1      288.6380  325.2410  302.6680 O.co2 111  ASP111     -0.2456
     83  OD2      287.9870  325.7650  300.6350 O.co2 111  ASP111     -0.2456
     84  N        282.1900  322.3110  298.9770 N.3   120  GLY120     -0.1210
     85  CA       282.4570  323.6850  298.6160 C.3   120  GLY120      0.1956
     86  C        282.5610  324.6170  299.7950 C.2   120  GLY120      0.2612
     87  O        282.3010  325.8130  299.6550 O.2   120  GLY120     -0.2717
     88  N        282.9350  324.1040  300.9620 N.am  121  LEU121     -0.1965
     89  CA       283.0520  324.9040  302.1690 C.3   121  LEU121      0.1728
     90  C        284.3610  324.5940  302.8780 C.2   121  LEU121      0.2616
     91  O        285.0950  323.6740  302.5100 O.2   121  LEU121     -0.2715
     92  CB       281.8980  324.6330  303.1310 C.3   121  LEU121      0.0311
     93  CG       280.4980  324.9660  302.6540 C.3   121  LEU121      0.0022
     94  CD1      279.5400  324.5440  303.7160 C.3   121  LEU121      0.0001
     95  CD2      280.3890  326.4400  302.4060 C.3   121  LEU121      0.0001
     96  N        284.6390  325.3790  303.9110 N.am  122  SER122     -0.1950
     97  CA       285.6100  325.0270  304.9330 C.3   122  SER122      0.1924
     98  C        284.8530  324.4050  306.0940 C.2   122  SER122      0.2314
     99  O        283.7730  324.8730  306.4600 O.2   122  SER122     -0.2863
    100  CB       286.3910  326.2520  305.4060 C.3   122  SER122      0.2116
    101  OG       287.1460  326.8200  304.3520 O.3   122  SER122     -0.2180
    102  N        292.0620  329.4120  308.8070 N.3   146  ASP146     -0.1239
    103  CA       290.7460  329.5320  308.1850 C.3   146  ASP146      0.1674
    104  C        289.7010  329.0040  309.1550 C.2   146  ASP146      0.2266
    105  O        289.4780  327.7980  309.2930 O.2   146  ASP146     -0.2867
    106  CB       290.6710  328.7780  306.8680 C.3   146  ASP146      0.1410
    107  CG       291.3140  329.5190  305.7360 C.2   146  ASP146      0.3668
    108  OD1      291.4010  330.7580  305.8120 O.co2 146  ASP146     -0.2456
    109  OD2      291.6920  328.8640  304.7440 O.co2 146  ASP146     -0.2456
    110  N        286.0490  328.1580  309.6480 N.3   148  PRO148     -0.2102
    111  CA       284.9150  327.9200  308.7580 C.3   148  PRO148      0.1504
    112  C        283.8360  328.9670  308.9710 C.2   148  PRO148      0.2576
    113  O        283.5080  329.3340  310.1000 O.2   148  PRO148     -0.2718
    114  CB       284.4450  326.5200  309.1610 C.3   148  PRO148      0.0282
    115  CG       285.6540  325.8820  309.7230 C.3   148  PRO148      0.0208
    116  CD       286.3620  326.9700  310.4500 C.3   148  PRO148      0.0893
    117  N        283.2870  329.4500  307.8670 N.am  149  GLY149     -0.1943
    118  CA       282.3890  330.5870  307.9140 C.3   149  GLY149      0.2014
    119  C        280.9250  330.2470  307.8230 C.2   149  GLY149      0.2638
    120  O        280.0790  331.1210  308.0240 O.2   149  GLY149     -0.2714
    121  N        280.6190  329.0070  307.4530 N.am  150  HIS150     -0.1973
    122  CA       279.2440  328.5440  307.5250 C.3   150  HIS150      0.1656
    123  C        278.7830  328.5630  308.9710 C.2   150  HIS150      0.2291
    124  O        279.5310  328.2170  309.8860 O.2   150  HIS150     -0.2864
    125  CB       279.1020  327.1480  306.9260 C.3   150  HIS150      0.0771
    126  CG       277.7240  326.5830  307.0470 C.ar  150  HIS150      0.0820
    127  ND1      276.6350  327.1320  306.4100 N.ar  150  HIS150     -0.2267
    128  CD2      277.2630  325.5030  307.7160 C.ar  150  HIS150      0.1154
    129  CE1      275.5580  326.4260  306.6960 C.ar  150  HIS150      0.1986
    130  NE2      275.9120  325.4300  307.4850 N.ar  150  HIS150     -0.2212
    131  N        286.0040  342.1480  301.1300 N.3   200  ASN200     -0.1225
    132  CA       286.2620  341.3170  299.9730 C.3   200  ASN200      0.1785
    133  C        285.2300  341.6150  298.8870 C.2   200  ASN200      0.2597
    134  O        284.2600  342.3340  299.1160 O.2   200  ASN200     -0.2718
    135  CB       286.2100  339.8500  300.3840 C.3   200  ASN200      0.1169
    136  CG       287.2210  339.0060  299.6660 C.2   200  ASN200      0.2627
    137  OD1      287.4880  337.8720  300.0540 O.2   200  ASN200     -0.2716
    138  ND2      287.8220  339.5610  298.6390 N.am  200  ASN200     -0.0877
    139  N        285.4640  341.0560  297.6960 N.am  201  LYS201     -0.1980
    140  CA       284.5400  341.0590  296.5600 C.3   201  LYS201      0.1596
    141  C        284.2390  342.4760  296.0600 C.2   201  LYS201      0.2287
    142  O        283.1080  342.9560  296.1220 O.2   201  LYS201     -0.2864
    143  CB       283.2490  340.3090  296.9100 C.3   201  LYS201      0.0298
    144  CG       283.4560  338.8430  297.2400 C.3   201  LYS201      0.0038
    145  CD       282.1540  338.1970  297.7010 C.3   201  LYS201      0.0206
    146  CE       282.3460  336.7460  298.0990 C.3   201  LYS201      0.1093
    147  NZ       282.6590  335.8700  296.9440 N.3   201  LYS201     -0.1314
    148  N        285.0780  343.1150  292.8060 N.3   203  ASP203     -0.1225
    149  CA       284.6680  342.8700  291.4350 C.3   203  ASP203      0.1805
    150  C        283.1770  342.6240  291.3240 C.2   203  ASP203      0.2597
    151  O        282.6070  342.8380  290.2560 O.2   203  ASP203     -0.2718
    152  CB       285.4380  341.6970  290.8410 C.3   203  ASP203      0.1424
    153  CG       285.2890  340.4120  291.6390 C.2   203  ASP203      0.3668
    154  OD1      284.7370  340.4380  292.7570 O.co2 203  ASP203     -0.2456
    155  OD2      285.7160  339.3560  291.1310 O.co2 203  ASP203     -0.2456
    156  N        282.5330  342.2010  292.4080 N.am  204  ARG204     -0.1979
    157  CA       281.0900  342.0560  292.3630 C.3   204  ARG204      0.1597
    158  C        280.3980  343.4090  292.3710 C.2   204  ARG204      0.2287
    159  O        279.3060  343.5350  291.8140 O.2   204  ARG204     -0.2864
    160  CB       280.6190  341.1760  293.5100 C.3   204  ARG204      0.0334
    161  CG       281.2870  339.8270  293.4480 C.3   204  ARG204      0.0492
    162  CD       280.6870  338.8440  294.4090 C.3   204  ARG204      0.2205
    163  NE       279.3580  338.4360  293.9830 N.pl3 204  ARG204     -0.0865
    164  CZ       278.5790  337.6360  294.6930 C.cat 204  ARG204      0.5346
    165  NH1      278.9940  337.1720  295.8650 N.pl3 204  ARG204      0.1354
    166  NH2      277.3810  337.3060  294.2430 N.pl3 204  ARG204      0.1354
    167  N        279.5850  342.3140  288.8330 N.3   208  ASP208     -0.1239
    168  CA       278.2860  341.6920  289.0650 C.3   208  ASP208      0.1674
    169  C        277.1880  342.7380  289.2010 C.2   208  ASP208      0.2266
    170  O        276.1370  342.6260  288.5640 O.2   208  ASP208     -0.2867
    171  CB       278.3150  340.8030  290.3100 C.3   208  ASP208      0.1410
    172  CG       279.0310  339.4890  290.0850 C.2   208  ASP208      0.3668
    173  OD1      279.0070  338.9700  288.9570 O.co2 208  ASP208     -0.2456
    174  OD2      279.6080  338.9570  291.0520 O.co2 208  ASP208     -0.2456
    175  N        289.2660  341.6220  296.1090 N.3   247  SER247     -0.1202
    176  CA       288.3780  340.6300  295.5090 C.3   247  SER247      0.2020
    177  C        289.2730  339.4450  295.1830 C.2   247  SER247      0.2619
    178  O        289.9920  339.4650  294.1820 O.2   247  SER247     -0.2717
    179  CB       287.6580  341.1430  294.2640 C.3   247  SER247      0.2103
    180  OG       288.4830  341.1140  293.1240 O.3   247  SER247     -0.2182
    181  N        289.2370  338.4210  296.0280 N.am  248  THR248     -0.1938
    182  CA       290.3150  337.4450  296.0500 C.3   248  THR248      0.2028
    183  C        290.2370  336.4110  294.9440 C.2   248  THR248      0.2642
    184  O        291.1660  335.6080  294.8130 O.2   248  THR248     -0.2714
    185  CB       290.3450  336.7430  297.3970 C.3   248  THR248      0.1808
    186  OG1      289.0890  336.0970  297.6250 O.3   248  THR248     -0.2208
    187  CG2      290.5810  337.7580  298.4650 C.3   248  THR248      0.0379
    188  N        289.1680  336.3970  294.1520 N.am  249  LYS249     -0.1977
    189  CA       289.1980  335.5890  292.9410 C.3   249  LYS249      0.1596
    190  C        290.1600  336.1920  291.9310 C.2   249  LYS249      0.2287
    191  O        290.8360  335.4670  291.1920 O.2   249  LYS249     -0.2864
    192  CB       287.7960  335.4640  292.3480 C.3   249  LYS249      0.0298
    193  CG       287.7270  334.5240  291.1650 C.3   249  LYS249      0.0038
    194  CD       286.3140  334.3090  290.6790 C.3   249  LYS249      0.0206
    195  CE       285.8120  335.5160  289.9140 C.3   249  LYS249      0.1093
    196  NZ       284.4970  335.2430  289.2690 N.3   249  LYS249     -0.1314
@<TRIPOS>BOND
     1   170   169    2
     2   167   168    1
     3   173   172   ar
     4   168   169    1
     5   168   171    1
     6   196   195    1
     7   195   194    1
     8   172   171    1
     9   172   174   ar
    10   151   150    2
    11   194   193    1
    12   152   149    1
    13   152   153    1
    14   155   153   ar
    15   193   192    1
    16   191   190    2
    17   150   149    1
    18   150   156   am
    19   149   148    1
    20   153   154   ar
    21    58    64    1
    22    58    59    1
    23   159   158    2
    24   190   189    1
    25    64    63    1
    26   192   189    1
    27   157   158    1
    28   157   156    1
    29   157   160    1
    30    59    60    1
    31    59    62    1
    32   189   188    1
    33   180   179    1
    34    63    62    1
    35   161   160    1
    36   161   162    1
    37    60    61    2
    38   163   162    1
    39   163   164    2
    40   188   183   am
    41   178   177    2
    42   166   164    1
    43   179   176    1
    44   164   165    1
    45   184   183    2
    46   183   182    1
    47   177   176    1
    48   177   181   am
    49   176   175    1
    50   181   182    1
    51   182   185    1
    52   141   142    2
    53   141   140    1
    54    65    66    1
    55    57    56    1
    56   140   143    1
    57   140   139    1
    58    70    71    1
    59    70    69    1
    60   143   144    1
    61    71    72    1
    62   147   146    1
    63   144   145    1
    64   185   186    1
    65   185   187    1
    66    66    69    1
    67    66    67    1
    68    56    53    1
    69   139   133   am
    70   145   146    1
    71    74    73    1
    72    55    54    2
    73    67    68    2
    74    72    73    2
    75    53    54    1
    76    53    52    1
    77    85    84    1
    78    85    86    1
    79   138   136   am
    80    73    75    1
    81    24    22   ar
    82    24    25   ar
    83   133   134    2
    84   133   132    1
    85    22    21   ar
    86    25    23   ar
    87    87    86    2
    88   136   137    2
    89   136   135    1
    90    52    47   am
    91    86    88   am
    92    21    20    1
    93    21    23   ar
    94   132   135    1
    95   132   131    1
    96    33    32    1
    97    33    34    1
    98    20    17    1
    99    79    78    2
   100    19    18    2
   101    35    34    2
   102    48    47    2
   103    47    46    1
   104    83    81   ar
   105    32    28   am
   106    34    36   am
   107    80    81    1
   108    80    77    1
   109    88    89    1
   110    29    28    2
   111    18    17    1
   112    18    26   am
   113    51    49    1
   114    17    16    1
   115    28    27    1
   116    78    77    1
   117    81    82   ar
   118    49    46    1
   119    49    50    1
   120    76    77    1
   121    46    45    1
   122    26    27    1
   123    27    30    1
   124    89    90    1
   125    89    92    1
   126    36    37    1
   127    15    13    1
   128    45    38   am
   129    95    93    1
   130    91    90    2
   131    16    10   am
   132    93    92    1
   133    93    94    1
   134    11    10    2
   135    38    39    2
   136    38    37    1
   137    90    96   am
   138    37    40    1
   139    10     9    1
   140    13    14    1
   141    13    12    1
   142    30    31    1
   143    96    97    1
   144   101   100    1
   145    12     9    1
   146     9     8    1
   147    40    41    1
   148   109   107   ar
   149    41    42    1
   150    97   100    1
   151    97    98    1
   152    44    43    1
   153     4     3    2
   154     8     3   am
   155   107   108   ar
   156   107   106    1
   157     3     2    1
   158    98    99    2
   159    42    43    1
   160     5     6    1
   161     5     2    1
   162   127   129   ar
   163   127   126   ar
   164   129   130   ar
   165     6     7    1
   166   106   103    1
   167     2     1    1
   168   125   126    1
   169   125   122    1
   170   126   128   ar
   171     7     1    1
   172   121   122    1
   173   121   119   am
   174   130   128   ar
   175   122   123    1
   176   119   118    1
   177   119   120    2
   178   117   118    1
   179   117   112   am
   180   103   102    1
   181   103   104    1
   182   111   112    1
   183   111   114    1
   184   111   110    1
   185   123   124    2
   186   112   113    2
   187   104   105    2
   188   114   115    1
   189   110   116    1
   190   115   116    1
