@<TRIPOS>MOLECULE
tmp/6exoB00.pdb
 137 133 0 0 0
SMALL
GASTEIGER

@<TRIPOS>ATOM
      1  N          8.3720    8.8040  -17.4420 N.3    19  GLN19      -0.1245
      2  CA         9.6190    8.0950  -17.7000 C.3    19  GLN19       0.1566
      3  C         10.1300    7.3080  -16.4830 C.2    19  GLN19       0.2260
      4  O         10.9770    6.4410  -16.6300 O.2    19  GLN19      -0.2867
      5  CB        10.6930    9.0620  -18.1780 C.3    19  GLN19       0.0367
      6  CG        11.2160   10.0200  -17.1240 C.3    19  GLN19       0.0905
      7  CD        12.0230   11.1310  -17.7460 C.2    19  GLN19       0.2608
      8  OE1       11.4720   12.0480  -18.3700 O.2    19  GLN19      -0.2717
      9  NE2       13.3300   11.0510  -17.6060 N.am   19  GLN19      -0.0878
     10  N         16.7320    7.8240  -17.3600 N.3    23  GLY23      -0.1210
     11  CA        17.0950    9.0680  -18.0410 C.3    23  GLY23       0.1956
     12  C         16.6880    9.0320  -19.5100 C.2    23  GLY23       0.2612
     13  O         17.5100    9.2530  -20.3900 O.2    23  GLY23      -0.2717
     14  N         15.4070    8.7610  -19.7630 N.am   24  SER24      -0.1952
     15  CA        14.9130    8.4900  -21.1030 C.3    24  SER24       0.1924
     16  C         14.0610    9.6470  -21.6660 C.2    24  SER24       0.2314
     17  O         13.2640    9.4350  -22.5800 O.2    24  SER24      -0.2863
     18  CB        14.0720    7.2330  -21.0770 C.3    24  SER24       0.2116
     19  OG        13.0250    7.3560  -20.1330 O.3    24  SER24      -0.2180
     20  N         14.9470   12.0100  -23.6220 N.3    25  TRP25      -0.1241
     21  CA        15.2480   12.0670  -25.0780 C.3    25  TRP25       0.1605
     22  C         14.2980   11.2170  -25.9540 C.2    25  TRP25       0.2264
     23  O         13.9330   11.6250  -27.0930 O.2    25  TRP25      -0.2867
     24  CB        16.7130   11.6580  -25.3520 C.3    25  TRP25       0.0550
     25  CG        17.0240   10.2400  -24.9090 C.ar   25  TRP25       0.0003
     26  CD1       17.3680    9.8350  -23.6500 C.ar   25  TRP25       0.0946
     27  CD2       16.9700    9.0530  -25.7110 C.ar   25  TRP25       0.0152
     28  NE1       17.5490    8.4710  -23.6220 N.ar   25  TRP25      -0.2442
     29  CE2       17.3030    7.9650  -24.8720 C.ar   25  TRP25       0.0810
     30  CE3       16.6770    8.8010  -27.0520 C.ar   25  TRP25       0.0012
     31  CZ2       17.3440    6.6540  -25.3340 C.ar   25  TRP25       0.0191
     32  CZ3       16.7270    7.5050  -27.5090 C.ar   25  TRP25       0.0001
     33  CH2       17.0530    6.4380  -26.6460 C.ar   25  TRP25       0.0015
     34  N         22.1860    5.9930  -28.9560 N.3    59  ASP59      -0.1225
     35  CA        21.9150    6.6250  -27.6700 C.3    59  ASP59       0.1805
     36  C         22.1990    5.6570  -26.5180 C.2    59  ASP59       0.2597
     37  O         22.5560    4.5160  -26.7600 O.2    59  ASP59      -0.2718
     38  CB        20.4760    7.1540  -27.6600 C.3    59  ASP59       0.1424
     39  CG        20.2840    8.3210  -28.6240 C.2    59  ASP59       0.3668
     40  OD1       20.9200    9.3810  -28.4150 O.co2  59  ASP59      -0.2456
     41  OD2       19.5000    8.1800  -29.5930 O.co2  59  ASP59      -0.2456
     42  N         22.0540    6.1210  -25.2770 N.am   60  PHE60      -0.1976
     43  CA        22.6060    5.4090  -24.1220 C.3    60  PHE60       0.1639
     44  C         21.5270    4.8370  -23.1930 C.2    60  PHE60       0.2290
     45  O         21.7180    4.7950  -21.9760 O.2    60  PHE60      -0.2864
     46  CB        23.5740    6.3370  -23.3440 C.3    60  PHE60       0.0560
     47  CG        24.7320    6.8530  -24.1730 C.ar   60  PHE60      -0.0200
     48  CD1       24.5910    7.9820  -24.9630 C.ar   60  PHE60      -0.0042
     49  CD2       25.9610    6.2060  -24.1600 C.ar   60  PHE60      -0.0042
     50  CE1       25.6410    8.4500  -25.7340 C.ar   60  PHE60      -0.0003
     51  CE2       27.0240    6.6740  -24.9200 C.ar   60  PHE60      -0.0003
     52  CZ        26.8630    7.8000  -25.7110 C.ar   60  PHE60      -0.0000
     53  N         20.7880    6.0860  -19.7460 N.3    63  GLY63      -0.1210
     54  CA        21.8790    7.0400  -19.5290 C.3    63  GLY63       0.1956
     55  C         21.6670    8.3820  -20.2040 C.2    63  GLY63       0.2612
     56  O         22.2950    9.3840  -19.8390 O.2    63  GLY63      -0.2717
     57  N         20.7810    8.3960  -21.1950 N.am   64  GLY64      -0.1942
     58  CA        20.4300    9.6130  -21.9180 C.3    64  GLY64       0.2014
     59  C         20.7250    9.4850  -23.4020 C.2    64  GLY64       0.2639
     60  O         21.1380    8.4370  -23.8820 O.2    64  GLY64      -0.2714
     61  N         20.5290   10.5820  -24.1180 N.am   65  GLY65      -0.1939
     62  CA        20.6030   10.5900  -25.5690 C.3    65  GLY65       0.2014
     63  C         20.1590   11.9180  -26.1700 C.2    65  GLY65       0.2639
     64  O         19.9280   12.8970  -25.4470 O.2    65  GLY65      -0.2714
     65  N         20.0440   11.9410  -27.5000 N.am   66  LEU66      -0.1963
     66  CA        19.6850   13.1410  -28.2490 C.3    66  LEU66       0.1728
     67  C         18.5570   12.7870  -29.1890 C.2    66  LEU66       0.2616
     68  O         18.6440   11.7670  -29.8520 O.2    66  LEU66      -0.2715
     69  CB        20.8590   13.6100  -29.0910 C.3    66  LEU66       0.0311
     70  CG        22.1430   13.9400  -28.3520 C.3    66  LEU66       0.0022
     71  CD1       23.2500   14.2630  -29.3480 C.3    66  LEU66       0.0001
     72  CD2       21.8810   15.0970  -27.4020 C.3    66  LEU66       0.0001
     73  N         17.5170   13.6330  -29.2640 N.am   67  MET67      -0.1963
     74  CA        16.3620   13.3480  -30.1160 C.3    67  MET67       0.1736
     75  C         16.8100   13.1630  -31.5840 C.2    67  MET67       0.2616
     76  O         16.3100   12.2870  -32.2820 O.2    67  MET67      -0.2715
     77  CB        15.2780   14.4650  -29.9880 C.3    67  MET67       0.0427
     78  CG        14.6300   14.5910  -28.6010 C.3    67  MET67       0.0599
     79  SD        15.6350   15.3360  -27.2850 S.3    67  MET67      -0.1393
     80  CE        15.4590   17.0830  -27.6720 C.3    67  MET67       0.0692
     81  N         17.7600   13.9750  -32.0360 N.am   68  ASP68      -0.1971
     82  CA        18.3090   13.8380  -33.3870 C.3    68  ASP68       0.1709
     83  C         18.8860   12.4490  -33.6570 C.2    68  ASP68       0.2293
     84  O         18.6920   11.8950  -34.7300 O.2    68  ASP68      -0.2864
     85  CB        19.3790   14.9100  -33.6650 C.3    68  ASP68       0.1436
     86  CG        18.7900   16.1970  -34.1970 C.2    68  ASP68       0.3671
     87  OD1       17.5690   16.2470  -34.4050 O.co2  68  ASP68      -0.2456
     88  OD2       19.5460   17.1630  -34.4240 O.co2  68  ASP68      -0.2456
     89  N         15.0440   20.7540  -26.4390 N.3   137  ALA137     -0.1245
     90  CA        15.8700   20.5280  -25.2670 C.3   137  ALA137      0.1562
     91  C         15.8320   21.7500  -24.3910 C.2   137  ALA137      0.2260
     92  O         15.8080   22.8870  -24.8840 O.2   137  ALA137     -0.2867
     93  CB        17.3080   20.1970  -25.6620 C.3   137  ALA137      0.0290
     94  N         22.7660   24.9440  -18.9030 N.3   158  GLN158     -0.1231
     95  CA        23.1390   23.7730  -19.6830 C.3   158  GLN158      0.1698
     96  C         21.8970   22.9740  -20.0550 C.2   158  GLN158      0.2592
     97  O         21.0550   22.7180  -19.2100 O.2   158  GLN158     -0.2718
     98  CB        24.0970   22.9010  -18.8560 C.3   158  GLN158      0.0381
     99  CG        24.6810   21.6900  -19.5780 C.3   158  GLN158      0.0905
    100  CD        25.5800   22.0520  -20.7620 C.2   158  GLN158      0.2608
    101  OE1       25.2600   21.7410  -21.9180 O.2   158  GLN158     -0.2717
    102  NE2       26.7140   22.6990  -20.4780 N.am  158  GLN158     -0.0878
    103  N         21.8100   22.5630  -21.3190 N.am  159  LEU159     -0.1966
    104  CA        20.7520   21.6580  -21.7880 C.3   159  LEU159      0.1728
    105  C         20.9520   20.2540  -21.2200 C.2   159  LEU159      0.2616
    106  O         22.0380   19.6850  -21.3490 O.2   159  LEU159     -0.2715
    107  CB        20.7920   21.5630  -23.3100 C.3   159  LEU159      0.0311
    108  CG        20.6040   22.8830  -24.0600 C.3   159  LEU159      0.0022
    109  CD1       21.0270   22.7540  -25.5180 C.3   159  LEU159      0.0001
    110  CD2       19.1600   23.3420  -23.9430 C.3   159  LEU159      0.0001
    111  N         19.9230   19.6920  -20.5960 N.am  160  ASP160     -0.1957
    112  CA        20.0330   18.3800  -19.9510 C.3   160  ASP160      0.1840
    113  C         18.7860   17.5070  -20.0980 C.2   160  ASP160      0.2622
    114  O         18.7650   16.3900  -19.6160 O.2   160  ASP160     -0.2715
    115  CB        20.3050   18.5660  -18.4540 C.3   160  ASP160      0.1450
    116  CG        19.0210   18.6380  -17.6330 C.2   160  ASP160      0.3671
    117  OD1       18.2870   19.6420  -17.7440 O.co2 160  ASP160     -0.2456
    118  OD2       18.7430   17.6720  -16.8880 O.co2 160  ASP160     -0.2456
    119  N         17.7360   18.0150  -20.7520 N.am  161  HIS161     -0.1959
    120  CA        16.4360   17.3510  -20.7070 C.3   161  HIS161      0.1787
    121  C         15.6160   17.6000  -21.9750 C.2   161  HIS161      0.2620
    122  O         15.4360   18.7430  -22.3770 O.2   161  HIS161     -0.2715
    123  CB        15.7110   17.8730  -19.4750 C.3   161  HIS161      0.0785
    124  CG        14.3500   17.3030  -19.2540 C.ar  161  HIS161      0.0821
    125  ND1       14.1070   15.9520  -19.1760 N.ar  161  HIS161     -0.2267
    126  CD2       13.1630   17.9090  -19.0210 C.ar  161  HIS161      0.1154
    127  CE1       12.8230   15.7460  -18.9370 C.ar  161  HIS161      0.1986
    128  NE2       12.2270   16.9180  -18.8410 N.ar  161  HIS161     -0.2212
    129  N         15.1190   16.5230  -22.5810 N.am  162  GLY162     -0.1954
    130  CA        14.2610   16.6120  -23.7630 C.3   162  GLY162      0.1869
    131  C         12.7940   16.6920  -23.3930 C.2   162  GLY162      0.2309
    132  O         12.3150   15.8910  -22.5830 O.2   162  GLY162     -0.2863
    133  N         18.0920   23.5720  -29.3550 N.3   207  ALA207     -0.1245
    134  CA        18.0990   22.2540  -30.0030 C.3   207  ALA207      0.1562
    135  C         16.6930   21.8080  -30.3510 C.2   207  ALA207      0.2260
    136  O         16.2000   20.7960  -29.8540 O.2   207  ALA207     -0.2867
    137  CB        18.7910   21.2210  -29.1250 C.3   207  ALA207      0.0290
@<TRIPOS>BOND
     1    84    83    2
     2    88    86   ar
     3    87    86   ar
     4    86    85    1
     5    85    82    1
     6    83    82    1
     7    82    81    1
     8    76    75    2
     9    81    75   am
    10    75    74    1
    11   135   134    1
    12   135   136    2
    13    74    77    1
    14    74    73    1
    15   134   133    1
    16   134   137    1
    17    77    78    1
    18    68    67    2
    19    41    39   ar
    20    71    70    1
    21    73    67   am
    22    67    66    1
    23    69    70    1
    24    69    66    1
    25    34    35    1
    26    39    40   ar
    27    39    38    1
    28    78    79    1
    29    70    72    1
    30    66    65    1
    31    80    79    1
    32    35    38    1
    33    35    36    1
    34    32    30   ar
    35    32    33   ar
    36    65    63   am
    37    23    22    2
    38    30    27   ar
    39    37    36    2
    40    33    31   ar
    41    36    42   am
    42    89    90    1
    43    63    62    1
    44    63    64    2
    45    22    21    1
    46    50    52   ar
    47    50    48   ar
    48    52    51   ar
    49    27    25   ar
    50    27    29   ar
    51    93    90    1
    52    62    61    1
    53   109   108    1
    54    24    21    1
    55    24    25    1
    56    31    29   ar
    57    42    43    1
    58    90    91    1
    59    21    20    1
    60    48    47   ar
    61    51    49   ar
    62    25    26   ar
    63    92    91    2
    64    29    28   ar
    65    47    49   ar
    66    47    46    1
    67    43    46    1
    68    43    44    1
    69    61    59   am
    70   108   110    1
    71   108   107    1
    72    60    59    2
    73   130   131    1
    74   130   129    1
    75    26    28   ar
    76    59    58    1
    77   131   132    2
    78   107   104    1
    79    44    45    2
    80   129   121   am
    81    17    16    2
    82   122   121    2
    83   121   120    1
    84   101   100    2
    85    58    57    1
    86   104   103    1
    87   104   105    1
    88    16    15    1
    89   106   105    2
    90   103    96   am
    91   105   111   am
    92    57    55   am
    93    15    18    1
    94    15    14    1
    95    18    19    1
    96   100   102   am
    97   100    99    1
    98   119   120    1
    99   119   113   am
   100   120   123    1
   101   111   112    1
   102    13    12    2
   103    55    56    2
   104    55    54    1
   105   113   112    1
   106   113   114    2
   107    96    95    1
   108    96    97    2
   109   112   115    1
   110    14    12   am
   111    53    54    1
   112    95    94    1
   113    95    98    1
   114    99    98    1
   115    12    11    1
   116   123   124    1
   117   124   125   ar
   118   124   126   ar
   119   125   127   ar
   120   126   128   ar
   121   127   128   ar
   122   115   116    1
   123     8     7    2
   124     5     2    1
   125     5     6    1
   126    11    10    1
   127     7     9   am
   128     7     6    1
   129   117   116   ar
   130     2     1    1
   131     2     3    1
   132   116   118   ar
   133     4     3    2
