@<TRIPOS>MOLECULE
tmp/6exsA01.pdb
 95 89 0 0 0
SMALL
GASTEIGER

@<TRIPOS>ATOM
      1  N         43.4970   -1.8210   26.4520 N.3    54  ILE54      -0.1245
      2  CA        43.0430   -0.9910   25.3270 C.3    54  ILE54       0.1561
      3  C         43.2480    0.4930   25.6980 C.2    54  ILE54       0.2260
      4  O         43.0930    0.8700   26.8650 O.2    54  ILE54      -0.2867
      5  CB        41.5240   -1.2890   25.0100 C.3    54  ILE54       0.0252
      6  CG1       41.3090   -2.7580   24.5760 C.3    54  ILE54       0.0019
      7  CG2       40.9220   -0.3200   23.9660 C.3    54  ILE54       0.0019
      8  CD1       39.8190   -3.2540   24.6380 C.3    54  ILE54       0.0001
      9  N         39.8630    4.8350   23.0540 N.3    58  THR58      -0.1218
     10  CA        39.2330    3.7470   22.2900 C.3    58  THR58       0.1862
     11  C         38.2060    3.0000   23.1490 C.2    58  THR58       0.2287
     12  O         37.1190    2.7190   22.6550 O.2    58  THR58      -0.2866
     13  CB        40.2810    2.8410   21.6470 C.3    58  THR58       0.1770
     14  OG1       41.1700    3.6630   20.9000 O.3    58  THR58      -0.2211
     15  CG2       39.6700    1.7970   20.7230 C.3    58  THR58       0.0375
     16  N         34.1780    2.7730   22.2960 N.3    62  ILE62      -0.1245
     17  CA        33.4970    1.4640   22.2730 C.3    62  ILE62       0.1561
     18  C         32.1900    1.4860   23.1080 C.2    62  ILE62       0.2260
     19  O         31.1510    1.0650   22.6060 O.2    62  ILE62      -0.2867
     20  CB        34.4580    0.3010   22.6720 C.3    62  ILE62       0.0252
     21  CG1       35.5350    0.0700   21.5740 C.3    62  ILE62       0.0019
     22  CG2       33.6820   -1.0020   22.9750 C.3    62  ILE62       0.0019
     23  CD1       36.8450   -0.6280   22.0070 C.3    62  ILE62       0.0001
     24  N         40.3520  -10.0890   23.0660 N.3   111  LEU111     -0.1245
     25  CA        39.6500   -9.1890   22.1430 C.3   111  LEU111      0.1561
     26  C         38.5250   -9.8610   21.3480 C.2   111  LEU111      0.2260
     27  O         37.5060   -9.2150   21.0920 O.2   111  LEU111     -0.2867
     28  CB        40.6110   -8.4470   21.2000 C.3   111  LEU111      0.0270
     29  CG        41.5240   -7.3630   21.8120 C.3   111  LEU111      0.0019
     30  CD1       42.2730   -6.6030   20.7140 C.3   111  LEU111      0.0001
     31  CD2       40.7490   -6.3780   22.6790 C.3   111  LEU111      0.0001
     32  N         34.5580   -8.4630   21.3120 N.3   115  PHE115     -0.1241
     33  CA        33.7720   -8.1010   20.1210 C.3   115  PHE115      0.1605
     34  C         32.6530   -9.1260   19.7940 C.2   115  PHE115      0.2264
     35  O         31.5760   -8.6990   19.3760 O.2   115  PHE115     -0.2867
     36  CB        34.6660   -7.7810   18.9130 C.3   115  PHE115      0.0534
     37  CG        35.4650   -6.5080   19.1280 C.ar  115  PHE115     -0.0203
     38  CD1       34.8610   -5.2580   19.0220 C.ar  115  PHE115     -0.0042
     39  CD2       36.8140   -6.5610   19.4670 C.ar  115  PHE115     -0.0042
     40  CE1       35.5960   -4.0810   19.2500 C.ar  115  PHE115     -0.0003
     41  CE2       37.5480   -5.3850   19.6960 C.ar  115  PHE115     -0.0003
     42  CZ        36.9340   -4.1540   19.5880 C.ar  115  PHE115     -0.0000
     43  N         34.7320   -6.0560    6.5270 N.3   238  LEU238     -0.1245
     44  CA        35.3270   -6.4510    7.8060 C.3   238  LEU238      0.1561
     45  C         36.4720   -7.4590    7.6720 C.2   238  LEU238      0.2260
     46  O         37.4890   -7.3050    8.3490 O.2   238  LEU238     -0.2867
     47  CB        34.2610   -6.9610    8.7880 C.3   238  LEU238      0.0270
     48  CG        33.4130   -5.8910    9.4850 C.3   238  LEU238      0.0019
     49  CD1       32.1170   -6.4780   10.0060 C.3   238  LEU238      0.0001
     50  CD2       34.1840   -5.2060   10.6160 C.3   238  LEU238      0.0001
     51  N         40.7160   -6.6900    7.9190 N.3   242  TYR242     -0.1241
     52  CA        41.3370   -7.4890    8.9830 C.3   242  TYR242      0.1605
     53  C         42.6920   -8.0700    8.5890 C.2   242  TYR242      0.2264
     54  O         43.6680   -7.8860    9.3190 O.2   242  TYR242     -0.2867
     55  CB        40.3810   -8.6040    9.4680 C.3   242  TYR242      0.0534
     56  CG        40.9030   -9.4270   10.6300 C.ar  242  TYR242     -0.0201
     57  CD1       40.8610   -8.9370   11.9340 C.ar  242  TYR242     -0.0009
     58  CD2       41.4080  -10.7090   10.4320 C.ar  242  TYR242     -0.0009
     59  CE1       41.3390   -9.6890   13.0050 C.ar  242  TYR242      0.0417
     60  CE2       41.8860  -11.4720   11.4970 C.ar  242  TYR242      0.0417
     61  CZ        41.8500  -10.9570   12.7830 C.ar  242  TYR242      0.1957
     62  OH        42.3210  -11.6990   13.8370 O.3   242  TYR242     -0.2866
     63  N         42.0540   -2.6030    9.7920 N.3   247  LEU247     -0.1231
     64  CA        40.8400   -2.7240   10.5980 C.3   247  LEU247      0.1693
     65  C         41.0340   -2.1620   12.0070 C.2   247  LEU247      0.2593
     66  O         41.6880   -2.7760   12.8560 O.2   247  LEU247     -0.2718
     67  CB        40.2920   -4.1730   10.6090 C.3   247  LEU247      0.0284
     68  CG        39.0230   -4.4570   11.4420 C.3   247  LEU247      0.0019
     69  CD1       37.7870   -3.8260   10.8290 C.3   247  LEU247      0.0001
     70  CD2       38.8020   -5.9370   11.6040 C.3   247  LEU247      0.0001
     71  N         40.4520   -0.9770   12.2330 N.am  248  SER248     -0.1938
     72  CA        40.4810   -0.2370   13.4900 C.3   248  SER248      0.2055
     73  C         39.0490    0.0200   13.9460 C.2   248  SER248      0.2643
     74  O         38.1160   -0.1560   13.1530 O.2   248  SER248     -0.2714
     75  CB        41.2010    1.0940   13.2880 C.3   248  SER248      0.2130
     76  OG        40.5650    1.9000   12.3070 O.3   248  SER248     -0.2179
     77  N         38.8730    0.4740   15.2100 N.am  249  PHE249     -0.1973
     78  CA        37.5450    0.8010   15.7340 C.3   249  PHE249      0.1639
     79  C         36.9240    2.0230   15.0350 C.2   249  PHE249      0.2290
     80  O         35.7020    2.1300   14.9940 O.2   249  PHE249     -0.2864
     81  CB        37.5240    0.9410   17.2710 C.3   249  PHE249      0.0560
     82  CG        36.1140    0.8500   17.8010 C.ar  249  PHE249     -0.0200
     83  CD1       35.4270   -0.3610   17.7920 C.ar  249  PHE249     -0.0042
     84  CD2       35.4390    1.9890   18.2240 C.ar  249  PHE249     -0.0042
     85  CE1       34.1040   -0.4330   18.2170 C.ar  249  PHE249     -0.0003
     86  CE2       34.1130    1.9130   18.6550 C.ar  249  PHE249     -0.0003
     87  CZ        33.4600    0.7020   18.6550 C.ar  249  PHE249     -0.0000
     88  N         34.1930    1.2800   12.6470 N.3   252  ILE252     -0.1245
     89  CA        32.9120    1.1010   13.3300 C.3   252  ILE252      0.1561
     90  C         32.3600    2.4550   13.7810 C.2   252  ILE252      0.2260
     91  O         31.2410    2.7900   13.4150 O.2   252  ILE252     -0.2867
     92  CB        32.9890    0.0750   14.5110 C.3   252  ILE252      0.0252
     93  CG1       33.8880   -1.1620   14.1890 C.3   252  ILE252      0.0019
     94  CG2       31.5900   -0.3460   15.0020 C.3   252  ILE252      0.0019
     95  CD1       33.4500   -2.1200   13.0280 C.3   252  ILE252      0.0001
@<TRIPOS>BOND
     1    43    44    1
     2    45    44    1
     3    45    46    2
     4    44    47    1
     5    51    52    1
     6    53    52    1
     7    53    54    2
     8    47    48    1
     9    52    55    1
    10    55    56    1
    11    48    49    1
    12    48    50    1
    13    63    64    1
    14    58    56   ar
    15    58    60   ar
    16    64    67    1
    17    64    65    1
    18    67    68    1
    19    56    57   ar
    20    69    68    1
    21    68    70    1
    22    60    61   ar
    23    57    59   ar
    24    65    71   am
    25    65    66    2
    26    71    72    1
    27    76    75    1
    28    88    89    1
    29    61    59   ar
    30    61    62    1
    31    95    93    1
    32    74    73    2
    33    75    72    1
    34    89    90    1
    35    89    92    1
    36    91    90    2
    37    72    73    1
    38    73    77   am
    39    93    92    1
    40    92    94    1
    41    80    79    2
    42    79    78    1
    43    77    78    1
    44    78    81    1
    45    81    82    1
    46    83    82   ar
    47    83    85   ar
    48    82    84   ar
    49    85    87   ar
    50    84    86   ar
    51    86    87   ar
    52    36    37    1
    53    36    33    1
    54    38    37   ar
    55    38    40   ar
    56    37    39   ar
    57    40    42   ar
    58    35    34    2
    59    39    41   ar
    60    42    41   ar
    61    34    33    1
    62    33    32    1
    63    30    29    1
    64    15    13    1
    65    14    13    1
    66    27    26    2
    67    28    29    1
    68    28    25    1
    69    26    25    1
    70    21    23    1
    71    21    20    1
    72    13    10    1
    73    29    31    1
    74    25    24    1
    75    17    16    1
    76    17    20    1
    77    17    18    1
    78    10     9    1
    79    10    11    1
    80    19    18    2
    81    12    11    2
    82    20    22    1
    83     7     5    1
    84     6     8    1
    85     6     5    1
    86     5     2    1
    87     2     3    1
    88     2     1    1
    89     3     4    2
