@<TRIPOS>MOLECULE
tmp/6exsA04.pdb
 113 106 0 0 0
SMALL
GASTEIGER

@<TRIPOS>ATOM
      1  N         24.4380    1.1490   19.1450 N.3    69  LEU69      -0.1245
      2  CA        24.0450   -0.0220   18.3540 C.3    69  LEU69       0.1561
      3  C         22.9230   -0.8110   18.9840 C.2    69  LEU69       0.2260
      4  O         22.0690   -1.2890   18.2520 O.2    69  LEU69      -0.2867
      5  CB        25.2280   -0.9240   17.9900 C.3    69  LEU69       0.0270
      6  CG        26.1460   -0.3680   16.8870 C.3    69  LEU69       0.0019
      7  CD1       27.4780   -1.0590   16.8880 C.3    69  LEU69       0.0001
      8  CD2       25.5030   -0.4660   15.5070 C.3    69  LEU69       0.0001
      9  N         19.8340    1.2500   18.0910 N.3    72  MET72      -0.1230
     10  CA        19.6420    1.2240   16.6240 C.3    72  MET72       0.1702
     11  C         19.0720   -0.1090   16.1450 C.2    72  MET72       0.2593
     12  O         18.2230   -0.1210   15.2590 O.2    72  MET72      -0.2718
     13  CB        20.9630    1.4900   15.8850 C.3    72  MET72       0.0401
     14  CG        21.1680    2.9240   15.4730 C.3    72  MET72       0.0596
     15  SD        22.8860    3.2120   14.9940 S.3    72  MET72      -0.1393
     16  CE        23.0150    4.9300   15.3210 C.3    72  MET72       0.0692
     17  N         19.5340   -1.2280   16.7230 N.am   73  SER73      -0.1952
     18  CA        19.0810   -2.5700   16.3480 C.3    73  SER73       0.1924
     19  C         17.6240   -2.9050   16.7780 C.2    73  SER73       0.2314
     20  O         17.0900   -3.9170   16.3170 O.2    73  SER73      -0.2863
     21  CB        20.0550   -3.6270   16.8530 C.3    73  SER73       0.2116
     22  OG        20.0360   -3.6870   18.2680 O.3    73  SER73      -0.2180
     23  N         15.0850   -1.1930   15.8900 N.3    75  ILE75      -0.1231
     24  CA        14.3830   -0.8760   14.6430 C.3    75  ILE75       0.1678
     25  C         14.2200   -2.1840   13.8120 C.2    75  ILE75       0.2434
     26  O         13.0710   -2.6040   13.6520 O.2    75  ILE75      -0.2733
     27  CB        15.0570    0.3000   13.8520 C.3    75  ILE75       0.0265
     28  CG1       15.1780    1.5950   14.7120 C.3    75  ILE75       0.0019
     29  CG2       14.3300    0.5440   12.5310 C.3    75  ILE75       0.0020
     30  CD1       16.0950    2.7000   14.1510 C.3    75  ILE75       0.0001
     31  N         15.2900   -2.8950   13.3430 N.am   76  PRO76      -0.2718
     32  CA        15.0480   -4.1520   12.6040 C.3    76  PRO76       0.1535
     33  C         14.4400   -5.2550   13.4780 C.2    76  PRO76       0.2599
     34  O         13.6240   -6.0270   12.9890 O.2    76  PRO76      -0.2715
     35  CB        16.4330   -4.5230   12.0450 C.3    76  PRO76       0.0310
     36  CG        17.3940   -3.8260   12.8920 C.3    76  PRO76       0.0237
     37  CD        16.7360   -2.5730   13.3760 C.3    76  PRO76       0.0939
     38  N         14.8020   -5.2760   14.7650 N.am   77  GLY77      -0.1955
     39  CA        14.2950   -6.2200   15.7630 C.3    77  GLY77       0.1869
     40  C         12.7900   -6.1770   15.9590 C.2    77  GLY77       0.2309
     41  O         12.1680   -7.2220   16.1590 O.2    77  GLY77      -0.2863
     42  N         11.3740   -7.5550   12.4570 N.3    80  ILE80      -0.1245
     43  CA        11.5240   -9.0260   12.4640 C.3    80  ILE80       0.1561
     44  C         10.3280   -9.6420   13.1830 C.2    80  ILE80       0.2260
     45  O          9.6590  -10.5010   12.6200 O.2    80  ILE80      -0.2867
     46  CB        12.8890   -9.4840   13.0800 C.3    80  ILE80       0.0252
     47  CG1       14.0600   -9.1600   12.1210 C.3    80  ILE80       0.0019
     48  CG2       12.8650  -10.9860   13.4590 C.3    80  ILE80       0.0019
     49  CD1       15.4350   -9.1800   12.7460 C.3    80  ILE80       0.0001
     50  N         24.2420   -6.9430   20.9830 N.3   122  ILE122     -0.1231
     51  CA        23.6250   -5.9620   20.0660 C.3   122  ILE122      0.1692
     52  C         22.4010   -6.5950   19.3650 C.2   122  ILE122      0.2591
     53  O         21.3170   -6.0160   19.4020 O.2   122  ILE122     -0.2718
     54  CB        24.6230   -5.3110   19.0580 C.3   122  ILE122      0.0266
     55  CG1       25.5540   -4.3150   19.7700 C.3   122  ILE122      0.0019
     56  CG2       23.8690   -4.6030   17.8950 C.3   122  ILE122      0.0020
     57  CD1       26.8970   -4.1390   19.1070 C.3   122  ILE122      0.0001
     58  N         22.5810   -7.8040   18.7910 N.am  123  ILE123     -0.1980
     59  CA        21.5550   -8.5440   18.0630 C.3   123  ILE123      0.1595
     60  C         20.4350   -9.0230   18.9890 C.2   123  ILE123      0.2287
     61  O         19.2610   -8.8390   18.6560 O.2   123  ILE123     -0.2864
     62  CB        22.1670   -9.6900   17.1980 C.3   123  ILE123      0.0276
     63  CG1       23.0720   -9.0830   16.0950 C.3   123  ILE123      0.0022
     64  CG2       21.0410  -10.5790   16.5860 C.3   123  ILE123      0.0022
     65  CD1       23.5920  -10.0250   15.1050 C.3   123  ILE123      0.0001
     66  N         18.3100   -5.9590   20.2980 N.3   126  GLY126     -0.1210
     67  CA        17.4450   -5.4500   19.2390 C.3   126  GLY126      0.1956
     68  C         16.2180   -6.3150   19.0620 C.2   126  GLY126      0.2611
     69  O         15.1480   -5.8060   18.7370 O.2   126  GLY126     -0.2717
     70  N         16.3540   -7.6280   19.3390 N.am  127  LEU127     -0.1979
     71  CA        15.2730   -8.6120   19.2600 C.3   127  LEU127      0.1596
     72  C         14.4060   -8.6470   20.5280 C.2   127  LEU127      0.2287
     73  O         13.1830   -8.7540   20.4360 O.2   127  LEU127     -0.2864
     74  CB        15.8340  -10.0180   18.9770 C.3   127  LEU127      0.0297
     75  CG        16.2780  -10.3350   17.5500 C.3   127  LEU127      0.0022
     76  CD1       17.0020  -11.6560   17.5080 C.3   127  LEU127      0.0001
     77  CD2       15.0850  -10.3960   16.5980 C.3   127  LEU127      0.0001
     78  N         25.3000    6.6490   10.6260 N.3   259  LEU259     -0.1245
     79  CA        23.9860    6.0980   10.9770 C.3   259  LEU259      0.1561
     80  C         23.2110    6.9560   11.9790 C.2   259  LEU259      0.2260
     81  O         22.0170    7.1680   11.7980 O.2   259  LEU259     -0.2867
     82  CB        24.1030    4.6500   11.4750 C.3   259  LEU259      0.0270
     83  CG        24.2360    3.5700   10.4050 C.3   259  LEU259      0.0019
     84  CD1       24.5640    2.2410   11.0290 C.3   259  LEU259      0.0001
     85  CD2       22.9710    3.4440    9.5890 C.3   259  LEU259      0.0001
     86  N         19.7450    8.2520    9.9880 N.3   263  LEU263     -0.1245
     87  CA        18.4740    7.6770   10.4460 C.3   263  LEU263      0.1561
     88  C         17.4730    8.7450   10.9180 C.2   263  LEU263      0.2260
     89  O         16.3650    8.7230   10.3890 O.2   263  LEU263     -0.2867
     90  CB        18.6510    6.5590   11.4940 C.3   263  LEU263      0.0270
     91  CG        19.4060    5.3030   11.0450 C.3   263  LEU263      0.0019
     92  CD1       19.8570    4.5030   12.2350 C.3   263  LEU263      0.0001
     93  CD2       18.5860    4.4510   10.0910 C.3   263  LEU263      0.0001
     94  N         16.2850   10.5160    7.6500 N.3   266  ILE266     -0.1231
     95  CA        15.4540    9.5680    6.8940 C.3   266  ILE266      0.1692
     96  C         14.0390    9.4810    7.4920 C.2   266  ILE266      0.2592
     97  O         13.0610    9.4980    6.7420 O.2   266  ILE266     -0.2718
     98  CB        16.1500    8.1750    6.7680 C.3   266  ILE266      0.0266
     99  CG1       17.3900    8.2540    5.8400 C.3   266  ILE266      0.0019
    100  CG2       15.1780    7.0750    6.2830 C.3   266  ILE266      0.0020
    101  CD1       18.4020    7.0850    5.9830 C.3   266  ILE266      0.0001
    102  N         13.9360    9.4320    8.8330 N.am  267  TYR267     -0.1976
    103  CA        12.6610    9.3360    9.5390 C.3   267  TYR267      0.1639
    104  C         11.8260   10.5980    9.4310 C.2   267  TYR267      0.2290
    105  O         10.6610   10.4970    9.0430 O.2   267  TYR267     -0.2864
    106  CB        12.8480    8.8930   11.0030 C.3   267  TYR267      0.0560
    107  CG        12.9850    7.3900   11.1320 C.ar  267  TYR267     -0.0198
    108  CD1       11.8580    6.5730   11.2140 C.ar  267  TYR267     -0.0009
    109  CD2       14.2340    6.7760   11.1010 C.ar  267  TYR267     -0.0009
    110  CE1       11.9750    5.1870   11.2860 C.ar  267  TYR267      0.0417
    111  CE2       14.3620    5.3910   11.1550 C.ar  267  TYR267      0.0417
    112  CZ        13.2290    4.6010   11.2580 C.ar  267  TYR267      0.1957
    113  OH        13.3430    3.2390   11.3270 O.3   267  TYR267     -0.2866
@<TRIPOS>BOND
     1    99   101    1
     2    99    98    1
     3   100    98    1
     4    97    96    2
     5    98    95    1
     6    95    96    1
     7    95    94    1
     8    96   102   am
     9   102   103    1
    10   105   104    2
    11   104   103    1
    12   103   106    1
    13    85    83    1
    14    86    87    1
    15    93    91    1
    16    89    88    2
    17    83    84    1
    18    83    82    1
    19    87    88    1
    20    87    90    1
    21    78    79    1
    22    79    82    1
    23    79    80    1
    24   106   107    1
    25    91    90    1
    26    91    92    1
    27   109   107   ar
    28   109   111   ar
    29   107   108   ar
    30   111   112   ar
    31   108   110   ar
    32   112   110   ar
    33   112   113    1
    34    81    80    2
    35    35    32    1
    36    35    36    1
    37    47    49    1
    38    47    46    1
    39    42    43    1
    40    43    46    1
    41    43    44    1
    42    29    27    1
    43    32    31    1
    44    32    33    1
    45    45    44    2
    46    36    37    1
    47    34    33    2
    48    46    48    1
    49    31    37    1
    50    31    25   am
    51    33    38   am
    52    26    25    2
    53    25    24    1
    54    27    24    1
    55    27    28    1
    56    30    28    1
    57    24    23    1
    58    38    39    1
    59    15    16    1
    60    15    14    1
    61    65    63    1
    62    12    11    2
    63    14    13    1
    64     8     6    1
    65    39    40    1
    66    13    10    1
    67    40    41    2
    68    63    62    1
    69    11    10    1
    70    11    17   am
    71    20    19    2
    72    18    17    1
    73    18    19    1
    74    18    21    1
    75    64    62    1
    76    77    75    1
    77    10     9    1
    78    21    22    1
    79     6     7    1
    80     6     5    1
    81    62    59    1
    82    76    75    1
    83    75    74    1
    84    56    54    1
    85     5     2    1
    86    59    58    1
    87    59    60    1
    88     4     3    2
    89     2     3    1
    90     2     1    1
    91    61    60    2
    92    69    68    2
    93    58    52   am
    94    74    71    1
    95    54    55    1
    96    54    51    1
    97    68    67    1
    98    68    70   am
    99    57    55    1
   100    67    66    1
   101    71    70    1
   102    71    72    1
   103    52    53    2
   104    52    51    1
   105    51    50    1
   106    73    72    2
