@<TRIPOS>MOLECULE
tmp/6exsA05.pdb
 89 87 0 0 0
SMALL
GASTEIGER

@<TRIPOS>ATOM
      1  N         15.0850   -1.1930   15.8900 N.3    75  ILE75      -0.1231
      2  CA        14.3830   -0.8760   14.6430 C.3    75  ILE75       0.1678
      3  C         14.2200   -2.1840   13.8120 C.2    75  ILE75       0.2434
      4  O         13.0710   -2.6040   13.6520 O.2    75  ILE75      -0.2733
      5  CB        15.0570    0.3000   13.8520 C.3    75  ILE75       0.0265
      6  CG1       15.1780    1.5950   14.7120 C.3    75  ILE75       0.0019
      7  CG2       14.3300    0.5440   12.5310 C.3    75  ILE75       0.0020
      8  CD1       16.0950    2.7000   14.1510 C.3    75  ILE75       0.0001
      9  N         15.2900   -2.8950   13.3430 N.am   76  PRO76      -0.2729
     10  CA        15.0480   -4.1520   12.6040 C.3    76  PRO76       0.1401
     11  C         14.4400   -5.2550   13.4780 C.2    76  PRO76       0.2269
     12  O         13.6240   -6.0270   12.9890 O.2    76  PRO76      -0.2865
     13  CB        16.4330   -4.5230   12.0450 C.3    76  PRO76       0.0296
     14  CG        17.3940   -3.8260   12.8920 C.3    76  PRO76       0.0237
     15  CD        16.7360   -2.5730   13.3760 C.3    76  PRO76       0.0939
     16  N         10.7390   -4.9660   13.5050 N.3    79  TRP79      -0.1227
     17  CA        10.3140   -5.3320   12.1480 C.3    79  TRP79       0.1737
     18  C         10.2850   -6.8600   12.0100 C.2    79  TRP79       0.2595
     19  O          9.2920   -7.3950   11.5060 O.2    79  TRP79      -0.2718
     20  CB        11.2510   -4.7140   11.0880 C.3    79  TRP79       0.0564
     21  CG        10.8680   -5.0000    9.6570 C.ar   79  TRP79       0.0003
     22  CD1       10.1030   -4.2150    8.8420 C.ar   79  TRP79       0.0946
     23  CD2       11.2680   -6.1330    8.8620 C.ar   79  TRP79       0.0152
     24  NE1       10.0090   -4.7790    7.5890 N.ar   79  TRP79      -0.2442
     25  CE2       10.6830   -5.9740    7.5830 C.ar   79  TRP79       0.0810
     26  CE3       12.0420   -7.2810    9.1150 C.ar   79  TRP79       0.0012
     27  CZ2       10.8640   -6.9110    6.5540 C.ar   79  TRP79       0.0191
     28  CZ3       12.2270   -8.2030    8.0940 C.ar   79  TRP79       0.0001
     29  CH2       11.6340   -8.0200    6.8340 C.ar   79  TRP79       0.0015
     30  N         11.3740   -7.5550   12.4570 N.am   80  ILE80      -0.1980
     31  CA        11.5240   -9.0260   12.4640 C.3    80  ILE80       0.1595
     32  C         10.3280   -9.6420   13.1830 C.2    80  ILE80       0.2287
     33  O          9.6590  -10.5010   12.6200 O.2    80  ILE80      -0.2864
     34  CB        12.8890   -9.4840   13.0800 C.3    80  ILE80       0.0276
     35  CG1       14.0600   -9.1600   12.1210 C.3    80  ILE80       0.0022
     36  CG2       12.8650  -10.9860   13.4590 C.3    80  ILE80       0.0022
     37  CD1       15.4350   -9.1800   12.7460 C.3    80  ILE80       0.0001
     38  N         13.1440   -8.9480    0.4350 N.3   223  TYR223     -0.1241
     39  CA        13.8820   -8.5440    1.6350 C.3   223  TYR223      0.1605
     40  C         15.1280   -9.3900    1.8720 C.2   223  TYR223      0.2264
     41  O         16.1510   -8.8470    2.2850 O.2   223  TYR223     -0.2867
     42  CB        12.9820   -8.5330    2.8840 C.3   223  TYR223      0.0534
     43  CG        12.0060   -7.3800    2.9240 C.ar  223  TYR223     -0.0201
     44  CD1       12.4300   -6.0920    3.2350 C.ar  223  TYR223     -0.0009
     45  CD2       10.6500   -7.5830    2.6940 C.ar  223  TYR223     -0.0009
     46  CE1       11.5310   -5.0280    3.2880 C.ar  223  TYR223      0.0417
     47  CE2        9.7410   -6.5280    2.7420 C.ar  223  TYR223      0.0417
     48  CZ        10.1860   -5.2520    3.0400 C.ar  223  TYR223      0.1957
     49  OH         9.2880   -4.2150    3.0940 O.3   223  TYR223     -0.2866
     50  N         18.7950   -7.6300    2.3560 N.3   227  ILE227     -0.1245
     51  CA        19.5180   -7.8800    3.6130 C.3   227  ILE227      0.1561
     52  C         20.7710   -8.7200    3.3170 C.2   227  ILE227      0.2260
     53  O         21.8420   -8.4060    3.8300 O.2   227  ILE227     -0.2867
     54  CB        18.6050   -8.4770    4.7320 C.3   227  ILE227      0.0252
     55  CG1       17.4380   -7.5130    5.0810 C.3   227  ILE227      0.0019
     56  CG2       19.4100   -8.8300    6.0000 C.3   227  ILE227      0.0019
     57  CD1       16.1470   -8.2050    5.5940 C.3   227  ILE227      0.0001
     58  N         13.9360    9.4320    8.8330 N.3   267  TYR267     -0.1241
     59  CA        12.6610    9.3360    9.5390 C.3   267  TYR267      0.1605
     60  C         11.8260   10.5980    9.4310 C.2   267  TYR267      0.2264
     61  O         10.6610   10.4970    9.0430 O.2   267  TYR267     -0.2867
     62  CB        12.8480    8.8930   11.0030 C.3   267  TYR267      0.0534
     63  CG        12.9850    7.3900   11.1320 C.ar  267  TYR267     -0.0201
     64  CD1       11.8580    6.5730   11.2140 C.ar  267  TYR267     -0.0009
     65  CD2       14.2340    6.7760   11.1010 C.ar  267  TYR267     -0.0009
     66  CE1       11.9750    5.1870   11.2860 C.ar  267  TYR267      0.0417
     67  CE2       14.3620    5.3910   11.1550 C.ar  267  TYR267      0.0417
     68  CZ        13.2290    4.6010   11.2580 C.ar  267  TYR267      0.1957
     69  OH        13.3430    3.2390   11.3270 O.3   267  TYR267     -0.2866
     70  N          4.7210    3.4980   14.9840 N.3   431  ALA431     -0.1231
     71  CA         5.9450    2.7220   15.2180 C.3   431  ALA431      0.1694
     72  C          7.1780    3.5210   14.7660 C.2   431  ALA431      0.2591
     73  O          8.2550    3.3650   15.3450 O.2   431  ALA431     -0.2718
     74  CB         5.8760    1.4000   14.4700 C.3   431  ALA431      0.0304
     75  N          7.0080    4.3740   13.7280 N.am  432  GLN432     -0.1979
     76  CA         8.0450    5.2500   13.1800 C.3   432  GLN432      0.1601
     77  C          8.3460    6.4060   14.1380 C.2   432  GLN432      0.2287
     78  O          9.5090    6.7870   14.2800 O.2   432  GLN432     -0.2864
     79  CB         7.6540    5.7640   11.7890 C.3   432  GLN432      0.0394
     80  CG         7.7820    4.6960   10.6990 C.3   432  GLN432      0.0908
     81  CD         6.4990    3.9450   10.4070 C.2   432  GLN432      0.2608
     82  OE1        5.6880    3.6320   11.2940 O.2   432  GLN432     -0.2717
     83  NE2        6.3030    3.6120    9.1420 N.am  432  GLN432     -0.0878
     84  N         10.4310    5.2340   16.9500 N.3   435  SER435     -0.1217
     85  CA        11.8270    5.2050   16.5110 C.3   435  SER435      0.1889
     86  C         12.5300    6.5470   16.7190 C.2   435  SER435      0.2288
     87  O         13.6940    6.5260   17.1000 O.2   435  SER435     -0.2866
     88  CB        11.9410    4.7800   15.0490 C.3   435  SER435      0.2089
     89  OG        11.6410    3.4070   14.8630 O.3   435  SER435     -0.2183
@<TRIPOS>BOND
     1    38    39    1
     2    39    40    1
     3    39    42    1
     4    40    41    2
     5    50    51    1
     6    45    47   ar
     7    45    43   ar
     8    47    48   ar
     9    42    43    1
    10    43    44   ar
    11    48    49    1
    12    48    46   ar
    13    44    46   ar
    14    52    51    1
    15    52    53    2
    16    51    54    1
    17    54    55    1
    18    54    56    1
    19    55    57    1
    20    27    29   ar
    21    27    25   ar
    22    29    28   ar
    23    25    24   ar
    24    25    23   ar
    25    24    22   ar
    26    28    26   ar
    27    58    59    1
    28    22    21   ar
    29    23    26   ar
    30    23    21   ar
    31    61    60    2
    32    83    81   am
    33    60    59    1
    34    59    62    1
    35    21    20    1
    36    81    80    1
    37    81    82    2
    38    80    79    1
    39    62    63    1
    40    20    17    1
    41    65    63   ar
    42    65    67   ar
    43    63    64   ar
    44    67    68   ar
    45    64    66   ar
    46    68    66   ar
    47    68    69    1
    48    19    18    2
    49    79    76    1
    50    18    17    1
    51    18    30   am
    52    13    10    1
    53    13    14    1
    54    35    37    1
    55    35    34    1
    56    17    16    1
    57    30    31    1
    58    31    34    1
    59    31    32    1
    60     7     5    1
    61    10     9    1
    62    10    11    1
    63    33    32    2
    64    14    15    1
    65    12    11    2
    66    34    36    1
    67    76    75    1
    68    76    77    1
    69     9    15    1
    70     9     3   am
    71     4     3    2
    72    75    72   am
    73     3     2    1
    74     5     2    1
    75     5     6    1
    76    77    78    2
    77     8     6    1
    78    74    71    1
    79     2     1    1
    80    72    71    1
    81    72    73    2
    82    89    88    1
    83    70    71    1
    84    88    85    1
    85    85    86    1
    86    85    84    1
    87    86    87    2
