@<TRIPOS>MOLECULE
tmp/6exsA06.pdb
 103 101 0 0 0
SMALL
GASTEIGER

@<TRIPOS>ATOM
      1  N         24.4930  -15.8140   25.2960 N.3   100  ILE100     -0.1245
      2  CA        25.6830  -16.2330   24.5540 C.3   100  ILE100      0.1561
      3  C         26.7490  -15.1400   24.6440 C.2   100  ILE100      0.2260
      4  O         27.9030  -15.4470   24.9380 O.2   100  ILE100     -0.2867
      5  CB        25.3510  -16.7020   23.1050 C.3   100  ILE100      0.0252
      6  CG1       24.3740  -17.9080   23.1300 C.3   100  ILE100      0.0019
      7  CG2       26.6320  -17.0390   22.3070 C.3   100  ILE100      0.0019
      8  CD1       23.7500  -18.3350   21.7390 C.3   100  ILE100      0.0001
      9  N         30.5650  -15.3020   26.2190 N.3   104  CYS104     -0.1235
     10  CA        31.7520  -14.8430   25.4710 C.3   104  CYS104      0.1677
     11  C         32.7510  -14.1350   26.4020 C.2   104  CYS104      0.2270
     12  O         33.9490  -14.4300   26.3490 O.2   104  CYS104     -0.2867
     13  CB        31.3590  -13.9360   24.3040 C.3   104  CYS104      0.0956
     14  SG        30.5040  -14.7760   22.9490 S.3   104  CYS104     -0.0801
     15  N         38.9580  -15.3500   26.0030 N.3   109  PHE109     -0.1241
     16  CA        39.0830  -15.0870   24.5670 C.3   109  PHE109      0.1605
     17  C         39.5580  -13.6770   24.2290 C.2   109  PHE109      0.2264
     18  O         39.5080  -13.2950   23.0650 O.2   109  PHE109     -0.2867
     19  CB        37.7610  -15.4190   23.8360 C.3   109  PHE109      0.0534
     20  CG        37.3210  -16.8730   23.8160 C.ar  109  PHE109     -0.0203
     21  CD1       38.2550  -17.9050   23.8630 C.ar  109  PHE109     -0.0042
     22  CD2       35.9790  -17.2060   23.6950 C.ar  109  PHE109     -0.0042
     23  CE1       37.8450  -19.2390   23.8330 C.ar  109  PHE109     -0.0003
     24  CE2       35.5760  -18.5420   23.6360 C.ar  109  PHE109     -0.0003
     25  CZ        36.5080  -19.5480   23.7180 C.ar  109  PHE109     -0.0000
     26  N         40.3520  -10.0890   23.0660 N.3   111  LEU111     -0.1231
     27  CA        39.6500   -9.1890   22.1430 C.3   111  LEU111      0.1693
     28  C         38.5250   -9.8610   21.3480 C.2   111  LEU111      0.2592
     29  O         37.5060   -9.2150   21.0920 O.2   111  LEU111     -0.2718
     30  CB        40.6110   -8.4470   21.2000 C.3   111  LEU111      0.0284
     31  CG        41.5240   -7.3630   21.8120 C.3   111  LEU111      0.0019
     32  CD1       42.2730   -6.6030   20.7140 C.3   111  LEU111      0.0001
     33  CD2       40.7490   -6.3780   22.6790 C.3   111  LEU111      0.0001
     34  N         38.6810  -11.1540   20.9980 N.am  112  PHE112     -0.1976
     35  CA        37.6440  -11.9120   20.3020 C.3   112  PHE112      0.1639
     36  C         36.4070  -12.0170   21.2000 C.2   112  PHE112      0.2290
     37  O         35.3020  -11.7620   20.7240 O.2   112  PHE112     -0.2864
     38  CB        38.1300  -13.3140   19.8620 C.3   112  PHE112      0.0560
     39  CG        37.0260  -14.1580   19.2530 C.ar  112  PHE112     -0.0200
     40  CD1       36.7240  -14.0690   17.8970 C.ar  112  PHE112     -0.0042
     41  CD2       36.2620  -15.0160   20.0430 C.ar  112  PHE112     -0.0042
     42  CE1       35.6840  -14.8280   17.3420 C.ar  112  PHE112     -0.0003
     43  CE2       35.2220  -15.7710   19.4860 C.ar  112  PHE112     -0.0003
     44  CZ        34.9440  -15.6760   18.1390 C.ar  112  PHE112     -0.0000
     45  N         34.5580   -8.4630   21.3120 N.3   115  PHE115     -0.1227
     46  CA        33.7720   -8.1010   20.1210 C.3   115  PHE115      0.1736
     47  C         32.6530   -9.1260   19.7940 C.2   115  PHE115      0.2596
     48  O         31.5760   -8.6990   19.3760 O.2   115  PHE115     -0.2718
     49  CB        34.6660   -7.7810   18.9130 C.3   115  PHE115      0.0547
     50  CG        35.4650   -6.5080   19.1280 C.ar  115  PHE115     -0.0202
     51  CD1       34.8610   -5.2580   19.0220 C.ar  115  PHE115     -0.0042
     52  CD2       36.8140   -6.5610   19.4670 C.ar  115  PHE115     -0.0042
     53  CE1       35.5960   -4.0810   19.2500 C.ar  115  PHE115     -0.0003
     54  CE2       37.5480   -5.3850   19.6960 C.ar  115  PHE115     -0.0003
     55  CZ        36.9340   -4.1540   19.5880 C.ar  115  PHE115     -0.0000
     56  N         32.8650  -10.4380   20.0580 N.am  116  SER116     -0.1952
     57  CA        31.8280  -11.4570   19.8470 C.3   116  SER116      0.1924
     58  C         30.6750  -11.2820   20.8410 C.2   116  SER116      0.2314
     59  O         29.5120  -11.4580   20.4690 O.2   116  SER116     -0.2863
     60  CB        32.4070  -12.8610   19.9320 C.3   116  SER116      0.2116
     61  OG        32.9800  -13.0860   21.2070 O.3   116  SER116     -0.2180
     62  N         28.5660   -8.3010   19.6380 N.3   119  PHE119     -0.1227
     63  CA        27.7940   -8.7850   18.4970 C.3   119  PHE119      0.1736
     64  C         26.4900   -9.4930   18.9380 C.2   119  PHE119      0.2595
     65  O         25.4160   -9.1320   18.4530 O.2   119  PHE119     -0.2718
     66  CB        28.6740   -9.7050   17.6100 C.3   119  PHE119      0.0547
     67  CG        27.9530  -10.4850   16.5340 C.ar  119  PHE119     -0.0202
     68  CD1       27.5900   -9.8790   15.3380 C.ar  119  PHE119     -0.0042
     69  CD2       27.6350  -11.8260   16.7180 C.ar  119  PHE119     -0.0042
     70  CE1       26.9200  -10.6020   14.3440 C.ar  119  PHE119     -0.0003
     71  CE2       26.9580  -12.5460   15.7290 C.ar  119  PHE119     -0.0003
     72  CZ        26.6030  -11.9290   14.5510 C.ar  119  PHE119     -0.0000
     73  N         26.5930  -10.4800   19.8560 N.am  120  PHE120     -0.1976
     74  CA        25.4470  -11.2430   20.3600 C.3   120  PHE120      0.1639
     75  C         24.5030  -10.3900   21.2190 C.2   120  PHE120      0.2290
     76  O         23.2830  -10.5450   21.1200 O.2   120  PHE120     -0.2864
     77  CB        25.9150  -12.5050   21.1110 C.3   120  PHE120      0.0560
     78  CG        26.4120  -13.6310   20.2300 C.ar  120  PHE120     -0.0200
     79  CD1       25.5320  -14.3600   19.4390 C.ar  120  PHE120     -0.0042
     80  CD2       27.7510  -13.9920   20.2270 C.ar  120  PHE120     -0.0042
     81  CE1       25.9890  -15.4030   18.6300 C.ar  120  PHE120     -0.0003
     82  CE2       28.2110  -15.0310   19.4120 C.ar  120  PHE120     -0.0003
     83  CZ        27.3260  -15.7310   18.6210 C.ar  120  PHE120     -0.0000
     84  N         40.7160   -6.6900    7.9190 N.3   242  TYR242     -0.1241
     85  CA        41.3370   -7.4890    8.9830 C.3   242  TYR242      0.1605
     86  C         42.6920   -8.0700    8.5890 C.2   242  TYR242      0.2264
     87  O         43.6680   -7.8860    9.3190 O.2   242  TYR242     -0.2867
     88  CB        40.3810   -8.6040    9.4680 C.3   242  TYR242      0.0534
     89  CG        40.9030   -9.4270   10.6300 C.ar  242  TYR242     -0.0201
     90  CD1       40.8610   -8.9370   11.9340 C.ar  242  TYR242     -0.0009
     91  CD2       41.4080  -10.7090   10.4320 C.ar  242  TYR242     -0.0009
     92  CE1       41.3390   -9.6890   13.0050 C.ar  242  TYR242      0.0417
     93  CE2       41.8860  -11.4720   11.4970 C.ar  242  TYR242      0.0417
     94  CZ        41.8500  -10.9570   12.7830 C.ar  242  TYR242      0.1957
     95  OH        42.3210  -11.6990   13.8370 O.3   242  TYR242     -0.2866
     96  N         42.0540   -2.6030    9.7920 N.3   247  LEU247     -0.1245
     97  CA        40.8400   -2.7240   10.5980 C.3   247  LEU247      0.1561
     98  C         41.0340   -2.1620   12.0070 C.2   247  LEU247      0.2260
     99  O         41.6880   -2.7760   12.8560 O.2   247  LEU247     -0.2867
    100  CB        40.2920   -4.1730   10.6090 C.3   247  LEU247      0.0270
    101  CG        39.0230   -4.4570   11.4420 C.3   247  LEU247      0.0019
    102  CD1       37.7870   -3.8260   10.8290 C.3   247  LEU247      0.0001
    103  CD2       38.8020   -5.9370   11.6040 C.3   247  LEU247      0.0001
@<TRIPOS>BOND
     1    84    85    1
     2    86    85    1
     3    86    87    2
     4    85    88    1
     5    88    89    1
     6    96    97    1
     7    91    89   ar
     8    91    93   ar
     9    97   100    1
    10    97    98    1
    11   100   101    1
    12    89    90   ar
    13   102   101    1
    14   101   103    1
    15    93    94   ar
    16    90    92   ar
    17    98    99    2
    18    94    92   ar
    19    94    95    1
    20    70    72   ar
    21    70    68   ar
    22    72    71   ar
    23    68    67   ar
    24    71    69   ar
    25    67    69   ar
    26    67    66    1
    27    42    40   ar
    28    42    44   ar
    29    66    63    1
    30    40    39   ar
    31    44    43   ar
    32    65    64    2
    33    63    64    1
    34    63    62    1
    35    83    81   ar
    36    83    82   ar
    37    81    79   ar
    38    49    50    1
    39    49    46    1
    40    64    73   am
    41    51    50   ar
    42    51    53   ar
    43    50    52   ar
    44    53    55   ar
    45    39    38    1
    46    39    41   ar
    47    48    47    2
    48    82    80   ar
    49    79    78   ar
    50    52    54   ar
    51    43    41   ar
    52    55    54   ar
    53    47    56   am
    54    47    46    1
    55    57    60    1
    56    57    56    1
    57    57    58    1
    58    73    74    1
    59    38    35    1
    60    60    61    1
    61    46    45    1
    62    80    78   ar
    63    78    77    1
    64    35    34    1
    65    35    36    1
    66    74    77    1
    67    74    75    1
    68    59    58    2
    69    32    31    1
    70    37    36    2
    71    34    28   am
    72    29    28    2
    73    76    75    2
    74    30    31    1
    75    30    27    1
    76    28    27    1
    77     8     6    1
    78    31    33    1
    79    27    26    1
    80     7     5    1
    81    14    13    1
    82    18    17    2
    83     5     6    1
    84     5     2    1
    85    24    22   ar
    86    24    25   ar
    87    22    20   ar
    88    25    23   ar
    89    20    19    1
    90    20    21   ar
    91    23    21   ar
    92    19    16    1
    93    17    16    1
    94    13    10    1
    95     2     3    1
    96     2     1    1
    97    16    15    1
    98     3     4    2
    99    10     9    1
   100    10    11    1
   101    12    11    2
