@<TRIPOS>MOLECULE
tmp/6exsA02.pdb
 105 100 0 0 0
SMALL
GASTEIGER

@<TRIPOS>ATOM
      1  N         23.3700   -4.0470   32.8210 N.3    33  TYR33      -0.1241
      2  CA        24.0010   -2.9180   33.4890 C.3    33  TYR33       0.1605
      3  C         25.1890   -3.3240   34.3450 C.2    33  TYR33       0.2264
      4  O         26.1020   -2.5250   34.5020 O.2    33  TYR33      -0.2867
      5  CB        22.9820   -2.0610   34.2550 C.3    33  TYR33       0.0534
      6  CG        22.1560   -1.2130   33.3090 C.ar   33  TYR33      -0.0201
      7  CD1       22.7440   -0.2010   32.5550 C.ar   33  TYR33      -0.0009
      8  CD2       20.8060   -1.4750   33.1060 C.ar   33  TYR33      -0.0009
      9  CE1       22.0050    0.5410   31.6360 C.ar   33  TYR33       0.0417
     10  CE2       20.0540   -0.7380   32.1890 C.ar   33  TYR33       0.0417
     11  CZ        20.6650    0.2570   31.4450 C.ar   33  TYR33       0.1957
     12  OH        19.9390    1.0100   30.5620 O.3    33  TYR33      -0.2866
     13  N         19.4850   -2.0930   37.2090 N.3   162  ALA162     -0.1245
     14  CA        20.5270   -1.0840   37.0260 C.3   162  ALA162      0.1562
     15  C         21.1270   -0.5920   38.3550 C.2   162  ALA162      0.2260
     16  O         22.3000   -0.2330   38.3720 O.2   162  ALA162     -0.2867
     17  CB        19.9880    0.0910   36.2310 C.3   162  ALA162      0.0290
     18  N         25.1530   14.1690   27.1210 N.3   301  ILE301     -0.1231
     19  CA        25.7200   14.4360   28.4370 C.3   301  ILE301      0.1692
     20  C         25.3900   13.2980   29.4010 C.2   301  ILE301      0.2591
     21  O         26.3050   12.7660   30.0290 O.2   301  ILE301     -0.2718
     22  CB        25.3330   15.8410   28.9620 C.3   301  ILE301      0.0266
     23  CG1       26.0310   16.9320   28.0950 C.3   301  ILE301      0.0019
     24  CG2       25.7080   15.9880   30.4540 C.3   301  ILE301      0.0020
     25  CD1       25.6170   18.3700   28.3600 C.3   301  ILE301      0.0001
     26  N         24.1100   12.8810   29.4710 N.am  302  GLN302     -0.1979
     27  CA        23.6890   11.7750   30.3410 C.3   302  GLN302      0.1601
     28  C         24.4320   10.4420   30.0660 C.2   302  GLN302      0.2287
     29  O         24.9340    9.8330   31.0020 O.2   302  GLN302     -0.2864
     30  CB        22.1640   11.5810   30.2870 C.3   302  GLN302      0.0394
     31  CG        21.5850   10.7910   31.4570 C.3   302  GLN302      0.0908
     32  CD        21.7540    9.2940   31.3370 C.2   302  GLN302      0.2608
     33  OE1       21.8250    8.7190   30.2570 O.2   302  GLN302     -0.2717
     34  NE2       21.7940    8.6200   32.4580 N.am  302  GLN302     -0.0878
     35  N         28.1020    9.5980   31.4840 N.3   305  GLY305     -0.1210
     36  CA        28.3690    9.2160   32.8630 C.3   305  GLY305      0.1956
     37  C         28.8410    7.7780   32.9850 C.2   305  GLY305      0.2612
     38  O         29.2930    7.3650   34.0590 O.2   305  GLY305     -0.2717
     39  N         28.7060    6.9850   31.8900 N.am  306  SER306     -0.1952
     40  CA        29.1100    5.5760   31.8390 C.3   306  SER306      0.1924
     41  C         30.5350    5.3720   31.3370 C.2   306  SER306      0.2314
     42  O         31.0700    4.2850   31.5180 O.2   306  SER306     -0.2863
     43  CB        28.1410    4.7680   30.9790 C.3   306  SER306      0.2116
     44  OG        28.0570    5.2850   29.6600 O.3   306  SER306     -0.2180
     45  N         32.5190   10.6660   32.8740 N.3   309  LEU309     -0.1245
     46  CA        32.4280   11.2040   34.2360 C.3   309  LEU309      0.1561
     47  C         32.9910   10.2670   35.3220 C.2   309  LEU309      0.2260
     48  O         33.6130   10.7540   36.2720 O.2   309  LEU309     -0.2867
     49  CB        30.9840   11.6300   34.5570 C.3   309  LEU309      0.0270
     50  CG        30.7780   12.6500   35.6950 C.3   309  LEU309      0.0019
     51  CD1       31.6170   13.9250   35.4860 C.3   309  LEU309      0.0001
     52  CD2       29.2920   12.9870   35.8550 C.3   309  LEU309      0.0001
     53  N         29.1700    4.5180   40.6150 N.3   335  PHE335     -0.1227
     54  CA        28.7770    5.7430   39.9050 C.3   335  PHE335      0.1736
     55  C         27.5680    5.4710   38.9920 C.2   335  PHE335      0.2595
     56  O         26.8040    6.3950   38.7350 O.2   335  PHE335     -0.2718
     57  CB        29.9220    6.2460   39.0160 C.3   335  PHE335      0.0547
     58  CG        31.0080    7.0380   39.6950 C.ar  335  PHE335     -0.0202
     59  CD1       30.6980    8.1390   40.4900 C.ar  335  PHE335     -0.0042
     60  CD2       32.3470    6.7470   39.4650 C.ar  335  PHE335     -0.0042
     61  CE1       31.7080    8.8950   41.0880 C.ar  335  PHE335     -0.0003
     62  CE2       33.3570    7.5130   40.0550 C.ar  335  PHE335     -0.0003
     63  CZ        33.0300    8.5710   40.8710 C.ar  335  PHE335     -0.0000
     64  N         27.4150    4.2070   38.4970 N.am  336  GLN336     -0.1979
     65  CA        26.3280    3.7320   37.6120 C.3   336  GLN336      0.1601
     66  C         24.9820    3.5240   38.3290 C.2   336  GLN336      0.2287
     67  O         23.9450    3.4240   37.6610 O.2   336  GLN336     -0.2864
     68  CB        26.7230    2.4140   36.9060 C.3   336  GLN336      0.0394
     69  CG        27.9950    2.4760   36.0910 C.3   336  GLN336      0.0908
     70  CD        27.9060    3.5620   35.0690 C.2   336  GLN336      0.2608
     71  OE1       28.5040    4.6300   35.2240 O.2   336  GLN336     -0.2717
     72  NE2       27.1010    3.3300   34.0360 N.am  336  GLN336     -0.0878
     73  N         22.0700    7.3760   39.1290 N.3   339  ASN339     -0.1226
     74  CA        20.9290    7.6870   38.2710 C.3   339  ASN339      0.1770
     75  C         19.7130    6.7370   38.5080 C.2   339  ASN339      0.2439
     76  O         18.6340    7.2670   38.7580 O.2   339  ASN339     -0.2733
     77  CB        21.3800    7.7270   36.8110 C.3   339  ASN339      0.1168
     78  CG        20.3450    8.0720   35.8020 C.2   339  ASN339      0.2627
     79  OD1       19.5490    7.2250   35.4290 O.2   339  ASN339     -0.2716
     80  ND2       20.4180    9.2830   35.2530 N.am  339  ASN339     -0.0877
     81  N         19.8540    5.3760   38.5030 N.am  340  PRO340     -0.2729
     82  CA        18.6870    4.5180   38.8010 C.3   340  PRO340      0.1401
     83  C         18.1220    4.6850   40.2170 C.2   340  PRO340      0.2269
     84  O         16.9080    4.5600   40.3840 O.2   340  PRO340     -0.2865
     85  CB        19.2030    3.0960   38.5600 C.3   340  PRO340      0.0296
     86  CG        20.5120    3.2460   37.8650 C.3   340  PRO340      0.0237
     87  CD        21.0590    4.5620   38.2340 C.3   340  PRO340      0.0939
     88  N         26.2580   13.8770   38.7340 N.3   403  TYR403     -0.1241
     89  CA        25.3110   12.7980   38.4310 C.3   403  TYR403      0.1605
     90  C         23.8900   13.1630   38.8900 C.2   403  TYR403      0.2264
     91  O         22.9360   12.9420   38.1470 O.2   403  TYR403     -0.2867
     92  CB        25.7490   11.4880   39.1110 C.3   403  TYR403      0.0534
     93  CG        26.8280   10.7380   38.3610 C.ar  403  TYR403     -0.0201
     94  CD1       26.5310   10.0260   37.1990 C.ar  403  TYR403     -0.0009
     95  CD2       28.1400   10.7150   38.8250 C.ar  403  TYR403     -0.0009
     96  CE1       27.5180    9.3230   36.5110 C.ar  403  TYR403      0.0417
     97  CE2       29.1420   10.0490   38.1240 C.ar  403  TYR403      0.0417
     98  CZ        28.8240    9.3390   36.9750 C.ar  403  TYR403      0.1957
     99  OH        29.8040    8.6630   36.2890 O.3   403  TYR403     -0.2866
    100  N         22.1870   15.8800   36.6760 N.3   406  CYS406     -0.1235
    101  CA        21.7960   15.2540   35.4140 C.3   406  CYS406      0.1677
    102  C         20.5270   14.3910   35.5180 C.2   406  CYS406      0.2270
    103  O         19.6690   14.4600   34.6320 O.2   406  CYS406     -0.2867
    104  CB        22.9530   14.4710   34.8110 C.3   406  CYS406      0.0956
    105  SG        22.8070   14.2330   33.0290 S.3   406  CYS406     -0.0801
@<TRIPOS>BOND
     1    18    19    1
     2    23    25    1
     3    23    22    1
     4    19    22    1
     5    19    20    1
     6    22    24    1
     7    20    26   am
     8    20    21    2
     9    26    27    1
    10    44    43    1
    11    28    27    1
    12    28    29    2
    13    33    32    2
    14    30    27    1
    15    30    31    1
    16    12    11    1
    17    43    40    1
    18    41    42    2
    19    41    40    1
    20    32    31    1
    21    32    34   am
    22    11     9   ar
    23    11    10   ar
    24    35    36    1
    25     9     7   ar
    26    40    39    1
    27    39    37   am
    28    10     8   ar
    29     7     6   ar
    30     1     2    1
    31    36    37    1
    32    45    46    1
    33    37    38    2
    34   105   104    1
    35     8     6   ar
    36     6     5    1
    37     2     5    1
    38     2     3    1
    39    72    70   am
    40    46    49    1
    41    46    47    1
    42     3     4    2
    43    49    50    1
    44   103   102    2
    45   104   101    1
    46    70    71    2
    47    70    69    1
    48    80    78   am
    49    47    48    2
    50   101   102    1
    51   101   100    1
    52    79    78    2
    53    51    50    1
    54    50    52    1
    55    78    77    1
    56    69    68    1
    57    17    14    1
    58    99    98    1
    59    96    98   ar
    60    96    94   ar
    61    77    74    1
    62    68    65    1
    63    98    97   ar
    64    14    13    1
    65    14    15    1
    66    94    93   ar
    67    65    66    1
    68    65    64    1
    69    67    66    2
    70    86    87    1
    71    86    85    1
    72    97    95   ar
    73    91    90    2
    74    87    81    1
    75    74    75    1
    76    74    73    1
    77    15    16    2
    78    93    95   ar
    79    93    92    1
    80    89    88    1
    81    89    90    1
    82    89    92    1
    83    64    55   am
    84    81    75   am
    85    81    82    1
    86    75    76    2
    87    85    82    1
    88    56    55    2
    89    82    83    1
    90    55    54    1
    91    57    58    1
    92    57    54    1
    93    60    58   ar
    94    60    62   ar
    95    58    59   ar
    96    54    53    1
    97    62    63   ar
    98    83    84    2
    99    59    61   ar
   100    63    61   ar
