@<TRIPOS>MOLECULE
tmp/6exsA07.pdb
 93 88 0 0 0
SMALL
GASTEIGER

@<TRIPOS>ATOM
      1  N         19.6260   21.4680   32.7400 N.3   374  LEU374     -0.1245
      2  CA        20.1590   20.7580   33.9050 C.3   374  LEU374      0.1561
      3  C         21.3120   19.8100   33.5240 C.2   374  LEU374      0.2260
      4  O         22.3200   19.7670   34.2410 O.2   374  LEU374     -0.2867
      5  CB        19.0550   20.0490   34.7120 C.3   374  LEU374      0.0270
      6  CG        18.2060   20.9390   35.6300 C.3   374  LEU374      0.0019
      7  CD1       16.9240   20.2490   36.0180 C.3   374  LEU374      0.0001
      8  CD2       18.9560   21.3240   36.8840 C.3   374  LEU374      0.0001
      9  N         24.1780   22.1730   32.9280 N.3   377  LEU377     -0.1245
     10  CA        24.5940   22.7260   34.2290 C.3   377  LEU377      0.1561
     11  C         25.4160   21.7240   35.0530 C.2   377  LEU377      0.2260
     12  O         26.2430   22.1430   35.8610 O.2   377  LEU377     -0.2867
     13  CB        23.3950   23.2380   35.0400 C.3   377  LEU377      0.0270
     14  CG        22.8130   24.5710   34.5770 C.3   377  LEU377      0.0019
     15  CD1       21.3420   24.6710   34.9260 C.3   377  LEU377      0.0001
     16  CD2       23.6180   25.7680   35.1150 C.3   377  LEU377      0.0001
     17  N         28.9020   22.0790   33.4480 N.3   380  ILE380     -0.1231
     18  CA        29.4920   23.3680   33.8580 C.3   380  ILE380      0.1692
     19  C         29.9760   23.2250   35.3190 C.2   380  ILE380      0.2591
     20  O         31.0560   23.7110   35.6490 O.2   380  ILE380     -0.2718
     21  CB        28.4940   24.5590   33.6710 C.3   380  ILE380      0.0266
     22  CG1       28.1810   24.8460   32.1670 C.3   380  ILE380      0.0019
     23  CG2       28.9280   25.8310   34.4090 C.3   380  ILE380      0.0020
     24  CD1       29.3570   25.2290   31.2320 C.3   380  ILE380      0.0001
     25  N         29.1960   22.5210   36.1700 N.am  381  LEU381     -0.1980
     26  CA        29.5360   22.2590   37.5740 C.3   381  LEU381      0.1596
     27  C         30.8750   21.5150   37.6780 C.2   381  LEU381      0.2287
     28  O         31.7990   22.0660   38.2730 O.2   381  LEU381     -0.2864
     29  CB        28.3880   21.4940   38.2960 C.3   381  LEU381      0.0297
     30  CG        28.5100   21.0500   39.7900 C.3   381  LEU381      0.0022
     31  CD1       29.2660   19.7260   39.9680 C.3   381  LEU381      0.0001
     32  CD2       28.9960   22.1530   40.7110 C.3   381  LEU381      0.0001
     33  N         33.8630   23.4650   36.2420 N.3   384  LEU384     -0.1231
     34  CA        34.3030   24.5280   37.1530 C.3   384  LEU384      0.1693
     35  C         35.0540   23.9900   38.3750 C.2   384  LEU384      0.2591
     36  O         35.9430   24.6730   38.8830 O.2   384  LEU384     -0.2718
     37  CB        33.1490   25.4560   37.5680 C.3   384  LEU384      0.0284
     38  CG        32.6080   26.4150   36.4880 C.3   384  LEU384      0.0019
     39  CD1       31.4110   27.1800   37.0050 C.3   384  LEU384      0.0001
     40  CD2       33.6780   27.4070   36.0020 C.3   384  LEU384      0.0001
     41  N         34.7230   22.7580   38.8220 N.am  385  VAL385     -0.1980
     42  CA        35.3960   22.0770   39.9370 C.3   385  VAL385      0.1595
     43  C         36.8560   21.7640   39.5300 C.2   385  VAL385      0.2287
     44  O         37.7770   22.0900   40.2850 O.2   385  VAL385     -0.2864
     45  CB        34.6080   20.8290   40.4290 C.3   385  VAL385      0.0276
     46  CG1       35.4330   19.9720   41.3810 C.3   385  VAL385      0.0022
     47  CG2       33.2910   21.2300   41.0870 C.3   385  VAL385      0.0022
     48  N         38.7920   24.9700   39.2230 N.3   388  GLY388     -0.1210
     49  CA        39.0420   25.5070   40.5550 C.3   388  GLY388      0.1956
     50  C         40.1880   24.8330   41.2840 C.2   388  GLY388      0.2611
     51  O         41.0200   25.5100   41.8900 O.2   388  GLY388     -0.2717
     52  N         40.2450   23.4980   41.2170 N.am  389  TYR389     -0.1976
     53  CA        41.2630   22.7020   41.8940 C.3   389  TYR389      0.1639
     54  C         42.5680   22.5490   41.1180 C.2   389  TYR389      0.2290
     55  O         43.6250   22.4890   41.7430 O.2   389  TYR389     -0.2864
     56  CB        40.7040   21.3220   42.2690 C.3   389  TYR389      0.0560
     57  CG        39.7570   21.3430   43.4480 C.ar  389  TYR389     -0.0198
     58  CD1       40.2370   21.2970   44.7570 C.ar  389  TYR389     -0.0009
     59  CD2       38.3780   21.3910   43.2590 C.ar  389  TYR389     -0.0009
     60  CE1       39.3660   21.3090   45.8480 C.ar  389  TYR389      0.0417
     61  CE2       37.5010   21.4080   44.3410 C.ar  389  TYR389      0.0417
     62  CZ        38.0000   21.3680   45.6330 C.ar  389  TYR389      0.1957
     63  OH        37.1410   21.3770   46.6970 O.3   389  TYR389     -0.2866
     64  N         31.6590   16.0110   44.6010 N.3   398  TRP398     -0.1241
     65  CA        31.5240   16.8720   43.4250 C.3   398  TRP398      0.1605
     66  C         31.0660   16.0630   42.2130 C.2   398  TRP398      0.2264
     67  O         30.0970   16.4540   41.5650 O.2   398  TRP398     -0.2867
     68  CB        32.8460   17.6050   43.1270 C.3   398  TRP398      0.0550
     69  CG        33.1880   18.6910   44.1090 C.ar  398  TRP398      0.0003
     70  CD1       34.2860   18.7480   44.9130 C.ar  398  TRP398      0.0946
     71  CD2       32.4190   19.8750   44.3920 C.ar  398  TRP398      0.0152
     72  NE1       34.2580   19.8970   45.6740 N.ar  398  TRP398     -0.2442
     73  CE2       33.1290   20.6120   45.3670 C.ar  398  TRP398      0.0810
     74  CE3       31.2030   20.3940   43.9030 C.ar  398  TRP398      0.0012
     75  CZ2       32.6670   21.8380   45.8630 C.ar  398  TRP398      0.0191
     76  CZ3       30.7510   21.6130   44.3900 C.ar  398  TRP398      0.0001
     77  CH2       31.4690   22.3110   45.3740 C.ar  398  TRP398      0.0015
     78  N         22.5620   16.2410   39.4340 N.3   405  ILE405     -0.1245
     79  CA        21.9770   17.3320   38.6380 C.3   405  ILE405      0.1561
     80  C         21.4330   16.7880   37.3080 C.2   405  ILE405      0.2260
     81  O         20.3200   17.1340   36.9050 O.2   405  ILE405     -0.2867
     82  CB        22.9340   18.5480   38.4740 C.3   405  ILE405      0.0252
     83  CG1       23.2950   19.1600   39.8550 C.3   405  ILE405      0.0019
     84  CG2       22.3300   19.6230   37.5300 C.3   405  ILE405      0.0019
     85  CD1       24.6200   19.9570   39.8760 C.3   405  ILE405      0.0001
     86  N         18.1530   14.6910   37.8590 N.3   408  ILE408     -0.1245
     87  CA        17.0340   15.6070   38.1470 C.3   408  ILE408      0.1561
     88  C         16.4660   16.1330   36.8050 C.2   408  ILE408      0.2260
     89  O         15.2460   16.2750   36.6680 O.2   408  ILE408     -0.2867
     90  CB        17.3940   16.7370   39.1660 C.3   408  ILE408      0.0252
     91  CG1       17.6050   16.1580   40.5800 C.3   408  ILE408      0.0019
     92  CG2       16.3100   17.8370   39.1930 C.3   408  ILE408      0.0019
     93  CD1       18.3760   17.0650   41.5090 C.3   408  ILE408      0.0001
@<TRIPOS>BOND
     1    24    22    1
     2    22    21    1
     3     1     2    1
     4     9    10    1
     5    17    18    1
     6     3     2    1
     7     3     4    2
     8    21    18    1
     9    21    23    1
    10    18    19    1
    11     2     5    1
    12    10    13    1
    13    10    11    1
    14    14    15    1
    15    14    13    1
    16    14    16    1
    17     5     6    1
    18    11    12    2
    19    19    20    2
    20    19    25   am
    21     6     7    1
    22     6     8    1
    23    40    38    1
    24    25    26    1
    25    33    34    1
    26    38    39    1
    27    38    37    1
    28    89    88    2
    29    88    87    1
    30    81    80    2
    31    34    37    1
    32    34    35    1
    33    80    79    1
    34    84    82    1
    35    26    27    1
    36    26    29    1
    37    27    28    2
    38    86    87    1
    39    87    90    1
    40    29    30    1
    41    35    41   am
    42    35    36    2
    43    82    79    1
    44    82    83    1
    45    79    78    1
    46    41    42    1
    47    90    92    1
    48    90    91    1
    49    48    49    1
    50    43    42    1
    51    43    44    2
    52    30    31    1
    53    30    32    1
    54    83    85    1
    55    42    45    1
    56    45    47    1
    57    45    46    1
    58    49    50    1
    59    91    93    1
    60    54    55    2
    61    54    53    1
    62    52    50   am
    63    52    53    1
    64    50    51    2
    65    67    66    2
    66    53    56    1
    67    66    65    1
    68    56    57    1
    69    68    65    1
    70    68    69    1
    71    59    57   ar
    72    59    61   ar
    73    65    64    1
    74    57    58   ar
    75    74    76   ar
    76    74    71   ar
    77    69    71   ar
    78    69    70   ar
    79    61    62   ar
    80    76    77   ar
    81    71    73   ar
    82    58    60   ar
    83    70    72   ar
    84    73    72   ar
    85    73    75   ar
    86    77    75   ar
    87    62    60   ar
    88    62    63    1
