@<TRIPOS>MOLECULE
tmp/6exsA03.pdb
 161 154 0 0 0
SMALL
GASTEIGER

@<TRIPOS>ATOM
      1  N         20.3320   -0.5600   39.4490 N.3   163  LEU163     -0.1245
      2  CA        20.7740   -0.1070   40.7740 C.3   163  LEU163      0.1561
      3  C         21.5750   -1.1560   41.5390 C.2   163  LEU163      0.2260
      4  O         22.6350   -0.8230   42.0570 O.2   163  LEU163     -0.2867
      5  CB        19.5830    0.4170   41.6280 C.3   163  LEU163      0.0270
      6  CG        19.8010    0.5880   43.1440 C.3   163  LEU163      0.0019
      7  CD1       20.8090    1.7210   43.4680 C.3   163  LEU163      0.0001
      8  CD2       18.4950    0.8060   43.8660 C.3   163  LEU163      0.0001
      9  N         26.4990   -2.5020   42.5000 N.3   167  ILE167     -0.1245
     10  CA        26.7540   -2.7410   43.9270 C.3   167  ILE167      0.1561
     11  C         27.3000   -4.1670   44.1270 C.2   167  ILE167      0.2260
     12  O         28.2840   -4.3330   44.8550 O.2   167  ILE167     -0.2867
     13  CB        25.5070   -2.4210   44.8120 C.3   167  ILE167      0.0252
     14  CG1       25.1290   -0.9180   44.7310 C.3   167  ILE167      0.0019
     15  CG2       25.6990   -2.8540   46.2750 C.3   167  ILE167      0.0019
     16  CD1       23.7210   -0.5360   45.3110 C.3   167  ILE167      0.0001
     17  N         33.5250    9.0890   49.6330 N.3   321  LEU321     -0.1245
     18  CA        32.2350    9.7180   49.9750 C.3   321  LEU321      0.1561
     19  C         32.3600   10.2870   51.3980 C.2   321  LEU321      0.2260
     20  O         32.9300    9.6220   52.2700 O.2   321  LEU321     -0.2867
     21  CB        31.1090    8.6820   49.8830 C.3   321  LEU321      0.0270
     22  CG        29.6700    9.1280   50.1260 C.3   321  LEU321      0.0019
     23  CD1       29.2100   10.1810   49.1090 C.3   321  LEU321      0.0001
     24  CD2       28.7340    7.9390   50.0370 C.3   321  LEU321      0.0001
     25  N         29.8610   12.6270   53.9500 N.3   323  LEU323     -0.1245
     26  CA        28.6380   13.3550   54.2620 C.3   323  LEU323      0.1561
     27  C         28.3750   13.4360   55.7580 C.2   323  LEU323      0.2260
     28  O         28.0500   12.4240   56.3870 O.2   323  LEU323     -0.2867
     29  CB        27.4120   12.7240   53.5600 C.3   323  LEU323      0.0270
     30  CG        27.4940   12.3900   52.0550 C.3   323  LEU323      0.0019
     31  CD1       26.3970   11.4180   51.6620 C.3   323  LEU323      0.0001
     32  CD2       27.4630   13.6450   51.1770 C.3   323  LEU323      0.0001
     33  N         29.9790   10.9270   58.0350 N.3   326  TRP326     -0.1241
     34  CA        29.9580    9.5960   57.4250 C.3   326  TRP326      0.1605
     35  C         30.9180    9.5730   56.2420 C.2   326  TRP326      0.2264
     36  O         30.6510   10.1950   55.2160 O.2   326  TRP326     -0.2867
     37  CB        28.5340    9.1830   56.9970 C.3   326  TRP326      0.0550
     38  CG        28.4780    7.8700   56.2610 C.ar  326  TRP326      0.0003
     39  CD1       29.0560    6.6900   56.6370 C.ar  326  TRP326      0.0946
     40  CD2       27.8390    7.6210   55.0020 C.ar  326  TRP326      0.0152
     41  NE1       28.8100    5.7200   55.6920 N.ar  326  TRP326     -0.2442
     42  CE2       28.0520    6.2590   54.6850 C.ar  326  TRP326      0.0810
     43  CE3       27.0710    8.4080   54.1240 C.ar  326  TRP326      0.0012
     44  CZ2       27.5310    5.6680   53.5280 C.ar  326  TRP326      0.0191
     45  CZ3       26.5470    7.8190   52.9820 C.ar  326  TRP326      0.0001
     46  CH2       26.7810    6.4650   52.6930 C.ar  326  TRP326      0.0015
     47  N         34.3250    4.9890   47.9090 N.3   330  PHE330     -0.1241
     48  CA        33.3220    4.8480   46.8620 C.3   330  PHE330      0.1605
     49  C         33.9180    4.0450   45.6950 C.2   330  PHE330      0.2264
     50  O         34.9020    4.4710   45.0920 O.2   330  PHE330     -0.2867
     51  CB        32.8440    6.2370   46.3930 C.3   330  PHE330      0.0534
     52  CG        31.5800    6.2310   45.5600 C.ar  330  PHE330     -0.0203
     53  CD1       30.3290    6.2670   46.1660 C.ar  330  PHE330     -0.0042
     54  CD2       31.6430    6.2210   44.1720 C.ar  330  PHE330     -0.0042
     55  CE1       29.1620    6.2620   45.3960 C.ar  330  PHE330     -0.0003
     56  CE2       30.4790    6.2220   43.4040 C.ar  330  PHE330     -0.0003
     57  CZ        29.2450    6.2470   44.0200 C.ar  330  PHE330     -0.0000
     58  N         29.9960    1.9540   41.3210 N.3   334  LEU334     -0.1245
     59  CA        28.8260    2.5080   42.0180 C.3   334  LEU334      0.1561
     60  C         28.3460    3.8450   41.4440 C.2   334  LEU334      0.2260
     61  O         27.2120    4.2340   41.7060 O.2   334  LEU334     -0.2867
     62  CB        29.0550    2.6000   43.5300 C.3   334  LEU334      0.0270
     63  CG        28.5820    1.3890   44.3170 C.3   334  LEU334      0.0019
     64  CD1       29.6510    0.3410   44.4050 C.3   334  LEU334      0.0001
     65  CD2       28.1610    1.7900   45.7020 C.3   334  LEU334      0.0001
     66  N         25.0250    3.3970   39.6670 N.3   337  SER337     -0.1202
     67  CA        23.8870    3.1760   40.5510 C.3   337  SER337      0.2020
     68  C         23.2070    4.4910   40.9650 C.2   337  SER337      0.2618
     69  O         22.0650    4.4430   41.4420 O.2   337  SER337     -0.2717
     70  CB        24.3300    2.4050   41.8000 C.3   337  SER337      0.2103
     71  OG        24.6660    1.0540   41.5170 O.3   337  SER337     -0.2182
     72  N         23.8910    5.6570   40.7740 N.am  338  ILE338     -0.1979
     73  CA        23.3730    6.9740   41.1800 C.3   338  ILE338      0.1595
     74  C         22.0480    7.3280   40.4630 C.2   338  ILE338      0.2287
     75  O         21.0420    7.5700   41.1300 O.2   338  ILE338     -0.2864
     76  CB        24.4260    8.1200   41.0810 C.3   338  ILE338      0.0276
     77  CG1       25.6800    7.8080   41.9460 C.3   338  ILE338      0.0022
     78  CG2       23.7910    9.4720   41.4960 C.3   338  ILE338      0.0022
     79  CD1       26.8700    8.6860   41.7130 C.3   338  ILE338      0.0001
     80  N         18.9740    4.9820   41.2320 N.3   341  LEU341     -0.1231
     81  CA        18.5040    5.2160   42.6060 C.3   341  LEU341      0.1693
     82  C         17.6030    6.4590   42.6750 C.2   341  LEU341      0.2592
     83  O         16.5160    6.3900   43.2600 O.2   341  LEU341     -0.2718
     84  CB        19.6700    5.3510   43.6030 C.3   341  LEU341      0.0284
     85  CG        19.2920    5.7000   45.0600 C.3   341  LEU341      0.0019
     86  CD1       18.5630    4.5500   45.7380 C.3   341  LEU341      0.0001
     87  CD2       20.5080    6.1010   45.8640 C.3   341  LEU341      0.0001
     88  N         18.0410    7.5790   42.0660 N.am  342  PHE342     -0.1976
     89  CA        17.2740    8.8320   42.0500 C.3   342  PHE342      0.1639
     90  C         15.9880    8.7280   41.2370 C.2   342  PHE342      0.2290
     91  O         14.9950    9.3510   41.6100 O.2   342  PHE342     -0.2864
     92  CB        18.1420   10.0120   41.6070 C.3   342  PHE342      0.0560
     93  CG        18.9440   10.5830   42.7530 C.ar  342  PHE342     -0.0200
     94  CD1       20.0500    9.9030   43.2590 C.ar  342  PHE342     -0.0042
     95  CD2       18.5770   11.7830   43.3490 C.ar  342  PHE342     -0.0042
     96  CE1       20.7650   10.4080   44.3470 C.ar  342  PHE342     -0.0003
     97  CE2       19.3040   12.2970   44.4310 C.ar  342  PHE342     -0.0003
     98  CZ        20.3900   11.6050   44.9240 C.ar  342  PHE342     -0.0000
     99  N         40.2450   23.4980   41.2170 N.3   389  TYR389     -0.1241
    100  CA        41.2630   22.7020   41.8940 C.3   389  TYR389      0.1605
    101  C         42.5680   22.5490   41.1180 C.2   389  TYR389      0.2264
    102  O         43.6250   22.4890   41.7430 O.2   389  TYR389     -0.2867
    103  CB        40.7040   21.3220   42.2690 C.3   389  TYR389      0.0534
    104  CG        39.7570   21.3430   43.4480 C.ar  389  TYR389     -0.0201
    105  CD1       40.2370   21.2970   44.7570 C.ar  389  TYR389     -0.0009
    106  CD2       38.3780   21.3910   43.2590 C.ar  389  TYR389     -0.0009
    107  CE1       39.3660   21.3090   45.8480 C.ar  389  TYR389      0.0417
    108  CE2       37.5010   21.4080   44.3410 C.ar  389  TYR389      0.0417
    109  CZ        38.0000   21.3680   45.6330 C.ar  389  TYR389      0.1957
    110  OH        37.1410   21.3770   46.6970 O.3   389  TYR389     -0.2866
    111  N         37.0540   16.2070   46.2720 N.3   395  SER395     -0.1217
    112  CA        36.1470   15.2140   46.8160 C.3   395  SER395      0.1889
    113  C         35.2460   14.6200   45.7120 C.2   395  SER395      0.2288
    114  O         34.8050   15.3470   44.8030 O.2   395  SER395     -0.2866
    115  CB        35.3170   15.8340   47.9390 C.3   395  SER395      0.2089
    116  OG        34.3210   14.9550   48.4350 O.3   395  SER395     -0.2183
    117  N         32.3210   13.8360   46.1360 N.3   397  ASN397     -0.1225
    118  CA        31.0250   14.4760   46.4070 C.3   397  ASN397      0.1785
    119  C         30.6400   15.3940   45.2440 C.2   397  ASN397      0.2597
    120  O         29.4550   15.5090   44.9170 O.2   397  ASN397     -0.2718
    121  CB        31.0680   15.2800   47.7200 C.3   397  ASN397      0.1169
    122  CG        31.2120   14.4990   49.0150 C.2   397  ASN397      0.2627
    123  OD1       31.2130   13.2630   49.0690 O.2   397  ASN397     -0.2716
    124  ND2       31.3240   15.2200   50.1090 N.am  397  ASN397     -0.0877
    125  N         31.6590   16.0110   44.6010 N.am  398  TRP398     -0.1976
    126  CA        31.5240   16.8720   43.4250 C.3   398  TRP398      0.1640
    127  C         31.0660   16.0630   42.2130 C.2   398  TRP398      0.2290
    128  O         30.0970   16.4540   41.5650 O.2   398  TRP398     -0.2864
    129  CB        32.8460   17.6050   43.1270 C.3   398  TRP398      0.0576
    130  CG        33.1880   18.6910   44.1090 C.ar  398  TRP398      0.0006
    131  CD1       34.2860   18.7480   44.9130 C.ar  398  TRP398      0.0946
    132  CD2       32.4190   19.8750   44.3920 C.ar  398  TRP398      0.0152
    133  NE1       34.2580   19.8970   45.6740 N.ar  398  TRP398     -0.2442
    134  CE2       33.1290   20.6120   45.3670 C.ar  398  TRP398      0.0810
    135  CE3       31.2030   20.3940   43.9030 C.ar  398  TRP398      0.0012
    136  CZ2       32.6670   21.8380   45.8630 C.ar  398  TRP398      0.0191
    137  CZ3       30.7510   21.6130   44.3900 C.ar  398  TRP398      0.0001
    138  CH2       31.4690   22.3110   45.3740 C.ar  398  TRP398      0.0015
    139  N         29.6320   13.1090   42.2670 N.3   400  ILE400     -0.1231
    140  CA        28.3070   12.6200   42.6470 C.3   400  ILE400      0.1692
    141  C         27.2410   13.7190   42.4190 C.2   400  ILE400      0.2591
    142  O         26.1730   13.4180   41.8870 O.2   400  ILE400     -0.2718
    143  CB        28.3100   12.0110   44.0880 C.3   400  ILE400      0.0266
    144  CG1       29.1770   10.7140   44.1200 C.3   400  ILE400      0.0019
    145  CG2       26.8660   11.7340   44.5830 C.3   400  ILE400      0.0020
    146  CD1       29.6030   10.2270   45.4810 C.3   400  ILE400      0.0001
    147  N         27.5580   14.9880   42.7670 N.am  401  LEU401     -0.1980
    148  CA        26.6790   16.1470   42.5500 C.3   401  LEU401      0.1596
    149  C         26.3990   16.3400   41.0500 C.2   401  LEU401      0.2287
    150  O         25.2740   16.6760   40.6860 O.2   401  LEU401     -0.2864
    151  CB        27.2600   17.4310   43.1940 C.3   401  LEU401      0.0297
    152  CG        26.4810   18.7630   43.0460 C.3   401  LEU401      0.0022
    153  CD1       24.9780   18.6310   43.4150 C.3   401  LEU401      0.0001
    154  CD2       27.1410   19.8620   43.8430 C.3   401  LEU401      0.0001
    155  N         23.7650   13.7320   40.1070 N.3   404  VAL404     -0.1245
    156  CA        22.4910   14.1220   40.7210 C.3   404  VAL404      0.1561
    157  C         21.8040   15.2330   39.9170 C.2   404  VAL404      0.2260
    158  O         20.5920   15.1570   39.7160 O.2   404  VAL404     -0.2867
    159  CB        22.6300   14.4640   42.2360 C.3   404  VAL404      0.0252
    160  CG1       21.3130   14.9710   42.8180 C.3   404  VAL404      0.0019
    161  CG2       23.1490   13.2660   43.0390 C.3   404  VAL404      0.0019
@<TRIPOS>BOND
     1     1     2    1
     2    66    67    1
     3   158   157    2
     4   157   156    1
     5   155   156    1
     6    74    75    2
     7    74    73    1
     8    67    68    1
     9    67    70    1
    10   150   149    2
    11   156   159    1
    12    72    68   am
    13    72    73    1
    14     2     3    1
    15     2     5    1
    16    68    69    2
    17   149   148    1
    18    76    73    1
    19    76    78    1
    20    76    77    1
    21   101   102    2
    22   101   100    1
    23    99   100    1
    24    80    81    1
    25    90    91    2
    26    90    89    1
    27    58    59    1
    28    60    61    2
    29    60    59    1
    30    71    70    1
    31     3     4    2
    32   128   127    2
    33    92    89    1
    34    92    93    1
    35     5     6    1
    36    79    77    1
    37   142   141    2
    38   100   103    1
    39    59    62    1
    40    89    88    1
    41    88    82   am
    42   127   126    1
    43   159   160    1
    44   159   161    1
    45   139   140    1
    46   103   104    1
    47   141   140    1
    48   141   147   am
    49     9    10    1
    50   148   147    1
    51   148   151    1
    52    81    82    1
    53    81    84    1
    54   140   143    1
    55    82    83    2
    56    93    94   ar
    57    93    95   ar
    58   152   151    1
    59   152   153    1
    60   152   154    1
    61   129   126    1
    62   129   130    1
    63     6     7    1
    64     6     8    1
    65   106   104   ar
    66   106   108   ar
    67    94    96   ar
    68    95    97   ar
    69    56    57   ar
    70    56    54   ar
    71   126   125    1
    72   104   105   ar
    73    62    63    1
    74    84    85    1
    75   135   137   ar
    76   135   132   ar
    77    10    11    1
    78    10    13    1
    79    57    55   ar
    80   143   144    1
    81   143   145    1
    82   130   132   ar
    83   130   131   ar
    84   144   146    1
    85    11    12    2
    86    54    52   ar
    87    63    64    1
    88    63    65    1
    89   108   109   ar
    90    96    98   ar
    91   137   138   ar
    92   132   134   ar
    93    97    98   ar
    94   125   119   am
    95    14    13    1
    96    14    16    1
    97   105   107   ar
    98   114   113    2
    99    13    15    1
   100   131   133   ar
   101   120   119    2
   102    85    86    1
   103    85    87    1
   104    50    49    2
   105   119   118    1
   106   134   133   ar
   107   134   136   ar
   108   138   136   ar
   109    55    53   ar
   110    52    53   ar
   111    52    51    1
   112   109   107   ar
   113   109   110    1
   114    49    48    1
   115   113   112    1
   116   117   118    1
   117   111   112    1
   118    51    48    1
   119   118   121    1
   120   112   115    1
   121    48    47    1
   122   121   122    1
   123   115   116    1
   124   122   123    2
   125   122   124   am
   126    23    22    1
   127    17    18    1
   128    21    18    1
   129    21    22    1
   130    18    19    1
   131    24    22    1
   132    32    30    1
   133    19    20    2
   134    31    30    1
   135    30    29    1
   136    46    45   ar
   137    46    44   ar
   138    45    43   ar
   139    44    42   ar
   140    29    26    1
   141    25    26    1
   142    43    40   ar
   143    26    27    1
   144    42    40   ar
   145    42    41   ar
   146    40    38   ar
   147    36    35    2
   148    41    39   ar
   149    27    28    2
   150    35    34    1
   151    38    39   ar
   152    38    37    1
   153    37    34    1
   154    34    33    1
