@<TRIPOS>MOLECULE
tmp/6exwB00.pdb
 145 143 0 0 0
SMALL
GASTEIGER

@<TRIPOS>ATOM
      1  N         23.0980  -33.4250   -2.7840 N.3    40  VAL40      -0.1245
      2  CA        24.5060  -33.1310   -3.0390 C.3    40  VAL40       0.1561
      3  C         25.0480  -31.9940   -2.1350 C.2    40  VAL40       0.2260
      4  O         26.1960  -31.5850   -2.2730 O.2    40  VAL40      -0.2867
      5  CB        24.7990  -32.8080   -4.5400 C.3    40  VAL40       0.0252
      6  CG1       23.8880  -33.5810   -5.4780 C.3    40  VAL40       0.0019
      7  CG2       24.6900  -31.3190   -4.8220 C.3    40  VAL40       0.0019
      8  N         24.2690  -28.7520   -1.8320 N.3    42  ARG42      -0.1245
      9  CA        24.0490  -27.3460   -2.2440 C.3    42  ARG42       0.1563
     10  C         22.5720  -27.0940   -2.5370 C.2    42  ARG42       0.2260
     11  O         21.9870  -27.7500   -3.4130 O.2    42  ARG42      -0.2867
     12  CB        24.8600  -26.9980   -3.5010 C.3    42  ARG42       0.0307
     13  CG        26.3520  -27.2620   -3.3960 C.3    42  ARG42       0.0489
     14  CD        27.1170  -26.7440   -4.6130 C.3    42  ARG42       0.2205
     15  NE        27.1610  -27.7180   -5.7020 N.pl3  42  ARG42      -0.0865
     16  CZ        27.8380  -28.8710   -5.6760 C.cat  42  ARG42       0.5346
     17  NH1       28.5520  -29.2250   -4.6080 N.pl3  42  ARG42       0.1354
     18  NH2       27.8050  -29.6840   -6.7280 N.pl3  42  ARG42       0.1354
     19  N         19.8340  -29.2620   -4.7160 N.3    45  ASP45      -0.1225
     20  CA        20.3230  -30.0910   -5.7990 C.3    45  ASP45       0.1805
     21  C         20.3730  -31.5300   -5.2900 C.2    45  ASP45       0.2598
     22  O         20.9160  -31.8030   -4.2070 O.2    45  ASP45      -0.2718
     23  CB        21.7390  -29.6780   -6.2420 C.3    45  ASP45       0.1424
     24  CG        21.7970  -28.2680   -6.8950 C.2    45  ASP45       0.3668
     25  OD1       20.7770  -27.5450   -6.9940 O.co2  45  ASP45      -0.2456
     26  OD2       22.8990  -27.8920   -7.3360 O.co2  45  ASP45      -0.2456
     27  N         19.8380  -32.4440   -6.0910 N.am   46  VAL46      -0.1966
     28  CA        19.9270  -33.8600   -5.8220 C.3    46  VAL46       0.1727
     29  C         20.4460  -34.5240   -7.0770 C.2    46  VAL46       0.2616
     30  O         20.3560  -33.9560   -8.1770 O.2    46  VAL46      -0.2715
     31  CB        18.5720  -34.4810   -5.4170 C.3    46  VAL46       0.0290
     32  CG1       18.0140  -33.8320   -4.1510 C.3    46  VAL46       0.0023
     33  CG2       17.5590  -34.4170   -6.5500 C.3    46  VAL46       0.0023
     34  N         21.0120  -35.7180   -6.9070 N.am   47  LYS47      -0.1977
     35  CA        21.3910  -36.5210   -8.0440 C.3    47  LYS47       0.1596
     36  C         20.8760  -37.9340   -7.8630 C.2    47  LYS47       0.2287
     37  O         20.6680  -38.4030   -6.7320 O.2    47  LYS47      -0.2864
     38  CB        22.8910  -36.5190   -8.2160 C.3    47  LYS47       0.0298
     39  CG        23.4530  -35.2530   -8.8260 C.3    47  LYS47       0.0038
     40  CD        24.9680  -35.3420   -8.8740 C.3    47  LYS47       0.0206
     41  CE        25.5770  -34.3590   -9.8560 C.3    47  LYS47       0.1093
     42  NZ        25.4670  -34.8390  -11.2690 N.3    47  LYS47      -0.1314
     43  N         20.9250  -34.8600  -12.4610 N.3    54  GLY54      -0.1210
     44  CA        20.7200  -33.8730  -11.4350 C.3    54  GLY54       0.1956
     45  C         19.4180  -33.1520  -11.6430 C.2    54  GLY54       0.2612
     46  O         19.0460  -32.8350  -12.7900 O.2    54  GLY54      -0.2717
     47  N         18.7320  -32.9030  -10.5310 N.am   55  LEU55      -0.1965
     48  CA        17.5040  -32.1240  -10.5070 C.3    55  LEU55       0.1728
     49  C         17.5440  -31.1120   -9.3870 C.2    55  LEU55       0.2616
     50  O         18.0940  -31.3940   -8.3300 O.2    55  LEU55      -0.2715
     51  CB        16.2750  -33.0210  -10.3220 C.3    55  LEU55       0.0311
     52  CG        15.9140  -33.9910  -11.4470 C.3    55  LEU55       0.0022
     53  CD1       14.6580  -34.7790  -11.0730 C.3    55  LEU55       0.0001
     54  CD2       15.7000  -33.2490  -12.7640 C.3    55  LEU55       0.0001
     55  N         16.9450  -29.9360   -9.6420 N.am   56  ARG56      -0.1963
     56  CA        16.8810  -28.8460   -8.6920 C.3    56  ARG56       0.1729
     57  C         15.5970  -28.0550   -8.9120 C.2    56  ARG56       0.2616
     58  O         14.8720  -28.2760   -9.8800 O.2    56  ARG56      -0.2715
     59  CB        18.0680  -27.9100   -8.8510 C.3    56  ARG56       0.0348
     60  CG        18.2040  -27.3480  -10.2650 C.3    56  ARG56       0.0492
     61  CD        19.2490  -26.2580  -10.3310 C.3    56  ARG56       0.2205
     62  NE        20.5690  -26.6980   -9.8520 N.pl3  56  ARG56      -0.0865
     63  CZ        21.6660  -26.7960  -10.6100 C.cat  56  ARG56       0.5346
     64  NH1       22.7810  -27.1940  -10.0680 N.pl3  56  ARG56       0.1354
     65  NH2       21.6660  -26.5060  -11.9070 N.pl3  56  ARG56       0.1354
     66  N         15.3380  -27.1410   -7.9880 N.am   57  CYS57      -0.1954
     67  CA        14.2490  -26.1780   -8.0870 C.3    57  CYS57       0.1843
     68  C         12.9650  -26.9330   -7.9760 C.2    57  CYS57       0.2625
     69  O         12.1270  -26.9330   -8.8640 O.2    57  CYS57      -0.2714
     70  CB        14.3220  -25.3370   -9.3840 C.3    57  CYS57       0.0997
     71  SG        15.8420  -24.3400   -9.5240 S.3    57  CYS57      -0.0797
     72  N         12.8380  -27.6030   -6.8380 N.am   58  TRP58      -0.1960
     73  CA        11.7040  -28.4230   -6.5600 C.3    58  TRP58       0.1771
     74  C         10.5130  -27.5520   -6.1930 C.2    58  TRP58       0.2619
     75  O         10.6650  -26.4940   -5.5980 O.2    58  TRP58      -0.2715
     76  CB        12.0520  -29.4200   -5.4590 C.3    58  TRP58       0.0590
     77  CG        12.9810  -30.4770   -5.9350 C.ar   58  TRP58       0.0006
     78  CD1       14.3320  -30.4620   -5.8470 C.ar   58  TRP58       0.0946
     79  CD2       12.6350  -31.7050   -6.6010 C.ar   58  TRP58       0.0152
     80  NE1       14.8470  -31.5990   -6.4010 N.ar   58  TRP58      -0.2442
     81  CE2       13.8230  -32.3880   -6.8450 C.ar   58  TRP58       0.0810
     82  CE3       11.4330  -32.3060   -6.9640 C.ar   58  TRP58       0.0012
     83  CZ2       13.8560  -33.6040   -7.4960 C.ar   58  TRP58       0.0191
     84  CZ3       11.4610  -33.5180   -7.5870 C.ar   58  TRP58       0.0001
     85  CH2       12.6610  -34.1580   -7.8520 C.ar   58  TRP58       0.0015
     86  N          9.3260  -27.9700   -6.6030 N.am   59  GLU59      -0.1977
     87  CA         8.1140  -27.1560   -6.4080 C.3    59  GLU59       0.1602
     88  C          7.1140  -28.0040   -5.6790 C.2    59  GLU59       0.2287
     89  O          7.1380  -29.2470   -5.7760 O.2    59  GLU59      -0.2864
     90  CB         7.5030  -26.6800   -7.7410 C.3    59  GLU59       0.0415
     91  CG         8.2070  -25.4800   -8.3730 C.3    59  GLU59       0.1163
     92  CD         7.5980  -25.0430   -9.7080 C.2    59  GLU59       0.3649
     93  OE1        7.2190  -25.9150  -10.5240 O.co2  59  GLU59      -0.2457
     94  OE2        7.4970  -23.8140   -9.9440 O.co2  59  GLU59      -0.2457
     95  N          5.4990  -31.5040   -6.8490 N.3    62  ASP62      -0.1239
     96  CA         6.4010  -32.3060   -7.6680 C.3    62  ASP62       0.1674
     97  C          6.4920  -33.7170   -7.1790 C.2    62  ASP62       0.2266
     98  O          6.7040  -33.9390   -5.9800 O.2    62  ASP62      -0.2867
     99  CB         7.7950  -31.7380   -7.6430 C.3    62  ASP62       0.1410
    100  CG         7.9830  -30.6050   -8.6020 C.2    62  ASP62       0.3668
    101  OD1        7.0230  -30.2110   -9.3050 O.co2  62  ASP62      -0.2456
    102  OD2        9.1460  -30.1180   -8.6410 O.co2  62  ASP62      -0.2456
    103  N          9.2970  -36.4300  -12.2390 N.3    67  GLU67      -0.1245
    104  CA        10.4960  -35.6270  -12.6270 C.3    67  GLU67       0.1567
    105  C         11.6810  -36.4800  -13.1090 C.2    67  GLU67       0.2260
    106  O         12.3710  -36.1040  -14.0600 O.2    67  GLU67      -0.2867
    107  CB        10.9320  -34.6910  -11.5050 C.3    67  GLU67       0.0388
    108  CG         9.8310  -33.7590  -11.0240 C.3    67  GLU67       0.1160
    109  CD         9.1940  -33.0050  -12.1780 C.2    67  GLU67       0.3649
    110  OE1        9.9250  -32.2320  -12.8080 O.co2  67  GLU67      -0.2457
    111  OE2        7.9850  -33.1820  -12.4600 O.co2  67  GLU67      -0.2457
    112  N         10.5380  -37.5470  -16.6630 N.3    70  LYS70      -0.1231
    113  CA        10.4930  -36.3510  -17.4890 C.3    70  LYS70       0.1693
    114  C         11.8740  -35.9230  -18.0100 C.2    70  LYS70       0.2592
    115  O         12.0290  -35.6720  -19.2140 O.2    70  LYS70      -0.2718
    116  CB         9.8080  -35.2410  -16.6830 C.3    70  LYS70       0.0285
    117  CG         9.7740  -33.8980  -17.3330 C.3    70  LYS70       0.0035
    118  CD         8.8170  -32.9650  -16.6260 C.3    70  LYS70       0.0206
    119  CE         8.7600  -31.6280  -17.3720 C.3    70  LYS70       0.1093
    120  NZ         7.6350  -30.7770  -16.9030 N.3    70  LYS70      -0.1314
    121  N         12.8820  -35.8920  -17.1320 N.am   71  TRP71      -0.1962
    122  CA        14.2240  -35.4150  -17.5100 C.3    71  TRP71       0.1771
    123  C         15.2980  -36.4800  -17.7800 C.2    71  TRP71       0.2619
    124  O         16.2270  -36.2180  -18.5240 O.2    71  TRP71      -0.2715
    125  CB        14.7280  -34.4910  -16.4160 C.3    71  TRP71       0.0590
    126  CG        13.8690  -33.3360  -16.2510 C.ar   71  TRP71       0.0006
    127  CD1       13.0430  -33.0690  -15.2000 C.ar   71  TRP71       0.0946
    128  CD2       13.6980  -32.2740  -17.1840 C.ar   71  TRP71       0.0152
    129  NE1       12.3910  -31.8850  -15.4080 N.ar   71  TRP71      -0.2442
    130  CE2       12.7770  -31.3750  -16.6220 C.ar   71  TRP71       0.0810
    131  CE3       14.2630  -31.9760  -18.4290 C.ar   71  TRP71       0.0012
    132  CZ2       12.3930  -30.1960  -17.2640 C.ar   71  TRP71       0.0191
    133  CZ3       13.8750  -30.7890  -19.0670 C.ar   71  TRP71       0.0001
    134  CH2       12.9560  -29.9230  -18.4780 C.ar   71  TRP71       0.0015
    135  N         15.1790  -37.6660  -17.1770 N.am   72  PHE72      -0.1974
    136  CA        16.1430  -38.7440  -17.3660 C.3    72  PHE72       0.1639
    137  C         15.4530  -40.0780  -17.6990 C.2    72  PHE72       0.2290
    138  O         15.6090  -41.0760  -16.9860 O.2    72  PHE72      -0.2864
    139  CB        17.0940  -38.8330  -16.1520 C.3    72  PHE72       0.0560
    140  CG        17.7480  -37.5230  -15.8390 C.ar   72  PHE72      -0.0200
    141  CD1       18.7550  -37.0170  -16.6670 C.ar   72  PHE72      -0.0042
    142  CD2       17.2880  -36.7320  -14.7940 C.ar   72  PHE72      -0.0042
    143  CE1       19.3190  -35.7690  -16.4280 C.ar   72  PHE72      -0.0003
    144  CE2       17.8650  -35.4800  -14.5500 C.ar   72  PHE72      -0.0003
    145  CZ        18.8670  -34.9970  -15.3780 C.ar   72  PHE72      -0.0000
@<TRIPOS>BOND
     1   115   114    2
     2   133   134   ar
     3   133   131   ar
     4   124   123    2
     5   134   132   ar
     6   131   128   ar
     7   114   113    1
     8   114   121   am
     9   123   122    1
    10   123   135   am
    11   137   136    1
    12   137   138    2
    13   122   121    1
    14   122   125    1
    15   113   116    1
    16   113   112    1
    17   119   120    1
    18   119   118    1
    19   136   135    1
    20   136   139    1
    21   117   116    1
    22   117   118    1
    23   132   130   ar
    24   128   130   ar
    25   128   126   ar
    26   141   143   ar
    27   141   140   ar
    28   130   129   ar
    29   143   145   ar
    30   125   126    1
    31   126   127   ar
    32   139   140    1
    33   140   142   ar
    34   129   127   ar
    35   145   144   ar
    36   142   144   ar
    37   106   105    2
    38   105   104    1
    39   110   109   ar
    40    46    45    2
    41    54    52    1
    42   104   103    1
    43   104   107    1
    44    43    44    1
    45   111   109   ar
    46   109   108    1
    47    65    63    1
    48    45    44    1
    49    45    47   am
    50   107   108    1
    51    52    53    1
    52    52    51    1
    53    42    41    1
    54    63    64    1
    55    63    62    2
    56    47    48    1
    57    93    92   ar
    58    48    51    1
    59    48    49    1
    60    61    60    1
    61    61    62    1
    62    60    59    1
    63    94    92   ar
    64    58    57    2
    65    41    40    1
    66    92    91    1
    67    55    49   am
    68    55    56    1
    69    71    70    1
    70    49    50    2
    71    70    67    1
    72   101   100   ar
    73    57    56    1
    74    57    66   am
    75    40    39    1
    76    69    68    2
    77    59    56    1
    78    39    38    1
    79   102   100   ar
    80   100    99    1
    81    91    90    1
    82    38    35    1
    83    30    29    2
    84    67    66    1
    85    67    68    1
    86    35    36    1
    87    35    34    1
    88    68    72   am
    89    36    37    2
    90    85    84   ar
    91    85    83   ar
    92    90    87    1
    93    96    99    1
    94    96    97    1
    95    96    95    1
    96    84    82   ar
    97    83    81   ar
    98    26    24   ar
    99    97    98    2
   100    29    34   am
   101    29    28    1
   102    25    24   ar
   103    82    79   ar
   104    24    23    1
   105    81    79   ar
   106    81    80   ar
   107    72    73    1
   108    18    16    1
   109    86    87    1
   110    86    74   am
   111    79    77   ar
   112    73    74    1
   113    73    76    1
   114    33    31    1
   115    87    88    1
   116    80    78   ar
   117    23    20    1
   118    74    75    2
   119    27    28    1
   120    27    21   am
   121    77    78   ar
   122    77    76    1
   123    28    31    1
   124    20    21    1
   125    20    19    1
   126    89    88    2
   127    15    16    2
   128    15    14    1
   129    16    17    1
   130     6     5    1
   131    31    32    1
   132    21    22    2
   133     7     5    1
   134    14    13    1
   135     5     2    1
   136    12    13    1
   137    12     9    1
   138    11    10    2
   139     2     1    1
   140     2     3    1
   141    10     9    1
   142     4     3    2
   143     9     8    1
