@<TRIPOS>MOLECULE
tmp/6ey2D00.pdb
 133 130 0 0 0
SMALL
GASTEIGER

@<TRIPOS>ATOM
      1  N        -25.9940  -20.0460  -14.6330 N.3    39  LEU39      -0.1245
      2  CA       -25.8160  -19.5770  -13.2720 C.3    39  LEU39       0.1561
      3  C        -27.1000  -19.7660  -12.4590 C.2    39  LEU39       0.2260
      4  O        -27.0900  -19.5310  -11.2520 O.2    39  LEU39      -0.2867
      5  CB       -25.4150  -18.0950  -13.3200 C.3    39  LEU39       0.0270
      6  CG       -24.1090  -17.7980  -14.0550 C.3    39  LEU39       0.0019
      7  CD1      -23.8410  -16.3140  -14.0810 C.3    39  LEU39       0.0001
      8  CD2      -22.9520  -18.5690  -13.4380 C.3    39  LEU39       0.0001
      9  N        -28.7270  -15.9470  -17.6860 N.3    44  LYS44      -0.1245
     10  CA       -27.3210  -15.6360  -17.4350 C.3    44  LYS44       0.1561
     11  C        -26.4530  -16.8850  -17.6100 C.2    44  LYS44       0.2260
     12  O        -26.7490  -17.9410  -17.0580 O.2    44  LYS44      -0.2867
     13  CB       -27.1120  -15.0970  -16.0150 C.3    44  LYS44       0.0271
     14  CG       -27.4500  -13.6310  -15.7940 C.3    44  LYS44       0.0035
     15  CD       -26.9110  -13.1460  -14.4600 C.3    44  LYS44       0.0206
     16  CE       -27.2030  -11.6940  -14.1710 C.3    44  LYS44       0.1093
     17  NZ       -28.6540  -11.4100  -14.1500 N.3    44  LYS44      -0.1314
     18  N        -21.9470  -17.8910  -18.2590 N.3    46  LYS46      -0.1245
     19  CA       -20.6270  -17.4420  -17.9600 C.3    46  LYS46       0.1561
     20  C        -19.6290  -18.4010  -18.6140 C.2    46  LYS46       0.2260
     21  O        -19.8480  -19.5950  -18.6230 O.2    46  LYS46      -0.2867
     22  CB       -20.4270  -17.4110  -16.4400 C.3    46  LYS46       0.0271
     23  CG       -19.2260  -16.6400  -15.9330 C.3    46  LYS46       0.0035
     24  CD       -19.0840  -16.7050  -14.4370 C.3    46  LYS46       0.0206
     25  CE       -17.7470  -16.1900  -13.9530 C.3    46  LYS46       0.1093
     26  NZ       -17.4680  -16.6340  -12.5650 N.3    46  LYS46      -0.1314
     27  N        -14.3770  -16.1520  -17.9790 N.3    51  GLY51      -0.1225
     28  CA       -15.3130  -15.6390  -16.9730 C.3    51  GLY51       0.1811
     29  C        -16.3160  -14.6250  -17.5340 C.2    51  GLY51       0.2280
     30  O        -17.0240  -13.9620  -16.7770 O.2    51  GLY51      -0.2866
     31  N        -19.6350  -13.0210  -18.8930 N.3    53  GLY53      -0.1210
     32  CA       -21.0280  -13.2910  -18.6350 C.3    53  GLY53       0.1956
     33  C        -21.9490  -12.6050  -19.6230 C.2    53  GLY53       0.2612
     34  O        -21.7450  -11.4540  -19.9500 O.2    53  GLY53      -0.2717
     35  N        -23.0020  -13.3200  -20.0370 N.am   54  LEU54      -0.1965
     36  CA       -23.9420  -12.9160  -21.0950 C.3    54  LEU54       0.1728
     37  C        -25.3950  -13.1550  -20.6460 C.2    54  LEU54       0.2617
     38  O        -25.6620  -14.1610  -19.9660 O.2    54  LEU54      -0.2715
     39  CB       -23.6130  -13.7490  -22.3400 C.3    54  LEU54       0.0311
     40  CG       -22.8940  -13.0610  -23.4990 C.3    54  LEU54       0.0022
     41  CD1      -22.1090  -11.8580  -23.0550 C.3    54  LEU54       0.0001
     42  CD2      -22.0100  -14.0590  -24.2390 C.3    54  LEU54       0.0001
     43  N        -26.3040  -12.2600  -21.0680 N.am   55  THR55      -0.1937
     44  CA       -27.7360  -12.3220  -20.7230 C.3    55  THR55       0.2028
     45  C        -28.5850  -11.7800  -21.8770 C.2    55  THR55       0.2642
     46  O        -28.0540  -11.1780  -22.7880 O.2    55  THR55      -0.2714
     47  CB       -28.0870  -11.4610  -19.5030 C.3    55  THR55       0.1808
     48  OG1      -26.8700  -10.9490  -18.9650 O.3    55  THR55      -0.2208
     49  CG2      -28.8910  -12.2030  -18.4550 C.3    55  THR55       0.0379
     50  N        -29.9060  -11.9610  -21.7660 N.am   56  ASP56      -0.1957
     51  CA       -30.9080  -11.4390  -22.7020 C.3    56  ASP56       0.1840
     52  C        -30.6510  -11.9810  -24.1120 C.2    56  ASP56       0.2622
     53  O        -30.6530  -11.2390  -25.0780 O.2    56  ASP56      -0.2715
     54  CB       -30.9810   -9.9160  -22.6490 C.3    56  ASP56       0.1450
     55  CG       -32.3620   -9.3630  -23.0300 C.2    56  ASP56       0.3671
     56  OD1      -32.7790   -9.5450  -24.1940 O.co2  56  ASP56      -0.2456
     57  OD2      -33.0320   -8.7570  -22.1510 O.co2  56  ASP56      -0.2456
     58  N        -30.4860  -13.3000  -24.2130 N.am   57  TRP57      -0.1960
     59  CA       -30.2990  -13.9720  -25.4920 C.3    57  TRP57       0.1771
     60  C        -31.5640  -13.8240  -26.3440 C.2    57  TRP57       0.2619
     61  O        -32.6600  -13.7900  -25.8240 O.2    57  TRP57      -0.2715
     62  CB       -29.9450  -15.4350  -25.2880 C.3    57  TRP57       0.0590
     63  CG       -28.6290  -15.6610  -24.6110 C.ar   57  TRP57       0.0006
     64  CD1      -28.3840  -15.7210  -23.2690 C.ar   57  TRP57       0.0946
     65  CD2      -27.3720  -15.9300  -25.2560 C.ar   57  TRP57       0.0152
     66  NE1      -27.0690  -16.0120  -23.0370 N.ar   57  TRP57      -0.2442
     67  CE2      -26.4230  -16.1480  -24.2370 C.ar   57  TRP57       0.0810
     68  CE3      -26.9640  -16.0170  -26.5880 C.ar   57  TRP57       0.0012
     69  CZ2      -25.0860  -16.4180  -24.5100 C.ar   57  TRP57       0.0191
     70  CZ3      -25.6430  -16.3070  -26.8610 C.ar   57  TRP57       0.0001
     71  CH2      -24.7170  -16.4840  -25.8320 C.ar   57  TRP57       0.0015
     72  N        -31.3780  -13.7160  -27.6630 N.am   58  LYS58      -0.1977
     73  CA       -32.4450  -13.7860  -28.6540 C.3    58  LYS58       0.1596
     74  C        -32.3960  -15.1760  -29.2870 C.2    58  LYS58       0.2287
     75  O        -31.3840  -15.8690  -29.1810 O.2    58  LYS58      -0.2864
     76  CB       -32.2750  -12.6940  -29.7120 C.3    58  LYS58       0.0298
     77  CG       -31.9970  -11.2950  -29.1860 C.3    58  LYS58       0.0038
     78  CD       -33.2040  -10.5350  -28.7190 C.3    58  LYS58       0.0206
     79  CE       -32.8170   -9.1970  -28.1030 C.3    58  LYS58       0.1093
     80  NZ       -33.8510   -8.1420  -28.2550 N.3    58  LYS58      -0.1314
     81  N        -29.4590  -16.0280  -32.0090 N.3    61  GLU61      -0.1245
     82  CA       -28.0840  -15.6290  -31.6900 C.3    61  GLU61       0.1567
     83  C        -27.1740  -16.8450  -31.5030 C.2    61  GLU61       0.2260
     84  O        -27.5840  -17.8360  -30.8990 O.2    61  GLU61      -0.2867
     85  CB       -28.0730  -14.7070  -30.4700 C.3    61  GLU61       0.0388
     86  CG       -28.5000  -13.2900  -30.8220 C.3    61  GLU61       0.1160
     87  CD       -28.4400  -12.2850  -29.6890 C.2    61  GLU61       0.3649
     88  OE1      -28.6380  -12.6980  -28.5670 O.co2  61  GLU61      -0.2457
     89  OE2      -28.1970  -11.0900  -29.9230 O.co2  61  GLU61      -0.2457
     90  N        -21.3750  -14.4670  -30.1410 N.3    66  GLN66      -0.1245
     91  CA       -21.5290  -13.5560  -29.0070 C.3    66  GLN66       0.1566
     92  C        -20.2720  -13.6340  -28.1170 C.2    66  GLN66       0.2260
     93  O        -19.8010  -12.6180  -27.5860 O.2    66  GLN66      -0.2867
     94  CB       -22.8320  -13.8720  -28.2580 C.3    66  GLN66       0.0367
     95  CG       -24.0840  -13.6660  -29.0990 C.3    66  GLN66       0.0905
     96  CD       -24.1950  -12.2800  -29.6760 C.2    66  GLN66       0.2608
     97  OE1      -24.0130  -11.2710  -29.0110 O.2    66  GLN66      -0.2717
     98  NE2      -24.4740  -12.2120  -30.9560 N.am   66  GLN66      -0.0878
     99  N        -17.8860  -11.5340  -29.8690 N.3    69  LYS69      -0.1231
    100  CA       -18.2930  -10.1500  -29.9400 C.3    69  LYS69       0.1693
    101  C        -17.9300   -9.4100  -28.6550 C.2    69  LYS69       0.2592
    102  O        -17.5120   -8.2540  -28.7000 O.2    69  LYS69      -0.2718
    103  CB       -19.7940  -10.0290  -30.1910 C.3    69  LYS69       0.0285
    104  CG       -20.3230   -8.5970  -30.2340 C.3    69  LYS69       0.0035
    105  CD       -21.7830   -8.4810  -30.5250 C.3    69  LYS69       0.0206
    106  CE       -22.2070   -7.0410  -30.3670 C.3    69  LYS69       0.1093
    107  NZ       -23.6160   -6.8200  -30.7420 N.3    69  LYS69      -0.1314
    108  N        -18.1220  -10.0730  -27.5110 N.am   70  TRP70      -0.1962
    109  CA       -18.0970   -9.4020  -26.1960 C.3    70  TRP70       0.1771
    110  C        -16.7970   -9.7150  -25.4380 C.2    70  TRP70       0.2619
    111  O        -16.3500   -8.8770  -24.6480 O.2    70  TRP70      -0.2715
    112  CB       -19.3230   -9.8060  -25.3850 C.3    70  TRP70       0.0590
    113  CG       -20.6150   -9.3510  -25.9860 C.ar   70  TRP70       0.0006
    114  CD1      -21.5840  -10.1300  -26.5460 C.ar   70  TRP70       0.0946
    115  CD2      -21.0900   -8.0000  -26.0750 C.ar   70  TRP70       0.0152
    116  NE1      -22.6200   -9.3550  -26.9840 N.ar   70  TRP70      -0.2442
    117  CE2      -22.3540   -8.0470  -26.6970 C.ar   70  TRP70       0.0810
    118  CE3      -20.5950   -6.7600  -25.6580 C.ar   70  TRP70       0.0012
    119  CZ2      -23.1030   -6.9010  -26.9590 C.ar   70  TRP70       0.0191
    120  CZ3      -21.3480   -5.6300  -25.8850 C.ar   70  TRP70       0.0001
    121  CH2      -22.5810   -5.7030  -26.5350 C.ar   70  TRP70       0.0015
    122  N        -16.2140  -10.9000  -25.6630 N.am   71  TYR71      -0.1974
    123  CA       -15.0860  -11.3650  -24.8990 C.3    71  TYR71       0.1639
    124  C        -14.0390  -12.0050  -25.8050 C.2    71  TYR71       0.2290
    125  O        -13.6560  -13.1640  -25.6250 O.2    71  TYR71      -0.2864
    126  CB       -15.5690  -12.3540  -23.8470 C.3    71  TYR71       0.0560
    127  CG       -16.5750  -11.7800  -22.8860 C.ar   71  TYR71      -0.0198
    128  CD1      -16.1950  -10.8110  -21.9810 C.ar   71  TYR71      -0.0009
    129  CD2      -17.9050  -12.1890  -22.8900 C.ar   71  TYR71      -0.0009
    130  CE1      -17.1050  -10.2570  -21.0970 C.ar   71  TYR71       0.0417
    131  CE2      -18.8250  -11.6420  -22.0170 C.ar   71  TYR71       0.0417
    132  CZ       -18.4260  -10.6670  -21.1180 C.ar   71  TYR71       0.1957
    133  OH       -19.3110  -10.1160  -20.2350 O.3    71  TYR71      -0.2866
@<TRIPOS>BOND
     1    81    82    1
     2    82    83    1
     3    82    85    1
     4    83    84    2
     5    98    96   am
     6    86    85    1
     7    86    87    1
     8   107   106    1
     9   105   106    1
    10   105   104    1
    11   104   103    1
    12   103   100    1
    13    90    91    1
    14   100    99    1
    15   100   101    1
    16    89    87   ar
    17    76    77    1
    18    76    73    1
    19    87    88   ar
    20    96    95    1
    21    96    97    2
    22    74    75    2
    23    74    73    1
    24    77    78    1
    25    95    94    1
    26    91    94    1
    27    91    92    1
    28    78    79    1
    29   102   101    2
    30   101   108   am
    31    73    72    1
    32    80    79    1
    33    92    93    2
    34    72    60   am
    35   108   109    1
    36   116   117   ar
    37   116   114   ar
    38   119   117   ar
    39   119   121   ar
    40    70    68   ar
    41    70    71   ar
    42   117   115   ar
    43    68    65   ar
    44   114   113   ar
    45   121   120   ar
    46    60    61    2
    47    60    59    1
    48   109   110    1
    49   109   112    1
    50   115   113   ar
    51   115   118   ar
    52   113   112    1
    53   120   118   ar
    54    71    69   ar
    55   124   125    2
    56   124   123    1
    57   122   110   am
    58   122   123    1
    59    59    62    1
    60    59    58    1
    61   110   111    2
    62    62    63    1
    63    65    63   ar
    64    65    67   ar
    65    53    52    2
    66   123   126    1
    67    63    64   ar
    68    69    67   ar
    69    42    40    1
    70    67    66   ar
    71    58    52   am
    72    56    55   ar
    73    52    51    1
    74   126   127    1
    75    40    41    1
    76    40    39    1
    77    64    66   ar
    78    55    54    1
    79    55    57   ar
    80   129   127   ar
    81   129   131   ar
    82   127   128   ar
    83    46    45    2
    84    51    54    1
    85    51    50    1
    86    39    36    1
    87   131   132   ar
    88   128   130   ar
    89    45    50   am
    90    45    44    1
    91   132   130   ar
    92   132   133    1
    93    36    37    1
    94    36    35    1
    95    43    44    1
    96    43    37   am
    97    44    47    1
    98    37    38    2
    99    35    33   am
   100    34    33    2
   101    33    32    1
   102    47    48    1
   103    47    49    1
   104    31    32    1
   105    21    20    2
   106    20    19    1
   107    18    19    1
   108    27    28    1
   109    19    22    1
   110     9    10    1
   111    11    10    1
   112    11    12    2
   113    29    28    1
   114    29    30    2
   115    10    13    1
   116    22    23    1
   117    13    14    1
   118    23    24    1
   119    14    15    1
   120     1     2    1
   121    15    16    1
   122    24    25    1
   123    16    17    1
   124     7     6    1
   125     6     8    1
   126     6     5    1
   127    25    26    1
   128     5     2    1
   129     2     3    1
   130     3     4    2
