@<TRIPOS>MOLECULE
tmp/6ey7B00.pdb
 105 98 0 0 0
SMALL
GASTEIGER

@<TRIPOS>ATOM
      1  N        -23.9490  -15.2770    7.5390 N.3    36  ASP36      -0.1225
      2  CA       -22.7490  -15.0670    6.7030 C.3    36  ASP36       0.1790
      3  C        -23.0420  -15.6290    5.3030 C.2    36  ASP36       0.2439
      4  O        -22.8720  -16.8260    5.0780 O.2    36  ASP36      -0.2733
      5  CB       -21.5230  -15.7460    7.3240 C.3    36  ASP36       0.1423
      6  CG       -20.2630  -15.7650    6.4700 C.2    36  ASP36       0.3668
      7  OD1      -20.1610  -14.9420    5.5280 O.co2  36  ASP36      -0.2456
      8  OD2      -19.3710  -16.5920    6.7520 O.co2  36  ASP36      -0.2456
      9  N        -23.5300  -14.7960    4.3630 N.am   37  PRO37      -0.2729
     10  CA       -23.9070  -15.3240    3.0390 C.3    37  PRO37       0.1401
     11  C        -22.7510  -15.8760    2.1960 C.2    37  PRO37       0.2269
     12  O        -21.5970  -15.4800    2.3720 O.2    37  PRO37      -0.2865
     13  CB       -24.6050  -14.1380    2.3790 C.3    37  PRO37       0.0296
     14  CG       -24.0370  -12.9470    3.0550 C.3    37  PRO37       0.0237
     15  CD       -23.8100  -13.3520    4.4700 C.3    37  PRO37       0.0939
     16  N        -20.1970  -16.7080   -0.8780 N.3    39  PHE39      -0.1241
     17  CA       -19.4180  -15.8360   -1.7500 C.3    39  PHE39       0.1605
     18  C        -18.5170  -16.6180   -2.7310 C.2    39  PHE39       0.2264
     19  O        -17.6740  -17.4030   -2.2880 O.2    39  PHE39      -0.2867
     20  CB       -18.6350  -14.8210   -0.9030 C.3    39  PHE39       0.0534
     21  CG       -17.6470  -13.9530   -1.6550 C.ar   39  PHE39      -0.0203
     22  CD1      -16.2890  -14.0210   -1.3770 C.ar   39  PHE39      -0.0042
     23  CD2      -18.0810  -13.0450   -2.6230 C.ar   39  PHE39      -0.0042
     24  CE1      -15.3740  -13.2200   -2.0710 C.ar   39  PHE39      -0.0003
     25  CE2      -17.1640  -12.2430   -3.3150 C.ar   39  PHE39      -0.0003
     26  CZ       -15.8160  -12.3410   -3.0370 C.ar   39  PHE39      -0.0000
     27  N        -18.1160  -21.4850   -1.9850 N.3    43  SER43      -0.1202
     28  CA       -18.3160  -21.1110   -0.5630 C.3    43  SER43       0.2020
     29  C        -19.8070  -21.1980   -0.0910 C.2    43  SER43       0.2619
     30  O        -20.7250  -21.0250   -0.9030 O.2    43  SER43      -0.2717
     31  CB       -17.7140  -19.7390   -0.2790 C.3    43  SER43       0.2103
     32  OG       -18.1600  -19.1720    0.9390 O.3    43  SER43      -0.2182
     33  N        -20.0150  -21.4980    1.2050 N.am   44  GLY44      -0.1956
     34  CA       -21.3490  -21.6730    1.7760 C.3    44  GLY44       0.1869
     35  C        -21.9290  -20.5550    2.6250 C.2    44  GLY44       0.2309
     36  O        -21.2460  -19.5740    2.9600 O.2    44  GLY44      -0.2863
     37  N        -24.6710  -10.1980    7.1840 N.3   102  GLU102     -0.1245
     38  CA       -23.3670   -9.6760    6.7470 C.3   102  GLU102      0.1567
     39  C        -23.4540   -9.1260    5.3090 C.2   102  GLU102      0.2260
     40  O        -23.7940   -9.8690    4.3880 O.2   102  GLU102     -0.2867
     41  CB       -22.2940  -10.7620    6.8740 C.3   102  GLU102      0.0388
     42  CG       -20.8860  -10.2200    6.9070 C.3   102  GLU102      0.1160
     43  CD       -19.8460  -11.2200    6.4600 C.2   102  GLU102      0.3649
     44  OE1      -19.7060  -12.2720    7.1170 O.co2 102  GLU102     -0.2457
     45  OE2      -19.1310  -10.9230    5.4780 O.co2 102  GLU102     -0.2457
     46  N        -20.8540   -7.3240    3.5580 N.3   104  ASN104     -0.1225
     47  CA       -19.5280   -7.0180    3.0230 C.3   104  ASN104      0.1785
     48  C        -19.3830   -7.3880    1.5530 C.2   104  ASN104      0.2597
     49  O        -19.0010   -6.5470    0.7300 O.2   104  ASN104     -0.2718
     50  CB       -18.4730   -7.7500    3.8390 C.3   104  ASN104      0.1169
     51  CG       -18.3340   -7.2400    5.2420 C.2   104  ASN104      0.2627
     52  OD1      -19.1480   -7.5230    6.1190 O.2   104  ASN104     -0.2716
     53  ND2      -17.3010   -6.4670    5.4780 N.am  104  ASN104     -0.0877
     54  N        -19.6990   -8.6560    1.2380 N.am  105  THR105     -0.1953
     55  CA       -19.6080   -9.2920   -0.0770 C.3   105  THR105      0.1897
     56  C        -20.5320   -8.5890   -1.1230 C.2   105  THR105      0.2313
     57  O        -20.0780   -8.3530   -2.2520 O.2   105  THR105     -0.2863
     58  CB       -19.7880  -10.8310    0.0780 C.3   105  THR105      0.1794
     59  OG1      -20.8440  -11.1660    0.9990 O.3   105  THR105     -0.2208
     60  CG2      -18.4990  -11.4890    0.5980 C.3   105  THR105      0.0378
     61  N        -18.5350   -6.2230    8.4730 N.3   147  MET147     -0.1230
     62  CA       -17.4050   -6.7330    9.2190 C.3   147  MET147      0.1702
     63  C        -16.1370   -5.9420    8.8860 C.2   147  MET147      0.2592
     64  O        -15.8990   -5.5940    7.7300 O.2   147  MET147     -0.2718
     65  CB       -17.2060   -8.2180    8.9340 C.3   147  MET147      0.0401
     66  CG       -16.2980   -8.8650    9.9160 C.3   147  MET147      0.0596
     67  SD       -16.8630  -10.5050   10.2780 S.3   147  MET147     -0.1393
     68  CE       -16.0340  -11.4110    9.0170 C.3   147  MET147      0.0692
     69  N        -15.3290   -5.6990    9.9070 N.am  148  GLY148     -0.1957
     70  CA       -14.0680   -4.9870    9.7810 C.3   148  GLY148      0.1869
     71  C        -13.0480   -5.4680   10.7790 C.2   148  GLY148      0.2309
     72  O        -12.8930   -6.6790   10.9830 O.2   148  GLY148     -0.2863
     73  N        -13.5540   -8.0240   13.9100 N.3   151  LYS151     -0.1245
     74  CA       -13.5100   -9.4730   13.7170 C.3   151  LYS151      0.1561
     75  C        -12.4370  -10.0840   14.6230 C.2   151  LYS151      0.2260
     76  O        -12.6510  -11.1510   15.1730 O.2   151  LYS151     -0.2867
     77  CB       -13.2100   -9.8180   12.2460 C.3   151  LYS151      0.0271
     78  CG       -13.4630  -11.2850   11.8850 C.3   151  LYS151      0.0035
     79  CD       -12.6190  -11.7610   10.7180 C.3   151  LYS151      0.0206
     80  CE       -12.9140  -13.2000   10.3520 C.3   151  LYS151      0.1093
     81  NZ       -11.9260  -13.7200    9.3740 N.3   151  LYS151     -0.1314
     82  N        -15.4210  -22.1820    6.8720 N.3   203  ASP203     -0.1225
     83  CA       -15.4640  -21.5650    8.2040 C.3   203  ASP203      0.1805
     84  C        -16.7380  -20.7490    8.4750 C.2   203  ASP203      0.2597
     85  O        -16.9030  -20.1970    9.5680 O.2   203  ASP203     -0.2718
     86  CB       -14.2280  -20.6680    8.3840 C.3   203  ASP203      0.1424
     87  CG       -14.0760  -19.5170    7.3850 C.2   203  ASP203      0.3668
     88  OD1      -13.2130  -18.6350    7.6220 O.co2 203  ASP203     -0.2456
     89  OD2      -14.8020  -19.5070    6.3540 O.co2 203  ASP203     -0.2456
     90  N        -17.6350  -20.6820    7.4850 N.am  204  ASP204     -0.1974
     91  CA       -18.8760  -19.9150    7.5180 C.3   204  ASP204      0.1709
     92  C        -19.7310  -20.1720    8.7380 C.2   204  ASP204      0.2293
     93  O        -20.3800  -19.2470    9.2220 O.2   204  ASP204     -0.2864
     94  CB       -19.6950  -20.1200    6.2370 C.3   204  ASP204      0.1436
     95  CG       -18.8530  -20.3240    5.0070 C.2   204  ASP204      0.3671
     96  OD1      -18.6940  -21.4900    4.5920 O.co2 204  ASP204     -0.2456
     97  OD2      -18.3410  -19.3200    4.4650 O.co2 204  ASP204     -0.2456
     98  N        -17.8420  -18.7130   11.9770 N.3   207  ILE207     -0.1245
     99  CA       -17.8920  -17.2430   11.8770 C.3   207  ILE207      0.1561
    100  C        -19.2720  -16.7140   12.3510 C.2   207  ILE207      0.2260
    101  O        -19.3160  -15.8020   13.1730 O.2   207  ILE207     -0.2867
    102  CB       -17.4500  -16.7430   10.4580 C.3   207  ILE207      0.0252
    103  CG1      -15.9260  -17.0560   10.2400 C.3   207  ILE207      0.0019
    104  CG2      -17.7580  -15.2600   10.2490 C.3   207  ILE207      0.0019
    105  CD1      -15.1570  -16.4530    9.0380 C.3   207  ILE207      0.0001
@<TRIPOS>BOND
     1    25    26   ar
     2    25    23   ar
     3    26    24   ar
     4    18    19    2
     5    18    17    1
     6    23    21   ar
     7    57    56    2
     8    24    22   ar
     9    27    28    1
    10    17    20    1
    11    17    16    1
    12    21    22   ar
    13    21    20    1
    14    56    55    1
    15    30    29    2
    16    28    31    1
    17    28    29    1
    18    31    32    1
    19    29    33   am
    20    55    58    1
    21    55    54    1
    22    58    60    1
    23    58    59    1
    24    49    48    2
    25    33    34    1
    26    54    48   am
    27    48    47    1
    28    34    35    1
    29    11    12    2
    30    11    10    1
    31    13    10    1
    32    13    14    1
    33    35    36    2
    34    47    46    1
    35    47    50    1
    36    10     9    1
    37    14    15    1
    38    50    51    1
    39     9    15    1
    40     9     3   am
    41    40    39    2
    42    97    95   ar
    43    96    95   ar
    44    95    94    1
    45     4     3    2
    46    51    53   am
    47    51    52    2
    48     3     2    1
    49    39    38    1
    50    45    43   ar
    51     7     6   ar
    52    94    91    1
    53    89    87   ar
    54    43    42    1
    55    43    44   ar
    56     6     8   ar
    57     6     5    1
    58     2     5    1
    59     2     1    1
    60    38    41    1
    61    38    37    1
    62    82    83    1
    63    41    42    1
    64    87    88   ar
    65    87    86    1
    66    90    91    1
    67    90    84   am
    68    91    92    1
    69    64    63    2
    70    83    86    1
    71    83    84    1
    72    61    62    1
    73    84    85    2
    74    92    93    2
    75    63    62    1
    76    63    69   am
    77    65    62    1
    78    65    66    1
    79    68    67    1
    80   105   103    1
    81    81    80    1
    82    70    69    1
    83    70    71    1
    84    66    67    1
    85   103   102    1
    86   104   102    1
    87    80    79    1
    88   102    99    1
    89    79    78    1
    90    71    72    2
    91    99    98    1
    92    99   100    1
    93    78    77    1
    94    77    74    1
    95   100   101    2
    96    74    73    1
    97    74    75    1
    98    75    76    2
