@<TRIPOS>MOLECULE
tmp/6eyaA00.pdb
 150 140 0 0 0
SMALL
GASTEIGER

@<TRIPOS>ATOM
      1  N         65.9260   33.7190   33.2790 N.3    32  LEU32      -0.1245
      2  CA        65.3240   33.1310   32.0880 C.3    32  LEU32       0.1561
      3  C         64.0330   33.8290   31.7180 C.2    32  LEU32       0.2260
      4  O         63.8070   34.1130   30.5420 O.2    32  LEU32      -0.2867
      5  CB        65.1260   31.6070   32.2840 C.3    32  LEU32       0.0270
      6  CG        66.4580   30.8090   32.4410 C.3    32  LEU32       0.0019
      7  CD1       66.1730   29.3320   32.6990 C.3    32  LEU32       0.0001
      8  CD2       67.3780   30.9910   31.1840 C.3    32  LEU32       0.0001
      9  N         64.9260   37.1460   30.1760 N.3    35  ASN35      -0.1225
     10  CA        65.3840   36.9910   28.7920 C.3    35  ASN35       0.1785
     11  C         64.2060   36.7910   27.8570 C.2    35  ASN35       0.2597
     12  O         64.1970   37.3450   26.7650 O.2    35  ASN35      -0.2718
     13  CB        66.3920   35.8540   28.6570 C.3    35  ASN35       0.1169
     14  CG        67.7540   36.1440   29.2570 C.2    35  ASN35       0.2627
     15  OD1       68.0190   37.2350   29.7850 O.2    35  ASN35      -0.2716
     16  ND2       68.6530   35.1740   29.1660 N.am   35  ASN35      -0.0877
     17  N         63.2070   36.0070   28.2950 N.am   36  SER36      -0.1952
     18  CA        61.9730   35.7720   27.5440 C.3    36  SER36       0.1924
     19  C         61.2480   37.1050   27.3610 C.2    36  SER36       0.2314
     20  O         60.8740   37.4440   26.2400 O.2    36  SER36      -0.2863
     21  CB        61.0720   34.7880   28.2900 C.3    36  SER36       0.2116
     22  OG        61.5530   33.4650   28.1440 O.3    36  SER36      -0.2180
     23  N         62.5060   40.1540   27.3240 N.3    38  ASP38      -0.1225
     24  CA        63.2580   41.0180   26.3930 C.3    38  ASP38       0.1805
     25  C         62.9950   40.6350   24.9460 C.2    38  ASP38       0.2597
     26  O         62.8320   41.5150   24.1080 O.2    38  ASP38      -0.2718
     27  CB        64.7670   40.9760   26.6830 C.3    38  ASP38       0.1424
     28  CG        65.1880   41.5310   28.0330 C.2    38  ASP38       0.3668
     29  OD1       64.3470   42.1990   28.7000 O.co2  38  ASP38      -0.2456
     30  OD2       66.3630   41.3360   28.4100 O.co2  38  ASP38      -0.2456
     31  N         62.9280   39.3180   24.6620 N.am   39  ALA39      -0.1979
     32  CA        62.6490   38.7890   23.3190 C.3    39  ALA39       0.1597
     33  C         61.1980   39.0970   22.8870 C.2    39  ALA39       0.2287
     34  O         60.9170   39.2720   21.6980 O.2    39  ALA39      -0.2864
     35  CB        62.8870   37.2990   23.3100 C.3    39  ALA39       0.0319
     36  N         61.0970   42.7310   21.9020 N.3    42  LYS42      -0.1245
     37  CA        61.6610   42.8830   20.5570 C.3    42  LYS42       0.1561
     38  C         60.6420   42.5660   19.4620 C.2    42  LYS42       0.2260
     39  O         60.5600   43.3100   18.4870 O.2    42  LYS42      -0.2867
     40  CB        62.9590   42.0780   20.3750 C.3    42  LYS42       0.0271
     41  CG        64.1300   42.5920   21.2090 C.3    42  LYS42       0.0035
     42  CD        65.3180   41.6140   21.2350 C.3    42  LYS42       0.0206
     43  CE        66.2690   41.9070   22.3750 C.3    42  LYS42       0.1093
     44  NZ        67.4870   41.0610   22.3210 N.3    42  LYS42      -0.1314
     45  N         58.7040   30.8180   25.3040 N.3    77  ASP77      -0.1239
     46  CA        58.1810   32.1560   25.0240 C.3    77  ASP77       0.1674
     47  C         57.8750   32.2830   23.5290 C.2    77  ASP77       0.2266
     48  O         58.4390   31.5390   22.7300 O.2    77  ASP77      -0.2867
     49  CB        59.1340   33.2610   25.5130 C.3    77  ASP77       0.1410
     50  CG        60.4410   33.3610   24.7530 C.2    77  ASP77       0.3668
     51  OD1       60.4070   33.7390   23.5500 O.co2  77  ASP77      -0.2456
     52  OD2       61.5020   33.0960   25.3620 O.co2  77  ASP77      -0.2456
     53  N         60.8000   37.0590   19.7110 N.3    80  ILE80      -0.1231
     54  CA        61.3560   37.2330   18.3680 C.3    80  ILE80       0.1692
     55  C         62.1150   35.9720   17.8820 C.2    80  ILE80       0.2593
     56  O         62.1950   35.7340   16.6800 O.2    80  ILE80      -0.2718
     57  CB        62.2060   38.5580   18.2910 C.3    80  ILE80       0.0266
     58  CG1       62.6530   38.9130   16.8570 C.3    80  ILE80       0.0019
     59  CG2       63.3930   38.5510   19.2430 C.3    80  ILE80       0.0020
     60  CD1       61.8910   39.9810   16.2490 C.3    80  ILE80       0.0001
     61  N         62.6250   35.1680   18.8070 N.am   81  GLY81      -0.1942
     62  CA        63.4040   33.9910   18.4540 C.3    81  GLY81       0.2014
     63  C         64.8080   34.3760   18.0220 C.2    81  GLY81       0.2638
     64  O         65.1520   35.5610   18.0030 O.2    81  GLY81      -0.2714
     65  N         65.6370   33.3800   17.6920 N.am   82  MET82      -0.1976
     66  CA        67.0170   33.6080   17.2430 C.3    82  MET82       0.1605
     67  C         67.3050   32.8740   15.9370 C.2    82  MET82       0.2287
     68  O         66.8930   31.7200   15.7710 O.2    82  MET82      -0.2864
     69  CB        68.0260   33.1270   18.3160 C.3    82  MET82       0.0413
     70  CG        67.9850   33.9210   19.6120 C.3    82  MET82       0.0598
     71  SD        69.1180   33.3020   20.8730 S.3    82  MET82      -0.1393
     72  CE        68.1690   31.8550   21.4960 C.3    82  MET82       0.0692
     73  N         71.9310   32.5760   17.6370 N.3    87  LEU87      -0.1245
     74  CA        72.0860   31.4200   18.5260 C.3    87  LEU87       0.1561
     75  C         73.5400   31.1750   18.8860 C.2    87  LEU87       0.2260
     76  O         73.8500   31.0860   20.0730 O.2    87  LEU87      -0.2867
     77  CB        71.5390   30.1540   17.8590 C.3    87  LEU87       0.0270
     78  CG        70.5720   29.2430   18.6040 C.3    87  LEU87       0.0019
     79  CD1       70.7030   27.8150   18.1130 C.3    87  LEU87       0.0001
     80  CD2       70.6500   29.3730   20.1470 C.3    87  LEU87       0.0001
     81  N         75.0960   34.8840   20.5930 N.3    90  ASN90      -0.1240
     82  CA        74.6100   35.1110   21.9700 C.3    90  ASN90       0.1653
     83  C         74.9310   33.9130   22.8660 C.2    90  ASN90       0.2266
     84  O         75.1960   34.0840   24.0510 O.2    90  ASN90      -0.2867
     85  CB        73.0990   35.3710   22.0110 C.3    90  ASN90       0.1155
     86  CG        72.5460   36.4300   21.1030 C.2    90  ASN90       0.2627
     87  OD1       73.1290   37.4990   20.9210 O.2    90  ASN90      -0.2716
     88  ND2       71.3410   36.1890   20.5970 N.am   90  ASN90      -0.0877
     89  N         74.4830   40.8810   31.7480 N.3   115  GLY115     -0.1225
     90  CA        73.8960   40.2970   30.5430 C.3   115  GLY115      0.1811
     91  C         74.2180   38.8340   30.2940 C.2   115  GLY115      0.2280
     92  O         74.0130   38.3350   29.1850 O.2   115  GLY115     -0.2866
     93  N         71.6170   33.9700   31.6850 N.3   118  PHE118     -0.1227
     94  CA        71.3010   32.6260   31.1570 C.3   118  PHE118      0.1736
     95  C         72.1120   31.5030   31.8120 C.2   118  PHE118      0.2595
     96  O         71.5580   30.4590   32.1280 O.2   118  PHE118     -0.2718
     97  CB        71.5160   32.5740   29.6260 C.3   118  PHE118      0.0547
     98  CG        71.5660   31.1660   29.0600 C.ar  118  PHE118     -0.0202
     99  CD1       70.3960   30.4410   28.8510 C.ar  118  PHE118     -0.0042
    100  CD2       72.7930   30.5460   28.7880 C.ar  118  PHE118     -0.0042
    101  CE1       70.4480   29.1230   28.3800 C.ar  118  PHE118     -0.0003
    102  CE2       72.8440   29.2260   28.3250 C.ar  118  PHE118     -0.0003
    103  CZ        71.6740   28.5250   28.1150 C.ar  118  PHE118     -0.0000
    104  N         73.4270   31.7300   32.0180 N.am  119  TYR119     -0.1976
    105  CA        74.3500   30.7400   32.5830 C.3   119  TYR119      0.1639
    106  C         74.0100   30.3660   34.0130 C.2   119  TYR119      0.2290
    107  O         74.3790   29.2810   34.4260 O.2   119  TYR119     -0.2864
    108  CB        75.8040   31.1810   32.4040 C.3   119  TYR119      0.0560
    109  CG        76.1520   31.3220   30.9340 C.ar  119  TYR119     -0.0198
    110  CD1       76.3510   30.2010   30.1360 C.ar  119  TYR119     -0.0009
    111  CD2       76.2750   32.5740   30.3420 C.ar  119  TYR119     -0.0009
    112  CE1       76.6380   30.3200   28.7750 C.ar  119  TYR119      0.0417
    113  CE2       76.5760   32.7070   28.9840 C.ar  119  TYR119      0.0417
    114  CZ        76.7330   31.5730   28.2010 C.ar  119  TYR119      0.1957
    115  OH        77.0160   31.6690   26.8640 O.3   119  TYR119     -0.2866
    116  N         68.2630   24.5840   24.1280 N.3   130  VAL130     -0.1245
    117  CA        67.5740   25.8020   23.7170 C.3   130  VAL130      0.1561
    118  C         67.0690   25.5770   22.2950 C.2   130  VAL130      0.2260
    119  O         67.8760   25.3550   21.3840 O.2   130  VAL130     -0.2867
    120  CB        68.4840   27.0580   23.8250 C.3   130  VAL130      0.0252
    121  CG1       67.7740   28.2940   23.2900 C.3   130  VAL130      0.0019
    122  CG2       68.9680   27.2890   25.2540 C.3   130  VAL130      0.0019
    123  N         70.1500   24.1800   20.2320 N.3   142  TRP142     -0.1241
    124  CA        71.4210   24.4180   20.8880 C.3   142  TRP142      0.1605
    125  C         71.3860   23.5450   22.1410 C.2   142  TRP142      0.2264
    126  O         70.3280   23.3520   22.7350 O.2   142  TRP142     -0.2867
    127  CB        71.5580   25.9060   21.2560 C.3   142  TRP142      0.0550
    128  CG        72.8050   26.2830   22.0190 C.ar  142  TRP142      0.0003
    129  CD1       73.9020   26.9220   21.5190 C.ar  142  TRP142      0.0946
    130  CD2       73.0190   26.1700   23.4430 C.ar  142  TRP142      0.0152
    131  NE1       74.7650   27.2460   22.5380 N.ar  142  TRP142     -0.2442
    132  CE2       74.2630   26.7690   23.7270 C.ar  142  TRP142      0.0810
    133  CE3       72.2520   25.6690   24.5150 C.ar  142  TRP142      0.0012
    134  CZ2       74.7800   26.8460   25.0310 C.ar  142  TRP142      0.0191
    135  CZ3       72.7800   25.7110   25.8000 C.ar  142  TRP142      0.0001
    136  CH2       74.0200   26.3120   26.0490 C.ar  142  TRP142      0.0015
    137  N         61.4760   31.0880   21.6560 N.3   164  THR164     -0.1218
    138  CA        62.5690   30.3290   22.2280 C.3   164  THR164      0.1862
    139  C         62.0510   29.4790   23.3680 C.2   164  THR164      0.2287
    140  O         61.2700   29.9370   24.1980 O.2   164  THR164     -0.2866
    141  CB        63.7090   31.2780   22.6230 C.3   164  THR164      0.1770
    142  OG1       64.1860   31.9130   21.4440 O.3   164  THR164     -0.2211
    143  CG2       64.8770   30.5720   23.3740 C.3   164  THR164      0.0375
    144  N         63.5910   27.0260   26.4720 N.3   166  VAL166     -0.1245
    145  CA        64.7470   26.6370   27.2840 C.3   166  VAL166      0.1561
    146  C         64.3020   25.4180   28.0820 C.2   166  VAL166      0.2260
    147  O         63.3600   25.4970   28.8750 O.2   166  VAL166     -0.2867
    148  CB        65.3020   27.7940   28.1660 C.3   166  VAL166      0.0252
    149  CG1       66.5010   27.3330   29.0160 C.3   166  VAL166      0.0019
    150  CG2       65.6970   28.9900   27.2910 C.3   166  VAL166      0.0019
@<TRIPOS>BOND
     1    68    67    2
     2    67    66    1
     3    60    58    1
     4    56    55    2
     5    58    57    1
     6    66    65    1
     7    66    69    1
     8    73    74    1
     9    65    63   am
    10    77    74    1
    11    77    78    1
    12    55    54    1
    13    55    61   am
    14    64    63    2
    15    63    62    1
    16    79    78    1
    17    57    54    1
    18    57    59    1
    19    69    70    1
    20    54    53    1
    21    62    61    1
    22    39    38    2
    23    74    75    1
    24    78    80    1
    25    75    76    2
    26    38    37    1
    27    70    71    1
    28   123   124    1
    29    40    37    1
    30    40    41    1
    31    37    36    1
    32    81    82    1
    33    88    86   am
    34    71    72    1
    35   124   127    1
    36   124   125    1
    37    87    86    2
    38    86    85    1
    39    41    42    1
    40    42    43    1
    41   127   128    1
    42   119   118    2
    43   142   141    1
    44   129   128   ar
    45   129   131   ar
    46   137   138    1
    47    34    33    2
    48    82    85    1
    49    82    83    1
    50   128   130   ar
    51   125   126    2
    52   138   141    1
    53   138   139    1
    54   118   117    1
    55    44    43    1
    56   131   132   ar
    57   141   143    1
    58    48    47    2
    59    83    84    2
    60    33    32    1
    61   121   120    1
    62    35    32    1
    63    32    31    1
    64   139   140    2
    65   130   132   ar
    66   130   133   ar
    67    47    46    1
    68    51    50   ar
    69   117   120    1
    70   117   116    1
    71   132   134   ar
    72   120   122    1
    73    26    25    2
    74   133   135   ar
    75    31    25   am
    76    50    52   ar
    77    50    49    1
    78    25    24    1
    79    46    45    1
    80    46    49    1
    81   134   136   ar
    82   135   136   ar
    83    20    19    2
    84    24    27    1
    85    24    23    1
    86   144   145    1
    87    27    28    1
    88    12    11    2
    89   115   114    1
    90   145   146    1
    91   145   148    1
    92   150   148    1
    93    19    18    1
    94    18    21    1
    95    18    17    1
    96    11    17   am
    97    11    10    1
    98    28    30   ar
    99    28    29   ar
   100   146   147    2
   101   103   102   ar
   102   103   101   ar
   103    22    21    1
   104   148   149    1
   105   114   112   ar
   106   114   113   ar
   107   102   100   ar
   108   101    99   ar
   109    13    10    1
   110    13    14    1
   111   112   110   ar
   112   100    98   ar
   113    10     9    1
   114    99    98   ar
   115   113   111   ar
   116    98    97    1
   117    16    14   am
   118    92    91    2
   119    14    15    2
   120    97    94    1
   121   110   109   ar
   122    91    90    1
   123   111   109   ar
   124     4     3    2
   125    90    89    1
   126   109   108    1
   127    94    93    1
   128    94    95    1
   129     8     6    1
   130     3     2    1
   131    95   104   am
   132    95    96    2
   133   104   105    1
   134     2     5    1
   135     2     1    1
   136     5     6    1
   137   108   105    1
   138     6     7    1
   139   105   106    1
   140   106   107    2
