@<TRIPOS>MOLECULE
tmp/6eybA00.pdb
 146 135 0 0 0
SMALL
GASTEIGER

@<TRIPOS>ATOM
      1  N         66.0980   33.3940   33.0870 N.3    32  LEU32      -0.1245
      2  CA        65.5460   32.8370   31.8470 C.3    32  LEU32       0.1561
      3  C         64.2600   33.5570   31.4380 C.2    32  LEU32       0.2260
      4  O         64.0460   33.8310   30.2550 O.2    32  LEU32      -0.2867
      5  CB        65.3450   31.3170   31.9870 C.3    32  LEU32       0.0270
      6  CG        66.6370   30.5030   32.2360 C.3    32  LEU32       0.0019
      7  CD1       66.2980   29.0670   32.4670 C.3    32  LEU32       0.0001
      8  CD2       67.5990   30.5950   31.0050 C.3    32  LEU32       0.0001
      9  N         65.2380   36.8640   29.9260 N.3    35  ASN35      -0.1225
     10  CA        65.6940   36.6880   28.5380 C.3    35  ASN35       0.1785
     11  C         64.5050   36.5280   27.5980 C.2    35  ASN35       0.2597
     12  O         64.5090   37.1140   26.5290 O.2    35  ASN35      -0.2718
     13  CB        66.6470   35.4840   28.4130 C.3    35  ASN35       0.1169
     14  CG        68.0280   35.7390   28.9500 C.2    35  ASN35       0.2627
     15  OD1       68.3820   36.8660   29.2760 O.2    35  ASN35      -0.2716
     16  ND2       68.8550   34.7080   29.0110 N.am   35  ASN35      -0.0877
     17  N         63.4930   35.7280   27.9920 N.am   36  SER36      -0.1952
     18  CA        62.2670   35.5060   27.2140 C.3    36  SER36       0.1924
     19  C         61.5310   36.8470   27.0260 C.2    36  SER36       0.2314
     20  O         61.1340   37.1880   25.9070 O.2    36  SER36      -0.2863
     21  CB        61.3580   34.5000   27.9250 C.3    36  SER36       0.2116
     22  OG        61.8930   33.1870   27.8160 O.3    36  SER36      -0.2180
     23  N         62.8310   39.9200   27.0590 N.3    38  ASP38      -0.1225
     24  CA        63.6170   40.7760   26.1390 C.3    38  ASP38       0.1805
     25  C         63.3480   40.3970   24.6770 C.2    38  ASP38       0.2597
     26  O         63.1590   41.2730   23.8540 O.2    38  ASP38      -0.2718
     27  CB        65.1340   40.6750   26.4490 C.3    38  ASP38       0.1424
     28  CG        65.5370   41.2220   27.8080 C.2    38  ASP38       0.3668
     29  OD1       64.7360   41.9390   28.4160 O.co2  38  ASP38      -0.2456
     30  OD2       66.6720   40.9590   28.2400 O.co2  38  ASP38      -0.2456
     31  N         63.2960   39.0870   24.3690 N.am   39  ALA39      -0.1979
     32  CA        63.0300   38.5800   23.0080 C.3    39  ALA39       0.1597
     33  C         61.5860   38.8860   22.5620 C.2    39  ALA39       0.2287
     34  O         61.3260   39.0890   21.3770 O.2    39  ALA39      -0.2864
     35  CB        63.2910   37.0850   22.9660 C.3    39  ALA39       0.0319
     36  N         61.5990   42.4440   21.6330 N.3    42  LYS42      -0.1245
     37  CA        62.2330   42.5690   20.3100 C.3    42  LYS42       0.1561
     38  C         61.2460   42.3280   19.1640 C.2    42  LYS42       0.2260
     39  O         61.1760   43.1530   18.2410 O.2    42  LYS42      -0.2867
     40  CB        63.4780   41.6670   20.1990 C.3    42  LYS42       0.0271
     41  CG        64.6780   42.1960   20.9750 C.3    42  LYS42       0.0035
     42  CD        65.8900   41.2790   20.8480 C.3    42  LYS42       0.0206
     43  CE        66.9670   41.6300   21.8490 C.3    42  LYS42       0.1093
     44  NZ        68.1610   40.7550   21.7060 N.3    42  LYS42      -0.1314
     45  N         58.9540   30.6630   24.9870 N.3    77  ASP77      -0.1239
     46  CA        58.4910   32.0190   24.6720 C.3    77  ASP77       0.1674
     47  C         58.1980   32.0960   23.1810 C.2    77  ASP77       0.2266
     48  O         58.7420   31.3120   22.4150 O.2    77  ASP77      -0.2867
     49  CB        59.4920   33.1180   25.0980 C.3    77  ASP77       0.1410
     50  CG        60.7940   33.1830   24.3130 C.2    77  ASP77       0.3668
     51  OD1       60.7480   33.4740   23.0960 O.co2  77  ASP77      -0.2456
     52  OD2       61.8540   32.9800   24.9200 O.co2  77  ASP77      -0.2456
     53  N         61.2830   36.8650   19.4280 N.3    80  ILE80      -0.1231
     54  CA        61.8620   37.0190   18.0830 C.3    80  ILE80       0.1692
     55  C         62.5950   35.7500   17.5880 C.2    80  ILE80       0.2593
     56  O         62.6550   35.5240   16.3790 O.2    80  ILE80      -0.2718
     57  CB        62.7380   38.3020   17.9680 C.3    80  ILE80       0.0266
     58  CG1       62.9810   38.7010   16.4740 C.3    80  ILE80       0.0019
     59  CG2       64.0440   38.2070   18.7750 C.3    80  ILE80       0.0020
     60  CD1       63.4070   40.1210   16.2580 C.3    80  ILE80       0.0001
     61  N         63.1320   34.9520   18.5040 N.am   81  GLY81      -0.1942
     62  CA        63.8650   33.7470   18.1340 C.3    81  GLY81       0.2014
     63  C         65.2700   34.0910   17.6920 C.2    81  GLY81       0.2638
     64  O         65.6070   35.2710   17.5220 O.2    81  GLY81      -0.2714
     65  N         66.1060   33.0660   17.5200 N.am   82  MET82      -0.1976
     66  CA        67.4960   33.2780   17.1190 C.3    82  MET82       0.1605
     67  C         67.8400   32.6120   15.8010 C.2    82  MET82       0.2287
     68  O         67.3760   31.5020   15.5290 O.2    82  MET82      -0.2864
     69  CB        68.4390   32.7510   18.2070 C.3    82  MET82       0.0413
     70  CG        68.4730   33.6240   19.4290 C.3    82  MET82       0.0598
     71  SD        69.4100   32.9650   20.7990 S.3    82  MET82      -0.1393
     72  CE        68.2420   31.6770   21.4330 C.3    82  MET82       0.0692
     73  N         73.2490   33.7980   15.6590 N.3    86  ASP86      -0.1225
     74  CA        73.0530   34.1880   17.0730 C.3    86  ASP86       0.1805
     75  C         73.5150   33.1130   18.0460 C.2    86  ASP86       0.2597
     76  O         74.0870   33.4320   19.0930 O.2    86  ASP86      -0.2718
     77  CB        71.5870   34.5000   17.3510 C.3    86  ASP86       0.1424
     78  CG        71.1090   35.8120   16.7900 C.2    86  ASP86       0.3668
     79  OD1       71.8600   36.8140   16.9010 O.co2  86  ASP86      -0.2456
     80  OD2       69.9710   35.8520   16.2700 O.co2  86  ASP86      -0.2456
     81  N         73.2460   31.8360   17.7100 N.am   87  LEU87      -0.1979
     82  CA        73.6270   30.6890   18.5350 C.3    87  LEU87       0.1596
     83  C         75.1240   30.3720   18.4730 C.2    87  LEU87       0.2287
     84  O         75.7070   30.0200   19.4940 O.2    87  LEU87      -0.2864
     85  CB        72.8450   29.4180   18.1050 C.3    87  LEU87       0.0297
     86  CG        71.3310   29.4260   18.1880 C.3    87  LEU87       0.0022
     87  CD1       70.7770   28.2140   17.4650 C.3    87  LEU87       0.0001
     88  CD2       70.8300   29.4290   19.6630 C.3    87  LEU87       0.0001
     89  N         76.0430   35.9440   19.9680 N.3    91  LEU91      -0.1245
     90  CA        75.7410   36.1940   21.3720 C.3    91  LEU91       0.1561
     91  C         76.8860   35.8020   22.3100 C.2    91  LEU91       0.2260
     92  O         77.0070   36.3900   23.3860 O.2    91  LEU91      -0.2867
     93  CB        74.4060   35.5590   21.7710 C.3    91  LEU91       0.0270
     94  CG        73.1810   36.1960   21.0680 C.3    91  LEU91       0.0019
     95  CD1       71.9640   35.3560   21.2500 C.3    91  LEU91       0.0001
     96  CD2       72.9060   37.6210   21.5710 C.3    91  LEU91       0.0001
     97  N         74.5440   40.7350   31.7470 N.3   119  GLY119     -0.1225
     98  CA        73.9670   40.1790   30.5210 C.3   119  GLY119      0.1811
     99  C         74.3320   38.7330   30.2400 C.2   119  GLY119      0.2280
    100  O         74.2960   38.2990   29.0950 O.2   119  GLY119     -0.2866
    101  N         71.7700   33.7820   31.5210 N.3   122  PHE122     -0.1241
    102  CA        71.4430   32.4420   31.0000 C.3   122  PHE122      0.1605
    103  C         72.2600   31.3340   31.6720 C.2   122  PHE122      0.2264
    104  O         71.7210   30.2770   31.9680 O.2   122  PHE122     -0.2867
    105  CB        71.6490   32.3670   29.4730 C.3   122  PHE122      0.0534
    106  CG        71.7420   30.9480   28.9440 C.ar  122  PHE122     -0.0203
    107  CD1       70.5990   30.1700   28.7840 C.ar  122  PHE122     -0.0042
    108  CD2       72.9800   30.3760   28.6510 C.ar  122  PHE122     -0.0042
    109  CE1       70.6920   28.8380   28.3490 C.ar  122  PHE122     -0.0003
    110  CE2       73.0690   29.0500   28.1890 C.ar  122  PHE122     -0.0003
    111  CZ        71.9260   28.2960   28.0330 C.ar  122  PHE122     -0.0000
    112  N         68.3620   24.2180   23.7920 N.3   134  VAL134     -0.1245
    113  CA        67.6620   25.4460   23.3840 C.3   134  VAL134      0.1561
    114  C         67.1840   25.2640   21.9450 C.2   134  VAL134      0.2260
    115  O         68.0050   25.1420   21.0240 O.2   134  VAL134     -0.2867
    116  CB        68.4940   26.7510   23.5590 C.3   134  VAL134      0.0252
    117  CG1       67.7000   27.9710   23.0890 C.3   134  VAL134      0.0019
    118  CG2       68.9400   26.9450   25.0080 C.3   134  VAL134      0.0019
    119  N         70.3470   24.0860   19.9000 N.3   146  TRP146     -0.1241
    120  CA        71.6210   24.3650   20.5580 C.3   146  TRP146      0.1605
    121  C         71.5770   23.4740   21.7870 C.2   146  TRP146      0.2264
    122  O         70.5130   23.3140   22.3930 O.2   146  TRP146     -0.2867
    123  CB        71.7010   25.8610   20.9810 C.3   146  TRP146      0.0550
    124  CG        72.9140   26.2700   21.7890 C.ar  146  TRP146      0.0003
    125  CD1       73.9970   26.9560   21.3260 C.ar  146  TRP146      0.0946
    126  CD2       73.1120   26.1250   23.2160 C.ar  146  TRP146      0.0152
    127  NE1       74.8540   27.2500   22.3650 N.ar  146  TRP146     -0.2442
    128  CE2       74.3380   26.7440   23.5340 C.ar  146  TRP146      0.0810
    129  CE3       72.3540   25.5550   24.2640 C.ar  146  TRP146      0.0012
    130  CZ2       74.8600   26.7530   24.8370 C.ar  146  TRP146      0.0191
    131  CZ3       72.8890   25.5310   25.5480 C.ar  146  TRP146      0.0001
    132  CH2       74.1030   26.1670   25.8330 C.ar  146  TRP146      0.0015
    133  N         61.6410   30.7870   21.2240 N.3   168  THR168     -0.1218
    134  CA        62.7240   30.0450   21.8630 C.3   168  THR168      0.1862
    135  C         62.1790   29.1460   22.9620 C.2   168  THR168      0.2287
    136  O         61.3270   29.5520   23.7450 O.2   168  THR168     -0.2866
    137  CB        63.7690   31.0520   22.3900 C.3   168  THR168      0.1770
    138  OG1       64.2210   31.8500   21.2890 O.3   168  THR168     -0.2211
    139  CG2       64.9570   30.3850   23.1000 C.3   168  THR168      0.0375
    140  N         63.7180   26.6920   26.0910 N.3   170  VAL170     -0.1245
    141  CA        64.8780   26.3130   26.9000 C.3   170  VAL170      0.1561
    142  C         64.4590   25.1070   27.6950 C.2   170  VAL170      0.2260
    143  O         63.5800   25.2070   28.5430 O.2   170  VAL170     -0.2867
    144  CB        65.4180   27.4620   27.8030 C.3   170  VAL170      0.0252
    145  CG1       66.5990   26.9880   28.6800 C.3   170  VAL170      0.0019
    146  CG2       65.8330   28.6730   26.9620 C.3   170  VAL170      0.0019
@<TRIPOS>BOND
     1    68    67    2
     2    73    74    1
     3    67    66    1
     4    60    58    1
     5    80    78   ar
     6    56    55    2
     7    58    57    1
     8    78    79   ar
     9    78    77    1
    10    74    77    1
    11    74    75    1
    12    66    65    1
    13    66    69    1
    14    87    86    1
    15    65    63   am
    16    64    63    2
    17    55    54    1
    18    55    61   am
    19    63    62    1
    20    81    75   am
    21    81    82    1
    22    57    54    1
    23    57    59    1
    24    75    76    2
    25    54    53    1
    26    85    86    1
    27    85    82    1
    28    62    61    1
    29    86    88    1
    30    69    70    1
    31    39    38    2
    32    83    82    1
    33    83    84    2
    34    38    37    1
    35    70    71    1
    36   119   120    1
    37    89    90    1
    38    40    37    1
    39    40    41    1
    40    37    36    1
    41   120   123    1
    42   120   121    1
    43    71    72    1
    44    42    41    1
    45    42    43    1
    46   123   124    1
    47   115   114    2
    48    94    95    1
    49    94    96    1
    50    94    93    1
    51   133   134    1
    52   138   137    1
    53   125   124   ar
    54   125   127   ar
    55    90    93    1
    56    90    91    1
    57    34    33    2
    58    44    43    1
    59   121   122    2
    60   124   126   ar
    61   134   137    1
    62   134   135    1
    63   114   113    1
    64    91    92    2
    65   127   128   ar
    66   137   139    1
    67    48    47    2
    68    33    32    1
    69   135   136    2
    70    35    32    1
    71    32    31    1
    72   117   116    1
    73    51    50   ar
    74    47    46    1
    75   126   128   ar
    76   126   129   ar
    77   113   116    1
    78   113   112    1
    79   128   130   ar
    80   116   118    1
    81    26    25    2
    82   129   131   ar
    83    50    52   ar
    84    50    49    1
    85    31    25   am
    86    46    45    1
    87    46    49    1
    88    25    24    1
    89   130   132   ar
    90   131   132   ar
    91    20    19    2
    92   140   141    1
    93    24    27    1
    94    24    23    1
    95    27    28    1
    96    12    11    2
    97   141   142    1
    98   141   144    1
    99   146   144    1
   100    19    18    1
   101    18    21    1
   102    18    17    1
   103    11    17   am
   104    11    10    1
   105   142   143    2
   106   144   145    1
   107    28    30   ar
   108    28    29   ar
   109    22    21    1
   110   111   110   ar
   111   111   109   ar
   112   110   108   ar
   113   109   107   ar
   114    13    10    1
   115    13    14    1
   116    10     9    1
   117   108   106   ar
   118   107   106   ar
   119   106   105    1
   120    14    16   am
   121    14    15    2
   122   100    99    2
   123   105   102    1
   124    99    98    1
   125     4     3    2
   126    98    97    1
   127   102   101    1
   128   102   103    1
   129     8     6    1
   130     3     2    1
   131   103   104    2
   132     2     5    1
   133     2     1    1
   134     5     6    1
   135     6     7    1
