@<TRIPOS>MOLECULE
tmp/6eycA00.pdb
 145 140 0 0 0
SMALL
GASTEIGER

@<TRIPOS>ATOM
      1  N        223.8170  267.3220  156.6530 N.3   292  SER292     -0.1202
      2  CA       222.4680  267.7480  156.3130 C.3   292  SER292      0.2020
      3  C        222.2630  269.2500  156.4280 C.2   292  SER292      0.2619
      4  O        221.2270  269.7430  155.9690 O.2   292  SER292     -0.2717
      5  CB       221.4520  267.0430  157.2130 C.3   292  SER292      0.2103
      6  OG       220.1350  267.4790  156.9290 O.3   292  SER292     -0.2182
      7  N        223.1970  269.9840  157.0370 N.am  293  ILE293     -0.1965
      8  CA       223.0680  271.4230  157.2110 C.3   293  ILE293      0.1727
      9  C        224.4110  272.0730  156.9190 C.2   293  ILE293      0.2616
     10  O        225.4570  271.4210  156.9110 O.2   293  ILE293     -0.2715
     11  CB       222.6160  271.7850  158.6430 C.3   293  ILE293      0.0290
     12  CG1      223.5820  271.1880  159.6840 C.3   293  ILE293      0.0022
     13  CG2      221.2310  271.2800  158.8930 C.3   293  ILE293      0.0023
     14  CD1      223.2710  271.5660  161.0960 C.3   293  ILE293      0.0001
     15  N        224.3760  273.3890  156.7110 N.am  294  TYR294     -0.1960
     16  CA       225.6130  274.1520  156.7120 C.3   294  TYR294      0.1771
     17  C        226.0870  274.3350  158.1400 C.2   294  TYR294      0.2620
     18  O        227.2470  274.0690  158.4740 O.2   294  TYR294     -0.2715
     19  CB       225.3750  275.5050  156.0470 C.3   294  TYR294      0.0574
     20  CG       226.6010  276.3740  155.8990 C.ar  294  TYR294     -0.0198
     21  CD1      227.4410  276.2570  154.8020 C.ar  294  TYR294     -0.0009
     22  CD2      226.9270  277.3000  156.8730 C.ar  294  TYR294     -0.0009
     23  CE1      228.5570  277.0630  154.6750 C.ar  294  TYR294      0.0417
     24  CE2      228.0350  278.1030  156.7640 C.ar  294  TYR294      0.0417
     25  CZ       228.8510  277.9820  155.6650 C.ar  294  TYR294      0.1957
     26  OH       229.9590  278.7900  155.5660 O.3   294  TYR294     -0.2866
     27  N        225.1740  274.7790  158.9900 N.am  295  GLY295     -0.1954
     28  CA       225.3950  274.8870  160.4190 C.3   295  GLY295      0.1869
     29  C        226.5300  275.8250  160.7530 C.2   295  GLY295      0.2309
     30  O        226.6600  276.9280  160.2090 O.2   295  GLY295     -0.2863
     31  N        214.5080  277.2090  170.3100 N.3   333  PRO333     -0.2102
     32  CA       213.9820  275.8930  169.8930 C.3   333  PRO333      0.1504
     33  C        214.0500  275.6120  168.4000 C.2   333  PRO333      0.2576
     34  O        214.1590  274.4470  167.9990 O.2   333  PRO333     -0.2718
     35  CB       212.5300  275.9270  170.3880 C.3   333  PRO333      0.0282
     36  CG       212.1870  277.3580  170.4510 C.3   333  PRO333      0.0208
     37  CD       213.4370  278.0690  170.8430 C.3   333  PRO333      0.0893
     38  N        213.9820  276.6440  167.5630 N.am  334  GLY334     -0.1943
     39  CA       214.0670  276.4540  166.1260 C.3   334  GLY334      0.2014
     40  C        215.4190  276.0290  165.5940 C.2   334  GLY334      0.2640
     41  O        215.4920  275.5360  164.4640 O.2   334  GLY334     -0.2714
     42  N        216.4840  276.2010  166.3650 N.am  335  THR335     -0.1936
     43  CA       217.7890  275.7070  165.9490 C.3   335  THR335      0.2028
     44  C        217.9260  274.2110  166.1750 C.2   335  THR335      0.2642
     45  O        217.4450  273.6650  167.1710 O.2   335  THR335     -0.2714
     46  CB       218.9130  276.4320  166.6790 C.3   335  THR335      0.1808
     47  OG1      218.6690  276.4070  168.0900 O.3   335  THR335     -0.2208
     48  CG2      219.0580  277.8530  166.1690 C.3   335  THR335      0.0379
     49  N        218.5700  273.5520  165.2160 N.am  336  ALA336     -0.1963
     50  CA       218.7310  272.1070  165.2010 C.3   336  ALA336      0.1728
     51  C        219.5300  271.6500  166.4120 C.2   336  ALA336      0.2616
     52  O        220.6940  272.0270  166.5650 O.2   336  ALA336     -0.2715
     53  CB       219.4270  271.6640  163.9220 C.3   336  ALA336      0.0334
     54  N        218.8910  270.8950  167.3030 N.am  337  LYS337     -0.1963
     55  CA       219.5300  270.3860  168.5090 C.3   337  LYS337      0.1728
     56  C        219.2820  268.9080  168.7540 C.2   337  LYS337      0.2617
     57  O        220.0660  268.2870  169.4820 O.2   337  LYS337     -0.2715
     58  CB       219.0700  271.1880  169.7310 C.3   337  LYS337      0.0311
     59  CG       219.5660  272.6150  169.7050 C.3   337  LYS337      0.0038
     60  CD       219.1770  273.4050  170.9430 C.3   337  LYS337      0.0206
     61  CE       217.7150  273.7860  170.9690 C.3   337  LYS337      0.1093
     62  NZ       217.3550  274.7670  169.9090 N.3   337  LYS337     -0.1314
     63  N        218.2260  268.3310  168.1920 N.am  338  SER338     -0.1936
     64  CA       217.9820  266.8940  168.1950 C.3   338  SER338      0.2055
     65  C        218.5780  266.1800  166.9850 C.2   338  SER338      0.2642
     66  O        219.1210  265.0780  167.1190 O.2   338  SER338     -0.2714
     67  CB       216.4780  266.6280  168.2490 C.3   338  SER338      0.2130
     68  OG       216.2040  265.2380  168.2090 O.3   338  SER338     -0.2179
     69  N        218.4840  266.7950  165.8080 N.am  339  GLN339     -0.1976
     70  CA       218.9490  266.1620  164.5770 C.3   339  GLN339      0.1601
     71  C        220.4510  265.8950  164.5760 C.2   339  GLN339      0.2287
     72  O        220.8990  264.8840  164.0250 O.2   339  GLN339     -0.2864
     73  CB       218.5710  267.0470  163.3850 C.3   339  GLN339      0.0394
     74  CG       218.9430  266.5040  162.0040 C.3   339  GLN339      0.0908
     75  CD       218.2140  265.2290  161.6520 C.2   339  GLN339      0.2608
     76  OE1      218.7670  264.1350  161.7460 O.2   339  GLN339     -0.2717
     77  NE2      216.9720  265.3660  161.2170 N.am  339  GLN339     -0.0878
     78  N        221.0540  262.9380  166.6170 N.3   342  LYS342     -0.1245
     79  CA       220.4630  261.8210  165.8850 C.3   342  LYS342      0.1561
     80  C        221.4400  261.2300  164.8730 C.2   342  LYS342      0.2260
     81  O        221.4420  260.0180  164.6340 O.2   342  LYS342     -0.2867
     82  CB       219.1790  262.2730  165.1980 C.3   342  LYS342      0.0271
     83  CG       218.3830  261.1440  164.5660 C.3   342  LYS342      0.0035
     84  CD       217.1430  261.6520  163.8560 C.3   342  LYS342      0.0206
     85  CE       216.0550  262.0330  164.8400 C.3   342  LYS342      0.1093
     86  NZ       214.8020  262.4110  164.1420 N.3   342  LYS342     -0.1314
     87  N        215.8510  267.1790  175.3860 N.3   396  GLU396     -0.1245
     88  CA       215.0560  267.9850  176.3110 C.3   396  GLU396      0.1567
     89  C        215.5080  267.7790  177.7540 C.2   396  GLU396      0.2260
     90  O        214.7560  267.3310  178.6210 O.2   396  GLU396     -0.2867
     91  CB       213.5610  267.6980  176.1510 C.3   396  GLU396      0.0388
     92  CG       212.9740  268.2030  174.8450 C.3   396  GLU396      0.1160
     93  CD       213.0220  267.1960  173.7060 C.2   396  GLU396      0.3649
     94  OE1      213.4540  266.0440  173.9150 O.co2 396  GLU396     -0.2457
     95  OE2      212.6130  267.5650  172.5840 O.co2 396  GLU396     -0.2457
     96  N        220.8810  268.0420  175.0720 N.3   437  ALA437     -0.1245
     97  CA       220.1620  269.1070  174.3890 C.3   437  ALA437      0.1562
     98  C        219.1440  269.7220  175.3410 C.2   437  ALA437      0.2260
     99  O        218.4310  269.0070  176.0520 O.2   437  ALA437     -0.2867
    100  CB       219.4620  268.5720  173.1440 C.3   437  ALA437      0.0290
    101  N        216.6250  273.6180  176.1100 N.3   439  ASN439     -0.1240
    102  CA       215.9530  274.7770  175.5390 C.3   439  ASN439      0.1653
    103  C        215.8810  275.9210  176.5460 C.2   439  ASN439      0.2266
    104  O        215.5870  275.6800  177.7220 O.2   439  ASN439     -0.2867
    105  CB       214.5310  274.4210  175.1030 C.3   439  ASN439      0.1155
    106  CG       214.5000  273.4760  173.9260 C.2   439  ASN439      0.2627
    107  OD1      215.2920  273.5980  172.9940 O.2   439  ASN439     -0.2716
    108  ND2      213.5700  272.5330  173.9540 N.am  439  ASN439     -0.0877
    109  N        222.1110  281.4380  152.8140 N.3   482  ARG482     -0.1231
    110  CA       222.6360  280.0790  152.8890 C.3   482  ARG482      0.1694
    111  C        221.5400  279.0930  153.2830 C.2   482  ARG482      0.2591
    112  O        221.2070  278.1780  152.5240 O.2   482  ARG482     -0.2718
    113  CB       223.8580  280.0170  153.8190 C.3   482  ARG482      0.0321
    114  CG       223.6560  280.3720  155.2730 C.3   482  ARG482      0.0489
    115  CD       224.9560  280.3300  156.0340 C.3   482  ARG482      0.2205
    116  NE       224.7390  280.5700  157.4600 N.pl3 482  ARG482     -0.0865
    117  CZ       224.4030  279.6380  158.3520 C.cat 482  ARG482      0.5346
    118  NH1      224.2190  278.3690  157.9990 N.pl3 482  ARG482      0.1354
    119  NH2      224.2350  279.9800  159.6210 N.pl3 482  ARG482      0.1354
    120  N        220.9260  279.3220  154.4460 N.am  483  LEU483     -0.1980
    121  CA       220.1550  278.2950  155.1380 C.3   483  LEU483      0.1596
    122  C        218.9430  277.8740  154.3250 C.2   483  LEU483      0.2287
    123  O        218.7010  276.6790  154.1190 O.2   483  LEU483     -0.2864
    124  CB       219.7330  278.8310  156.5040 C.3   483  LEU483      0.0297
    125  CG       219.1040  277.8660  157.4990 C.3   483  LEU483      0.0022
    126  CD1      219.4120  278.3580  158.8880 C.3   483  LEU483      0.0001
    127  CD2      217.6060  277.7400  157.3290 C.3   483  LEU483      0.0001
    128  N        220.1020  275.5680  151.6090 N.3   486  PHE486     -0.1227
    129  CA       220.3420  274.1920  152.0290 C.3   486  PHE486      0.1736
    130  C        219.0640  273.4780  152.4370 C.2   486  PHE486      0.2595
    131  O        218.9340  272.2690  152.2180 O.2   486  PHE486     -0.2718
    132  CB       221.3290  274.1680  153.1930 C.3   486  PHE486      0.0547
    133  CG       222.7140  274.5780  152.8150 C.ar  486  PHE486     -0.0202
    134  CD1      223.6090  273.6580  152.3030 C.ar  486  PHE486     -0.0042
    135  CD2      223.1120  275.8920  152.9440 C.ar  486  PHE486     -0.0042
    136  CE1      224.8880  274.0430  151.9440 C.ar  486  PHE486     -0.0003
    137  CE2      224.3830  276.2890  152.5830 C.ar  486  PHE486     -0.0003
    138  CZ       225.2750  275.3630  152.0840 C.ar  486  PHE486     -0.0000
    139  N        218.1080  274.2070  153.0050 N.am  487  VAL487     -0.1980
    140  CA       216.8040  273.6310  153.3180 C.3   487  VAL487      0.1595
    141  C        216.0090  273.3020  152.0620 C.2   487  VAL487      0.2287
    142  O        215.5580  272.1670  151.8720 O.2   487  VAL487     -0.2864
    143  CB       216.0190  274.5920  154.2290 C.3   487  VAL487      0.0276
    144  CG1      214.5720  274.1650  154.3390 C.3   487  VAL487      0.0022
    145  CG2      216.6470  274.6580  155.6040 C.3   487  VAL487      0.0022
@<TRIPOS>BOND
     1   128   129    1
     2   142   141    2
     3   136   138   ar
     4   136   134   ar
     5   129   130    1
     6   129   132    1
     7   141   140    1
     8   138   137   ar
     9   131   130    2
    10   134   133   ar
    11   130   139   am
    12   112   111    2
    13   137   135   ar
    14   109   110    1
    15   133   135   ar
    16   133   132    1
    17   110   111    1
    18   110   113    1
    19   139   140    1
    20   111   120   am
    21   140   143    1
    22   113   114    1
    23   123   122    2
    24   143   144    1
    25   143   145    1
    26   122   121    1
    27   120   121    1
    28    23    21   ar
    29    23    25   ar
    30    21    20   ar
    31   121   124    1
    32   114   115    1
    33    26    25    1
    34    25    24   ar
    35    20    19    1
    36    20    22   ar
    37     4     3    2
    38   115   116    1
    39    19    16    1
    40     2     3    1
    41     2     1    1
    42     2     5    1
    43     3     7   am
    44   124   125    1
    45    15    16    1
    46    15     9   am
    47    16    17    1
    48    24    22   ar
    49    10     9    2
    50     9     8    1
    51     6     5    1
    52     7     8    1
    53     8    11    1
    54   127   125    1
    55   116   117    2
    56   125   126    1
    57   118   117    1
    58    17    18    2
    59    17    27   am
    60   117   119    1
    61    11    13    1
    62    11    12    1
    63    27    28    1
    64    12    14    1
    65    30    29    2
    66    28    29    1
    67    77    75   am
    68    75    76    2
    69    75    74    1
    70    74    73    1
    71    73    70    1
    72    84    83    1
    73    84    85    1
    74    53    50    1
    75    72    71    2
    76    86    85    1
    77    41    40    2
    78    83    82    1
    79    71    70    1
    80    70    69    1
    81    81    80    2
    82    80    79    1
    83    82    79    1
    84    50    49    1
    85    50    51    1
    86    49    44   am
    87    40    39    1
    88    40    42   am
    89    69    65   am
    90    79    78    1
    91    43    44    1
    92    43    42    1
    93    43    46    1
    94    39    38    1
    95    48    46    1
    96    44    45    2
    97    51    52    2
    98    51    54   am
    99    46    47    1
   100    65    66    2
   101    65    64    1
   102    54    55    1
   103    38    33   am
   104    34    33    2
   105    63    64    1
   106    63    56   am
   107    64    67    1
   108    68    67    1
   109    33    32    1
   110    55    56    1
   111    55    58    1
   112    56    57    2
   113    59    58    1
   114    59    60    1
   115    32    31    1
   116    32    35    1
   117    62    61    1
   118    31    37    1
   119    35    36    1
   120    36    37    1
   121    60    61    1
   122    95    93   ar
   123   107   106    2
   124   100    97    1
   125    93    94   ar
   126    93    92    1
   127   106   108   am
   128   106   105    1
   129    97    96    1
   130    97    98    1
   131    92    91    1
   132   105   102    1
   133    98    99    2
   134    87    88    1
   135   102   101    1
   136   102   103    1
   137    91    88    1
   138    88    89    1
   139   103   104    2
   140    89    90    2
