@<TRIPOS>MOLECULE
tmp/6eycE01.pdb
 133 129 0 0 0
SMALL
GASTEIGER

@<TRIPOS>ATOM
      1  N        177.6640  276.2030  155.6980 N.3   312  ALA312     -0.1231
      2  CA       176.8140  276.8660  156.6790 C.3   312  ALA312      0.1694
      3  C        177.5400  277.8610  157.5670 C.2   312  ALA312      0.2592
      4  O        176.8780  278.6760  158.2160 O.2   312  ALA312     -0.2718
      5  CB       176.1450  275.8190  157.5660 C.3   312  ALA312      0.0304
      6  N        178.8550  277.8260  157.6210 N.am  313  VAL313     -0.1966
      7  CA       179.5820  278.7350  158.4940 C.3   313  VAL313      0.1727
      8  C        179.6120  280.1070  157.8390 C.2   313  VAL313      0.2616
      9  O        179.7530  280.2200  156.6160 O.2   313  VAL313     -0.2715
     10  CB       180.9950  278.2120  158.7860 C.3   313  VAL313      0.0290
     11  CG1      181.7430  279.2180  159.6430 C.3   313  VAL313      0.0023
     12  CG2      180.9140  276.8570  159.4720 C.3   313  VAL313      0.0023
     13  N        179.4830  281.1560  158.6470 N.am  314  PHE314     -0.1974
     14  CA       179.3430  282.5130  158.1400 C.3   314  PHE314      0.1639
     15  C        180.6530  283.2640  158.3280 C.2   314  PHE314      0.2290
     16  O        181.1990  283.3140  159.4360 O.2   314  PHE314     -0.2864
     17  CB       178.2050  283.2310  158.8610 C.3   314  PHE314      0.0560
     18  CG       177.9690  284.6270  158.3870 C.ar  314  PHE314     -0.0200
     19  CD1      177.2890  284.8690  157.2110 C.ar  314  PHE314     -0.0042
     20  CD2      178.4240  285.7010  159.1250 C.ar  314  PHE314     -0.0042
     21  CE1      177.0690  286.1590  156.7810 C.ar  314  PHE314     -0.0003
     22  CE2      178.2080  286.9900  158.6990 C.ar  314  PHE314     -0.0003
     23  CZ       177.5310  287.2210  157.5270 C.ar  314  PHE314     -0.0000
     24  N        184.6210  283.6460  157.9850 N.3   316  HIS316     -0.1241
     25  CA       185.6890  282.7110  158.3530 C.3   316  HIS316      0.1621
     26  C        186.2730  282.0040  157.1300 C.2   316  HIS316      0.2264
     27  O        186.5290  280.7990  157.1450 O.2   316  HIS316     -0.2867
     28  CB       185.1950  281.7160  159.4000 C.3   316  HIS316      0.0745
     29  CG       184.8120  282.3710  160.6880 C.ar  316  HIS316      0.0817
     30  ND1      185.7450  282.8870  161.5590 N.ar  316  HIS316     -0.2268
     31  CD2      183.6030  282.6230  161.2400 C.ar  316  HIS316      0.1154
     32  CE1      185.1280  283.4200  162.5970 C.ar  316  HIS316      0.1986
     33  NE2      183.8280  283.2720  162.4290 N.ar  316  HIS316     -0.2212
     34  N        184.5910  281.0720  173.1430 N.3   353  PRO353     -0.2102
     35  CA       183.4140  280.2230  172.9240 C.3   353  PRO353      0.1504
     36  C        182.2450  280.9420  172.2660 C.2   353  PRO353      0.2576
     37  O        182.1810  282.1690  172.1840 O.2   353  PRO353     -0.2718
     38  CB       183.0550  279.7470  174.3340 C.3   353  PRO353      0.0282
     39  CG       184.3390  279.7510  175.0290 C.3   353  PRO353      0.0208
     40  CD       185.0330  280.9720  174.5470 C.3   353  PRO353      0.0893
     41  N        181.3080  280.1250  171.7950 N.am  354  SER354     -0.1938
     42  CA       180.2200  280.4550  170.8790 C.3   354  SER354      0.2055
     43  C        180.6660  280.9230  169.5010 C.2   354  SER354      0.2644
     44  O        179.8270  281.3690  168.7090 O.2   354  SER354     -0.2714
     45  CB       179.3150  281.5250  171.4950 C.3   354  SER354      0.2130
     46  OG       180.0040  282.7550  171.6260 O.3   354  SER354     -0.2179
     47  N        181.9500  280.8500  169.1790 N.am  355  THR355     -0.1936
     48  CA       182.3630  280.6630  167.7980 C.3   355  THR355      0.2028
     49  C        181.8810  279.3100  167.2940 C.2   355  THR355      0.2643
     50  O        181.9190  278.3130  168.0180 O.2   355  THR355     -0.2714
     51  CB       183.8730  280.7880  167.6570 C.3   355  THR355      0.1808
     52  OG1      184.5220  279.8590  168.5330 O.3   355  THR355     -0.2208
     53  CG2      184.3040  282.2120  167.9650 C.3   355  THR355      0.0379
     54  N        181.4930  279.2610  166.0360 N.am  356  SER356     -0.1935
     55  CA       181.1100  278.0170  165.3630 C.3   356  SER356      0.2055
     56  C        182.3070  277.0880  165.0380 C.2   356  SER356      0.2643
     57  O        182.1210  276.1840  164.2230 O.2   356  SER356     -0.2714
     58  CB       180.3280  278.3310  164.0930 C.3   356  SER356      0.2130
     59  OG       181.1050  279.0650  163.1700 O.3   356  SER356     -0.2179
     60  N        183.4840  277.3060  165.6350 N.am  357  LYS357     -0.1963
     61  CA       184.6720  276.5060  165.3620 C.3   357  LYS357      0.1728
     62  C        184.4220  275.0150  165.5330 C.2   357  LYS357      0.2617
     63  O        185.0460  274.1960  164.8500 O.2   357  LYS357     -0.2715
     64  CB       185.7940  276.9510  166.2970 C.3   357  LYS357      0.0311
     65  CG       185.4830  276.7550  167.7690 C.3   357  LYS357      0.0038
     66  CD       186.5600  277.3370  168.6410 C.3   357  LYS357      0.0206
     67  CE       186.2300  277.1600  170.0960 C.3   357  LYS357      0.1093
     68  NZ       187.2710  277.7750  170.9550 N.3   357  LYS357     -0.1314
     69  N        183.5140  274.6430  166.4330 N.am  358  SER358     -0.1936
     70  CA       183.2060  273.2340  166.6350 C.3   358  SER358      0.2055
     71  C        182.3820  272.6640  165.4860 C.2   358  SER358      0.2642
     72  O        182.4640  271.4610  165.2150 O.2   358  SER358     -0.2714
     73  CB       182.4800  273.0470  167.9660 C.3   358  SER358      0.2130
     74  OG       182.2400  271.6790  168.2350 O.3   358  SER358     -0.2179
     75  N        181.5840  273.4960  164.8080 N.am  359  GLN359     -0.1976
     76  CA       180.7810  273.0160  163.6830 C.3   359  GLN359      0.1601
     77  C        181.6470  272.4010  162.5910 C.2   359  GLN359      0.2287
     78  O        181.2580  271.3960  161.9840 O.2   359  GLN359     -0.2864
     79  CB       179.9400  274.1420  163.0930 C.3   359  GLN359      0.0394
     80  CG       178.8290  274.6180  163.9860 C.3   359  GLN359      0.0908
     81  CD       177.9690  275.6700  163.3170 C.2   359  GLN359      0.2608
     82  OE1      178.2810  276.1380  162.2230 O.2   359  GLN359     -0.2717
     83  NE2      176.8670  276.0280  163.9600 N.am  359  GLN359     -0.0878
     84  N        188.2900  267.8020  169.2850 N.3   415  ASP415     -0.1239
     85  CA       187.5480  268.8730  169.9340 C.3   415  ASP415      0.1674
     86  C        187.9600  269.0270  171.3990 C.2   415  ASP415      0.2266
     87  O        188.3390  268.0620  172.0680 O.2   415  ASP415     -0.2867
     88  CB       186.0480  268.6200  169.8360 C.3   415  ASP415      0.1410
     89  CG       185.2230  269.8450  170.1820 C.2   415  ASP415      0.3668
     90  OD1      185.8110  270.8870  170.5340 O.co2 415  ASP415     -0.2456
     91  OD2      183.9810  269.7680  170.0880 O.co2 415  ASP415     -0.2456
     92  N        190.6550  276.1060  173.5720 N.3   459  ASN459     -0.1240
     93  CA       190.0130  277.2030  174.2720 C.3   459  ASN459      0.1653
     94  C        191.0060  277.9220  175.1770 C.2   459  ASN459      0.2266
     95  O        191.8220  277.2640  175.8320 O.2   459  ASN459     -0.2867
     96  CB       188.8430  276.7030  175.1190 C.3   459  ASN459      0.1155
     97  CG       187.6140  276.3960  174.2940 C.2   459  ASN459      0.2627
     98  OD1      187.2540  277.1460  173.3900 O.2   459  ASN459     -0.2716
     99  ND2      186.9550  275.2970  174.6130 N.am  459  ASN459     -0.0877
    100  N        174.1660  288.0150  160.6230 N.3   503  LEU503     -0.1245
    101  CA       174.3370  286.7610  161.3490 C.3   503  LEU503      0.1561
    102  C        173.0390  286.2730  161.9790 C.2   503  LEU503      0.2260
    103  O        172.6490  285.1130  161.7940 O.2   503  LEU503     -0.2867
    104  CB       175.4320  286.9250  162.3960 C.3   503  LEU503      0.0270
    105  CG       175.9020  285.6090  163.0070 C.3   503  LEU503      0.0019
    106  CD1      177.3890  285.6420  163.2650 C.3   503  LEU503      0.0001
    107  CD2      175.1780  285.3220  164.2940 C.3   503  LEU503      0.0001
    108  N        170.9500  284.9320  159.4630 N.3   506  HIS506     -0.1226
    109  CA       171.4580  283.6460  159.0000 C.3   506  HIS506      0.1752
    110  C        171.1130  282.5020  159.9460 C.2   506  HIS506      0.2595
    111  O        170.7980  281.3950  159.4950 O.2   506  HIS506     -0.2718
    112  CB       172.9710  283.7280  158.8370 C.3   506  HIS506      0.0759
    113  CG       173.5670  282.5250  158.1830 C.ar  506  HIS506      0.0818
    114  ND1      173.8930  281.3850  158.8830 N.ar  506  HIS506     -0.2268
    115  CD2      173.8950  282.2820  156.8930 C.ar  506  HIS506      0.1154
    116  CE1      174.3940  280.4890  158.0520 C.ar  506  HIS506      0.1986
    117  NE2      174.4070  281.0090  156.8380 N.ar  506  HIS506     -0.2212
    118  N        171.1580  282.7410  161.2550 N.am  507  ILE507     -0.1980
    119  CA       170.7330  281.7210  162.2120 C.3   507  ILE507      0.1595
    120  C        169.2370  281.4370  162.0950 C.2   507  ILE507      0.2287
    121  O        168.8230  280.2790  161.9800 O.2   507  ILE507     -0.2864
    122  CB       171.1270  282.1250  163.6420 C.3   507  ILE507      0.0276
    123  CG1      172.6500  282.1080  163.7720 C.3   507  ILE507      0.0022
    124  CG2      170.4910  281.1720  164.6330 C.3   507  ILE507      0.0022
    125  CD1      173.1770  282.7190  165.0390 C.3   507  ILE507      0.0001
    126  N        168.0900  279.8730  158.9100 N.3   510  LEU510     -0.1245
    127  CA       168.3990  278.4510  158.8750 C.3   510  LEU510      0.1561
    128  C        167.2300  277.6240  159.3870 C.2   510  LEU510      0.2260
    129  O        166.9590  276.5370  158.8650 O.2   510  LEU510     -0.2867
    130  CB       169.6640  278.1850  159.6830 C.3   510  LEU510      0.0270
    131  CG       170.2260  276.7730  159.6810 C.3   510  LEU510      0.0019
    132  CD1      170.5660  276.3340  158.2730 C.3   510  LEU510      0.0001
    133  CD2      171.4540  276.7390  160.5720 C.3   510  LEU510      0.0001
@<TRIPOS>BOND
     1     1     2    1
     2     9     8    2
     3     2     5    1
     4     2     3    1
     5    21    19   ar
     6    21    23   ar
     7   117   115   ar
     8   117   116   ar
     9   115   113   ar
    10    26    27    2
    11    26    25    1
    12    19    18   ar
    13    23    22   ar
    14     3     6   am
    15     3     4    2
    16     6     7    1
    17     8     7    1
    18     8    13   am
    19    24    25    1
    20   116   114   ar
    21    14    15    1
    22    14    13    1
    23    14    17    1
    24   113   112    1
    25   113   114   ar
    26   132   131    1
    27    15    16    2
    28    25    28    1
    29    18    17    1
    30    18    20   ar
    31     7    10    1
    32    22    20   ar
    33    10    12    1
    34    10    11    1
    35   112   109    1
    36   129   128    2
    37   127   126    1
    38   127   128    1
    39   127   130    1
    40   109   108    1
    41   109   110    1
    42    28    29    1
    43   111   110    2
    44   131   130    1
    45   131   133    1
    46   110   118   am
    47   100   101    1
    48    29    31   ar
    49    29    30   ar
    50    31    33   ar
    51   118   119    1
    52   101   102    1
    53   101   104    1
    54    30    32   ar
    55   103   102    2
    56   121   120    2
    57    78    77    2
    58   120   119    1
    59   119   122    1
    60    82    81    2
    61   104   105    1
    62    33    32   ar
    63    77    76    1
    64   105   106    1
    65   105   107    1
    66    79    76    1
    67    79    80    1
    68    59    58    1
    69    81    83   am
    70    81    80    1
    71   122   123    1
    72   122   124    1
    73    76    75    1
    74   123   125    1
    75    58    55    1
    76    57    56    2
    77    75    71   am
    78    63    62    2
    79    56    55    1
    80    56    60   am
    81    72    71    2
    82    61    62    1
    83    61    60    1
    84    61    64    1
    85    55    54    1
    86    71    70    1
    87    62    69   am
    88    54    49   am
    89    64    65    1
    90    69    70    1
    91    70    73    1
    92    49    48    1
    93    49    50    2
    94    51    48    1
    95    51    53    1
    96    51    52    1
    97    65    66    1
    98    48    47    1
    99    73    74    1
   100    66    67    1
   101    44    43    2
   102    47    43   am
   103    84    85    1
   104    43    42    1
   105    88    85    1
   106    88    89    1
   107    85    86    1
   108    91    89   ar
   109    67    68    1
   110    89    90   ar
   111    42    45    1
   112    42    41    1
   113    86    87    2
   114    45    46    1
   115    41    36   am
   116    37    36    2
   117    36    35    1
   118    35    34    1
   119    35    38    1
   120    34    40    1
   121    98    97    2
   122    92    93    1
   123    93    96    1
   124    93    94    1
   125    97    99   am
   126    97    96    1
   127    38    39    1
   128    40    39    1
   129    94    95    2
