@<TRIPOS>MOLECULE
tmp/6eycC00.pdb
 118 115 0 0 0
SMALL
GASTEIGER

@<TRIPOS>ATOM
      1  N        152.7460  273.3920  196.0700 N.3   345  SER345     -0.1202
      2  CA       153.2970  273.6690  197.3870 C.3   345  SER345      0.2020
      3  C        154.3960  274.7170  197.3550 C.2   345  SER345      0.2619
      4  O        154.9140  275.0770  198.4150 O.2   345  SER345     -0.2717
      5  CB       153.8610  272.3860  197.9920 C.3   345  SER345      0.2103
      6  OG       154.4830  272.6430  199.2360 O.3   345  SER345     -0.2182
      7  N        154.7570  275.2130  196.1730 N.am  346  ILE346     -0.1965
      8  CA       155.8480  276.1640  196.0030 C.3   346  ILE346      0.1727
      9  C        155.2580  277.5450  195.7620 C.2   346  ILE346      0.2616
     10  O        154.3840  277.7150  194.9020 O.2   346  ILE346     -0.2715
     11  CB       156.7820  275.7170  194.8660 C.3   346  ILE346      0.0290
     12  CG1      157.4940  274.4300  195.3120 C.3   346  ILE346      0.0022
     13  CG2      157.7820  276.7900  194.5170 C.3   346  ILE346      0.0023
     14  CD1      158.3740  273.7340  194.2800 C.3   346  ILE346      0.0001
     15  N        155.7380  278.5300  196.5140 N.am  347  TYR347     -0.1974
     16  CA       155.1040  279.8380  196.5920 C.3   347  TYR347      0.1639
     17  C        155.7520  280.8590  195.6630 C.2   347  TYR347      0.2290
     18  O        156.9790  280.9930  195.6290 O.2   347  TYR347     -0.2864
     19  CB       155.1350  280.3810  198.0150 C.3   347  TYR347      0.0560
     20  CG       154.4660  281.7250  198.0950 C.ar  347  TYR347     -0.0198
     21  CD1      153.0880  281.8360  198.0330 C.ar  347  TYR347     -0.0009
     22  CD2      155.2130  282.8850  198.1950 C.ar  347  TYR347     -0.0009
     23  CE1      152.4730  283.0630  198.0870 C.ar  347  TYR347      0.0417
     24  CE2      154.6090  284.1160  198.2480 C.ar  347  TYR347      0.0417
     25  CZ       153.2390  284.2030  198.1940 C.ar  347  TYR347      0.1957
     26  OH       152.6460  285.4410  198.2490 O.3   347  TYR347     -0.2866
     27  N        157.4420  282.5390  192.6400 N.3   349  LEU349     -0.1245
     28  CA       158.4910  281.9550  191.7910 C.3   349  LEU349      0.1561
     29  C        157.9820  281.5930  190.3990 C.2   349  LEU349      0.2260
     30  O        158.5320  280.7110  189.7330 O.2   349  LEU349     -0.2867
     31  CB       159.1200  280.7370  192.4630 C.3   349  LEU349      0.0270
     32  CG       159.8020  281.0560  193.7910 C.3   349  LEU349      0.0019
     33  CD1      160.2310  279.7860  194.4210 C.3   349  LEU349      0.0001
     34  CD2      161.0050  281.9700  193.6270 C.3   349  LEU349      0.0001
     35  N        170.3490  280.6340  199.3140 N.3   386  PRO386     -0.2102
     36  CA       169.7260  279.4500  199.9260 C.3   386  PRO386      0.1504
     37  C        168.3150  279.6280  200.4640 C.2   386  PRO386      0.2576
     38  O        167.7240  280.7100  200.4140 O.2   386  PRO386     -0.2718
     39  CB       170.6800  279.1200  201.0780 C.3   386  PRO386      0.0282
     40  CG       171.9490  279.7160  200.7030 C.3   386  PRO386      0.0208
     41  CD       171.6080  280.9670  200.0010 C.3   386  PRO386      0.0893
     42  N        167.7940  278.5260  201.0080 N.am  387  SER387     -0.1938
     43  CA       166.4670  278.4560  201.6210 C.3   387  SER387      0.2055
     44  C        165.3310  278.7070  200.6360 C.2   387  SER387      0.2644
     45  O        164.3650  279.4040  200.9510 O.2   387  SER387     -0.2714
     46  CB       166.3670  279.4300  202.7900 C.3   387  SER387      0.2130
     47  OG       166.3800  280.7710  202.3380 O.3   387  SER387     -0.2179
     48  N        165.4490  278.1530  199.4300 N.am  388  THR388     -0.1936
     49  CA       164.4890  278.4150  198.3670 C.3   388  THR388      0.2028
     50  C        164.2210  277.1330  197.5900 C.2   388  THR388      0.2643
     51  O        164.9280  276.1380  197.7170 O.2   388  THR388     -0.2714
     52  CB       164.9790  279.5170  197.4230 C.3   388  THR388      0.1808
     53  OG1      166.2450  279.1540  196.8640 O.3   388  THR388     -0.2208
     54  CG2      165.1160  280.8170  198.1600 C.3   388  THR388      0.0379
     55  N        163.2220  277.2040  196.7180 N.am  389  SER389     -0.1935
     56  CA       162.7230  276.0370  195.9850 C.3   389  SER389      0.2055
     57  C        163.7370  275.0970  195.3400 C.2   389  SER389      0.2643
     58  O        163.4560  273.9020  195.1870 O.2   389  SER389     -0.2714
     59  CB       161.2790  276.0730  195.5000 C.3   389  SER389      0.2130
     60  OG       161.1390  277.0320  194.4790 O.3   389  SER389     -0.2179
     61  N        164.9060  275.6290  194.9660 N.am  390  LYS390     -0.1963
     62  CA       165.9500  275.0140  194.1450 C.3   390  LYS390      0.1728
     63  C        166.0650  273.5030  194.2640 C.2   390  LYS390      0.2617
     64  O        166.0510  272.7960  193.2550 O.2   390  LYS390     -0.2715
     65  CB       167.3060  275.5990  194.5420 C.3   390  LYS390      0.0311
     66  CG       167.4850  277.0840  194.3220 C.3   390  LYS390      0.0038
     67  CD       168.8690  277.5280  194.7590 C.3   390  LYS390      0.0206
     68  CE       169.0340  279.0350  194.6310 C.3   390  LYS390      0.1093
     69  NZ       170.3770  279.5240  195.0490 N.3   390  LYS390     -0.1314
     70  N        166.1670  272.9980  195.4820 N.am  391  SER391     -0.1936
     71  CA       166.3330  271.5650  195.6850 C.3   391  SER391      0.2055
     72  C        165.0170  270.8090  195.5190 C.2   391  SER391      0.2642
     73  O        164.9980  269.7030  194.9690 O.2   391  SER391     -0.2714
     74  CB       166.9320  271.3050  197.0650 C.3   391  SER391      0.2130
     75  OG       166.0540  271.7270  198.0920 O.3   391  SER391     -0.2179
     76  N        163.9140  271.3920  195.9850 N.am  392  GLN392     -0.1976
     77  CA       162.5880  270.8030  195.8030 C.3   392  GLN392      0.1601
     78  C        162.1190  270.7930  194.3470 C.2   392  GLN392      0.2287
     79  O        161.4630  269.8370  193.9170 O.2   392  GLN392     -0.2864
     80  CB       161.5770  271.5530  196.6670 C.3   392  GLN392      0.0394
     81  CG       161.8430  271.4730  198.1620 C.3   392  GLN392      0.0908
     82  CD       161.6870  270.0720  198.7170 C.2   392  GLN392      0.2608
     83  OE1      160.7860  269.3350  198.3220 O.2   392  GLN392     -0.2717
     84  NE2      162.5690  269.6950  199.6370 N.am  392  GLN392     -0.0878
     85  N        174.9740  278.1130  193.6510 N.3   492  ASN492     -0.1240
     86  CA       175.0380  279.1040  194.7110 C.3   492  ASN492      0.1653
     87  C        176.2200  280.0250  194.4460 C.2   492  ASN492      0.2266
     88  O        177.1940  279.6130  193.8110 O.2   492  ASN492     -0.2867
     89  CB       175.2060  278.4450  196.0850 C.3   492  ASN492      0.1155
     90  CG       173.9650  277.7180  196.5410 C.2   492  ASN492      0.2627
     91  OD1      172.8480  278.2010  196.3650 O.2   492  ASN492     -0.2716
     92  ND2      174.1540  276.5530  197.1450 N.am  492  ASN492     -0.0877
     93  N        153.8580  283.5770  202.6270 N.3   536  LEU536     -0.1245
     94  CA       154.5800  282.3130  202.5460 C.3   536  LEU536      0.1561
     95  C        154.4310  281.4730  203.8110 C.2   536  LEU536      0.2260
     96  O        154.1550  280.2700  203.7420 O.2   536  LEU536     -0.2867
     97  CB       156.0510  282.6280  202.2830 C.3   536  LEU536      0.0270
     98  CG       157.0730  281.5460  201.9620 C.3   536  LEU536      0.0019
     99  CD1      158.1920  282.1760  201.1610 C.3   536  LEU536      0.0001
    100  CD2      157.6260  280.9110  203.2190 C.3   536  LEU536      0.0001
    101  N        151.0880  279.8890  204.0400 N.3   539  HIS539     -0.1226
    102  CA       151.0410  278.7750  203.0990 C.3   539  HIS539      0.1752
    103  C        151.7270  277.5260  203.6420 C.2   539  HIS539      0.2595
    104  O        151.1580  276.4290  203.6080 O.2   539  HIS539     -0.2718
    105  CB       151.6910  279.1830  201.7820 C.3   539  HIS539      0.0759
    106  CG       151.7470  278.0770  200.7800 C.ar  539  HIS539      0.0818
    107  ND1      150.6360  277.6250  200.1050 N.ar  539  HIS539     -0.2268
    108  CD2      152.7830  277.3210  200.3520 C.ar  539  HIS539      0.1154
    109  CE1      150.9860  276.6420  199.2950 C.ar  539  HIS539      0.1986
    110  NE2      152.2840  276.4390  199.4260 N.ar  539  HIS539     -0.2212
    111  N        152.9520  277.6700  204.1440 N.am  540  LEU540     -0.1980
    112  CA       153.6720  276.5310  204.7120 C.3   540  LEU540      0.1596
    113  C        152.9410  275.8900  205.8870 C.2   540  LEU540      0.2287
    114  O        152.7910  274.6660  205.9390 O.2   540  LEU540     -0.2864
    115  CB       155.0630  276.9700  205.1540 C.3   540  LEU540      0.0297
    116  CG       156.0560  277.3630  204.0660 C.3   540  LEU540      0.0022
    117  CD1      157.3140  277.8950  204.7130 C.3   540  LEU540      0.0001
    118  CD2      156.3720  276.1810  203.1710 C.3   540  LEU540      0.0001
@<TRIPOS>BOND
     1    30    29    2
     2    29    28    1
     3    28    31    1
     4    28    27    1
     5    31    32    1
     6    64    63    2
     7    34    32    1
     8    85    86    1
     9    32    33    1
    10    88    87    2
    11    79    78    2
    12    62    63    1
    13    62    65    1
    14    62    61    1
    15    63    70   am
    16    14    12    1
    17    66    65    1
    18    66    67    1
    19    78    77    1
    20    87    86    1
    21    60    59    1
    22    13    11    1
    23    68    67    1
    24    68    69    1
    25    86    89    1
    26    11    12    1
    27    11     8    1
    28    10     9    2
    29    61    57   am
    30    73    72    2
    31    58    57    2
    32    57    56    1
    33    70    71    1
    34    59    56    1
    35    72    71    1
    36    72    76   am
    37    18    17    2
    38    17    16    1
    39    71    74    1
    40     9     8    1
    41     9    15   am
    42    77    76    1
    43    77    80    1
    44    56    55    1
    45     8     7    1
    46     1     2    1
    47    89    90    1
    48     7     3   am
    49    91    90    2
    50    15    16    1
    51    90    92   am
    52    16    19    1
    53    80    81    1
    54    55    50   am
    55    53    52    1
    56    74    75    1
    57     3     2    1
    58     3     4    2
    59     2     5    1
    60    52    54    1
    61    52    49    1
    62    50    51    2
    63    50    49    1
    64     5     6    1
    65    19    20    1
    66    21    23   ar
    67    21    20   ar
    68    23    25   ar
    69    20    22   ar
    70    81    82    1
    71    25    24   ar
    72    25    26    1
    73    22    24   ar
    74    83    82    2
    75    49    48    1
    76    82    84   am
    77   109   110   ar
    78   109   107   ar
    79    35    36    1
    80    35    41    1
    81   110   108   ar
    82    48    44   am
    83    36    37    1
    84    36    39    1
    85    41    40    1
    86   107   106   ar
    87   108   106   ar
    88    38    37    2
    89    37    42   am
    90    44    45    2
    91    44    43    1
    92    40    39    1
    93   106   105    1
    94    42    43    1
    95    99    98    1
    96    43    46    1
    97   105   102    1
    98    98    97    1
    99    98   100    1
   100    97    94    1
   101    47    46    1
   102    94    93    1
   103    94    95    1
   104   102   103    1
   105   102   101    1
   106   118   116    1
   107   104   103    2
   108   103   111   am
   109    96    95    2
   110   116   117    1
   111   116   115    1
   112   111   112    1
   113   112   115    1
   114   112   113    1
   115   113   114    2
