@<TRIPOS>MOLECULE
tmp/6eyfA03.pdb
 153 150 0 0 0
SMALL
GASTEIGER

@<TRIPOS>ATOM
      1  N         45.8750   17.9290   33.7280 N.3    66  ASN66      -0.1225
      2  CA        46.9070   18.6280   32.9810 C.3    66  ASN66       0.1785
      3  C         46.2910   19.7720   32.1810 C.2    66  ASN66       0.2597
      4  O         45.1460   19.6990   31.7280 O.2    66  ASN66      -0.2718
      5  CB        47.6560   17.6580   32.0570 C.3    66  ASN66       0.1169
      6  CG        48.5320   16.6550   32.8410 C.2    66  ASN66       0.2627
      7  OD1       49.4300   17.0360   33.5880 O.2    66  ASN66      -0.2716
      8  ND2       48.2560   15.3740   32.6730 N.am   66  ASN66      -0.0877
      9  N         47.0650   20.8420   32.0110 N.am   67  ILE67      -0.1966
     10  CA        46.6160   22.0200   31.2770 C.3    67  ILE67       0.1727
     11  C         47.2850   22.0560   29.9140 C.2    67  ILE67       0.2616
     12  O         48.4360   21.6390   29.7470 O.2    67  ILE67      -0.2715
     13  CB        46.9200   23.3270   32.0320 C.3    67  ILE67       0.0290
     14  CG1       46.8630   23.1180   33.5360 C.3    67  ILE67       0.0022
     15  CG2       45.9190   24.3470   31.6680 C.3    67  ILE67       0.0023
     16  CD1       45.4970   22.9570   34.0490 C.3    67  ILE67       0.0001
     17  N         46.5690   22.6030   28.9380 N.am   68  ASP68      -0.1971
     18  CA        47.1310   22.8940   27.6210 C.3    68  ASP68       0.1709
     19  C         47.9720   24.1730   27.7020 C.2    68  ASP68       0.2293
     20  O         47.4200   25.2710   27.8470 O.2    68  ASP68      -0.2864
     21  CB        46.0060   23.0310   26.5960 C.3    68  ASP68       0.1436
     22  CG        46.4990   23.4910   25.2260 C.2    68  ASP68       0.3671
     23  OD1       47.7270   23.4590   24.9620 O.co2  68  ASP68      -0.2456
     24  OD2       45.6490   23.8780   24.3940 O.co2  68  ASP68      -0.2456
     25  N         43.4500   28.9280   22.9550 N.3    77  SER77      -0.1217
     26  CA        43.6270   27.7330   23.7670 C.3    77  SER77       0.1889
     27  C         43.2340   27.9710   25.2140 C.2    77  SER77       0.2288
     28  O         42.5490   27.1340   25.8190 O.2    77  SER77      -0.2866
     29  CB        45.0760   27.2290   23.6920 C.3    77  SER77       0.2089
     30  OG        46.0290   28.2510   23.9550 O.3    77  SER77      -0.2183
     31  N         39.9290   27.5310   27.3400 N.3    80  TRP80      -0.1241
     32  CA        39.5130   26.1890   27.7250 C.3    80  TRP80       0.1605
     33  C         40.2150   25.6880   28.9770 C.2    80  TRP80       0.2264
     34  O         39.7930   24.6690   29.5400 O.2    80  TRP80      -0.2867
     35  CB        39.7710   25.2020   26.5740 C.3    80  TRP80       0.0550
     36  CG        39.1680   25.6340   25.2600 C.ar   80  TRP80       0.0003
     37  CD1       39.8290   26.1360   24.1760 C.ar   80  TRP80       0.0946
     38  CD2       37.7770   25.6170   24.9090 C.ar   80  TRP80       0.0152
     39  NE1       38.9420   26.4210   23.1650 N.ar   80  TRP80      -0.2442
     40  CE2       37.6730   26.1120   23.5880 C.ar   80  TRP80       0.0810
     41  CE3       36.6160   25.2040   25.5700 C.ar   80  TRP80       0.0012
     42  CZ2       36.4490   26.2130   22.9180 C.ar   80  TRP80       0.0191
     43  CZ3       35.3880   25.3010   24.8990 C.ar   80  TRP80       0.0001
     44  CH2       35.3210   25.8030   23.5870 C.ar   80  TRP80       0.0015
     45  N         36.5050   17.6010   26.6960 N.3   114  GLY114     -0.1210
     46  CA        37.8950   17.7310   27.0700 C.3   114  GLY114      0.1956
     47  C         38.5950   16.3860   27.0690 C.2   114  GLY114      0.2612
     48  O         39.5360   16.1590   27.8400 O.2   114  GLY114     -0.2717
     49  N         38.1300   15.4780   26.2110 N.am  115  GLY115     -0.1956
     50  CA        38.7800   14.1930   26.0480 C.3   115  GLY115      0.1869
     51  C         38.8300   13.3200   27.2780 C.2   115  GLY115      0.2309
     52  O         39.6640   12.4230   27.3390 O.2   115  GLY115     -0.2863
     53  N         40.0870   14.0440   29.8880 N.3   117  GLN117     -0.1231
     54  CA        41.3010   14.3770   30.6140 C.3   117  GLN117      0.1698
     55  C         41.3000   15.7970   31.1430 C.2   117  GLN117      0.2592
     56  O         42.0790   16.0930   32.0480 O.2   117  GLN117     -0.2718
     57  CB        42.5470   14.1930   29.7310 C.3   117  GLN117      0.0381
     58  CG        42.5110   13.0100   28.7650 C.3   117  GLN117      0.0905
     59  CD        42.3700   11.6810   29.4770 C.2   117  GLN117      0.2608
     60  OE1       43.2010   11.3240   30.3120 O.2   117  GLN117     -0.2717
     61  NE2       41.3070   10.9400   29.1590 N.am  117  GLN117     -0.0878
     62  N         40.4790   16.6850   30.5900 N.am  118  THR118     -0.1953
     63  CA        40.4350   18.0780   31.0060 C.3   118  THR118      0.1897
     64  C         38.9850   18.5460   31.0060 C.2   118  THR118      0.2313
     65  O         38.0630   17.8250   30.6030 O.2   118  THR118     -0.2863
     66  CB        41.3050   18.9900   30.1010 C.3   118  THR118      0.1794
     67  OG1       40.7020   19.1400   28.8100 O.3   118  THR118     -0.2208
     68  CG2       42.7110   18.4030   29.9090 C.3   118  THR118      0.0378
     69  N         45.5050   15.7490   21.5240 N.3   282  PRO282     -0.2116
     70  CA        44.2620   15.8690   22.3140 C.3   282  PRO282      0.1372
     71  C         43.2320   14.8050   21.9710 C.2   282  PRO282      0.2244
     72  O         42.3690   14.5060   22.8100 O.2   282  PRO282     -0.2868
     73  CB        43.7570   17.2840   21.9890 C.3   282  PRO282      0.0268
     74  CG        44.9870   18.0390   21.6940 C.3   282  PRO282      0.0207
     75  CD        45.9020   17.0580   20.9690 C.3   282  PRO282      0.0892
     76  N         44.2170   11.7720   21.6580 N.3   284  SER284     -0.1217
     77  CA        44.6740   10.6670   22.4990 C.3   284  SER284      0.1889
     78  C         43.9370   10.7360   23.8210 C.2   284  SER284      0.2288
     79  O         44.0260   11.7360   24.5470 O.2   284  SER284     -0.2866
     80  CB        46.1830   10.7230   22.7440 C.3   284  SER284      0.2089
     81  OG        46.9140   10.1210   21.6900 O.3   284  SER284     -0.2183
     82  N         41.3880   22.1060   14.4000 N.3   325  ALA325     -0.1231
     83  CA        41.9950   22.4290   15.6950 C.3   325  ALA325      0.1694
     84  C         43.0970   21.4470   16.0930 C.2   325  ALA325      0.2592
     85  O         44.0900   21.8390   16.7190 O.2   325  ALA325     -0.2718
     86  CB        40.9200   22.4600   16.7830 C.3   325  ALA325      0.0304
     87  N         42.9340   20.1650   15.7680 N.am  326  PHE326     -0.1976
     88  CA        43.8930   19.1890   16.2740 C.3   326  PHE326      0.1639
     89  C         45.1810   19.1630   15.4650 C.2   326  PHE326      0.2290
     90  O         46.1940   18.6650   15.9610 O.2   326  PHE326     -0.2864
     91  CB        43.2340   17.8030   16.3390 C.3   326  PHE326      0.0560
     92  CG        41.9590   17.8110   17.1290 C.ar  326  PHE326     -0.0200
     93  CD1       41.9870   17.6790   18.5120 C.ar  326  PHE326     -0.0042
     94  CD2       40.7380   18.0430   16.5030 C.ar  326  PHE326     -0.0042
     95  CE1       40.8170   17.7400   19.2490 C.ar  326  PHE326     -0.0003
     96  CE2       39.5620   18.1000   17.2360 C.ar  326  PHE326     -0.0003
     97  CZ        39.5990   17.9450   18.6100 C.ar  326  PHE326     -0.0000
     98  N         48.4160   20.6000   16.9740 N.3   329  TYR329     -0.1241
     99  CA        48.9710   19.9110   18.1360 C.3   329  TYR329      0.1605
    100  C         49.8290   18.7150   17.7270 C.2   329  TYR329      0.2264
    101  O         49.8920   17.7100   18.4400 O.2   329  TYR329     -0.2867
    102  CB        47.8650   19.4680   19.0980 C.3   329  TYR329      0.0534
    103  CG        47.1460   20.6150   19.7650 C.ar  329  TYR329     -0.0201
    104  CD1       46.1970   21.3560   19.0710 C.ar  329  TYR329     -0.0009
    105  CD2       47.4240   20.9690   21.0860 C.ar  329  TYR329     -0.0009
    106  CE1       45.5490   22.4140   19.6660 C.ar  329  TYR329      0.0417
    107  CE2       46.7710   22.0290   21.6990 C.ar  329  TYR329      0.0417
    108  CZ        45.8360   22.7450   20.9770 C.ar  329  TYR329      0.1957
    109  OH        45.1750   23.7970   21.5510 O.3   329  TYR329     -0.2866
    110  N         41.4260   31.9010   16.3010 N.3   427  TRP427     -0.1241
    111  CA        42.2940   31.0630   15.4910 C.3   427  TRP427      0.1605
    112  C         42.2720   31.5230   14.0350 C.2   427  TRP427      0.2264
    113  O         41.3490   32.2250   13.6090 O.2   427  TRP427     -0.2867
    114  CB        41.8530   29.6000   15.5960 C.3   427  TRP427      0.0550
    115  CG        41.8000   29.0160   16.9950 C.ar  427  TRP427      0.0003
    116  CD1       40.7400   29.0590   17.8750 C.ar  427  TRP427      0.0946
    117  CD2       42.8300   28.2680   17.6500 C.ar  427  TRP427      0.0152
    118  NE1       41.0640   28.3960   19.0440 N.ar  427  TRP427     -0.2442
    119  CE2       42.3340   27.8950   18.9290 C.ar  427  TRP427      0.0810
    120  CE3       44.1270   27.8860   17.2900 C.ar  427  TRP427      0.0012
    121  CZ2       43.0880   27.1600   19.8370 C.ar  427  TRP427      0.0191
    122  CZ3       44.8790   27.1500   18.2010 C.ar  427  TRP427      0.0001
    123  CH2       44.3550   26.7910   19.4560 C.ar  427  TRP427      0.0015
    124  N         35.4750   25.7900   13.6360 N.3   434  MET434     -0.1230
    125  CA        36.2860   24.8720   14.4240 C.3   434  MET434      0.1702
    126  C         35.4530   24.0640   15.4090 C.2   434  MET434      0.2592
    127  O         34.3720   24.4770   15.8430 O.2   434  MET434     -0.2718
    128  CB        37.3400   25.6260   15.2150 C.3   434  MET434      0.0401
    129  CG        38.4700   26.1000   14.3730 C.3   434  MET434      0.0596
    130  SD        39.6260   27.0530   15.3510 S.3   434  MET434     -0.1393
    131  CE        40.2220   25.8980   16.5810 C.3   434  MET434      0.0692
    132  N         36.0030   22.9040   15.7720 N.am  435  HIS435     -0.1976
    133  CA        35.5520   22.1320   16.9230 C.3   435  HIS435      0.1656
    134  C         35.4960   22.9880   18.1840 C.2   435  HIS435      0.2291
    135  O         36.4800   23.6400   18.5500 O.2   435  HIS435     -0.2864
    136  CB        36.5100   20.9530   17.1380 C.3   435  HIS435      0.0771
    137  CG        36.1600   20.0930   18.3100 C.ar  435  HIS435      0.0820
    138  ND1       35.1960   19.1060   18.2450 N.ar  435  HIS435     -0.2267
    139  CD2       36.6560   20.0540   19.5720 C.ar  435  HIS435      0.1154
    140  CE1       35.1100   18.5000   19.4190 C.ar  435  HIS435      0.1986
    141  NE2       35.9870   19.0550   20.2410 N.ar  435  HIS435     -0.2212
    142  N         33.3490   25.5500   18.7680 N.3   437  TYR437     -0.1241
    143  CA        33.0010   26.9490   18.5990 C.3   437  TYR437      0.1605
    144  C         31.5670   27.1100   18.1330 C.2   437  TYR437      0.2264
    145  O         31.1890   28.1630   17.6070 O.2   437  TYR437     -0.2867
    146  CB        34.0200   27.6240   17.6740 C.3   437  TYR437      0.0534
    147  CG        35.2930   27.8290   18.4670 C.ar  437  TYR437     -0.0201
    148  CD1       35.4010   28.8920   19.3740 C.ar  437  TYR437     -0.0009
    149  CD2       36.3290   26.8940   18.4220 C.ar  437  TYR437     -0.0009
    150  CE1       36.5320   29.0680   20.1520 C.ar  437  TYR437      0.0417
    151  CE2       37.4780   27.0600   19.2040 C.ar  437  TYR437      0.0417
    152  CZ        37.5690   28.1590   20.0630 C.ar  437  TYR437      0.1957
    153  OH        38.6870   28.3360   20.8410 O.3   437  TYR437     -0.2866
@<TRIPOS>BOND
     1   113   112    2
     2   124   125    1
     3   112   111    1
     4   129   128    1
     5   129   130    1
     6    82    83    1
     7   125   128    1
     8   125   126    1
     9   130   131    1
    10   126   132   am
    11   126   127    2
    12    89    90    2
    13    89    88    1
    14   111   114    1
    15   111   110    1
    16   114   115    1
    17    83    84    1
    18    83    86    1
    19    87    84   am
    20    87    88    1
    21   132   133    1
    22    84    85    2
    23    88    91    1
    24    91    92    1
    25    94    92   ar
    26    94    96   ar
    27   133   136    1
    28   133   134    1
    29    98    99    1
    30   115   117   ar
    31   115   116   ar
    32    92    93   ar
    33   136   137    1
    34    96    97   ar
    35   120   117   ar
    36   120   122   ar
    37   145   144    2
    38   117   119   ar
    39   146   147    1
    40   146   143    1
    41   100    99    1
    42   100   101    2
    43   116   118   ar
    44   144   143    1
    45    99   102    1
    46   134   135    2
    47   122   123   ar
    48   138   137   ar
    49   138   140   ar
    50   137   139   ar
    51   149   147   ar
    52   149   151   ar
    53   147   148   ar
    54    93    95   ar
    55   143   142    1
    56    97    95   ar
    57   119   118   ar
    58   119   121   ar
    59   104   106   ar
    60   104   103   ar
    61   102   103    1
    62   151   152   ar
    63   148   150   ar
    64   140   141   ar
    65   123   121   ar
    66   139   141   ar
    67   106   108   ar
    68   103   105   ar
    69   152   150   ar
    70   152   153    1
    71    75    69    1
    72    75    74    1
    73   108   109    1
    74   108   107   ar
    75   105   107   ar
    76    69    70    1
    77    76    77    1
    78    81    80    1
    79    74    73    1
    80    71    70    1
    81    71    72    2
    82    73    70    1
    83    77    80    1
    84    77    78    1
    85    42    44   ar
    86    42    40   ar
    87    25    26    1
    88    39    40   ar
    89    39    37   ar
    90    44    43   ar
    91    40    38   ar
    92    29    26    1
    93    29    30    1
    94    26    27    1
    95    78    79    2
    96    37    36   ar
    97    24    22   ar
    98    43    41   ar
    99    38    36   ar
   100    38    41   ar
   101    23    22   ar
   102    27    28    2
   103    22    21    1
   104    36    35    1
   105    50    49    1
   106    50    51    1
   107    49    47   am
   108    35    32    1
   109    21    18    1
   110    45    46    1
   111    47    46    1
   112    47    48    2
   113    51    52    2
   114    31    32    1
   115    18    19    1
   116    18    17    1
   117    19    20    2
   118    32    33    1
   119    58    59    1
   120    58    57    1
   121    67    66    1
   122    17    11   am
   123    33    34    2
   124    61    59   am
   125    59    60    2
   126    57    54    1
   127    12    11    2
   128    53    54    1
   129    68    66    1
   130    11    10    1
   131    66    63    1
   132    62    63    1
   133    62    55   am
   134    65    64    2
   135    54    55    1
   136    63    64    1
   137    55    56    2
   138    10     9    1
   139    10    13    1
   140    15    13    1
   141     4     3    2
   142     9     3   am
   143    13    14    1
   144     5     6    1
   145     5     2    1
   146     3     2    1
   147     8     6   am
   148     6     7    2
   149     2     1    1
   150    14    16    1
