@<TRIPOS>MOLECULE
tmp/6eygA00.pdb
 101 97 0 0 0
SMALL
GASTEIGER

@<TRIPOS>ATOM
      1  N         10.5970    9.6880   19.4830 N.3    15  GLN15      -0.1245
      2  CA        11.3840    9.3480   18.2920 C.3    15  GLN15       0.1566
      3  C         11.6600   10.5790   17.3730 C.2    15  GLN15       0.2260
      4  O         10.9830   11.5980   17.4700 O.2    15  GLN15      -0.2867
      5  CB        10.7330    8.2350   17.5220 C.3    15  GLN15       0.0367
      6  CG        11.6250    7.3550   16.6200 C.3    15  GLN15       0.0905
      7  CD        10.9380    6.1770   16.0110 C.2    15  GLN15       0.2608
      8  OE1       10.3790    5.3740   16.7520 O.2    15  GLN15      -0.2717
      9  NE2       11.0030    6.0110   14.6620 N.am   15  GLN15      -0.0878
     10  N         10.7850   11.9300   14.7570 N.3    17  MET17      -0.1245
     11  CA         9.6650   12.1590   13.8420 C.3    17  MET17       0.1570
     12  C          8.8730   13.3580   14.3540 C.2    17  MET17       0.2261
     13  O          8.6630   13.4550   15.5520 O.2    17  MET17      -0.2867
     14  CB         8.6950   10.9520   13.7380 C.3    17  MET17       0.0387
     15  CG         9.3550    9.6830   13.1660 C.3    17  MET17       0.0595
     16  SD         8.3990    8.1690   13.4630 S.3    17  MET17      -0.1393
     17  CE         6.7520    8.5280   12.9360 C.3    17  MET17       0.0692
     18  N         14.9250    5.3530   16.8340 N.3    47  SER47      -0.1202
     19  CA        14.1380    4.2510   16.2760 C.3    47  SER47       0.2020
     20  C         13.4270    3.4680   17.3670 C.2    47  SER47       0.2618
     21  O         13.5590    3.7260   18.5730 O.2    47  SER47      -0.2717
     22  CB        15.1690    3.3150   15.6290 C.3    47  SER47       0.2103
     23  OG        15.8030    2.5550   16.6460 O.3    47  SER47      -0.2182
     24  N         12.5200    2.6250   16.8740 N.am   48  ASN48      -0.1974
     25  CA        11.8390    1.6930   17.7650 C.3    48  ASN48       0.1688
     26  C         12.7770    1.0040   18.7510 C.2    48  ASN48       0.2292
     27  O         12.4790    0.8330   19.9720 O.2    48  ASN48      -0.2864
     28  CB        11.0990    0.6140   16.9650 C.3    48  ASN48       0.1181
     29  CG        10.5990   -0.5110   17.8460 C.2    48  ASN48       0.2629
     30  OD1        9.5960   -0.3860   18.5380 O.2    48  ASN48      -0.2716
     31  ND2       11.2540   -1.6310   17.7840 N.am   48  ASN48      -0.0877
     32  N          4.6190    1.7020   17.5700 N.3    67  TYR67      -0.1241
     33  CA         3.7720    1.2610   16.4700 C.3    67  TYR67       0.1605
     34  C          3.7300   -0.2710   16.4130 C.2    67  TYR67       0.2264
     35  O          4.7930   -0.9190   16.4590 O.2    67  TYR67      -0.2867
     36  CB         4.2670    1.7880   15.1000 C.3    67  TYR67       0.0534
     37  CG         4.3850    3.2990   15.1170 C.ar   67  TYR67      -0.0201
     38  CD1        5.5230    3.9250   15.7040 C.ar   67  TYR67      -0.0009
     39  CD2        3.3240    4.1280   14.6570 C.ar   67  TYR67      -0.0009
     40  CE1        5.6410    5.3020   15.7940 C.ar   67  TYR67       0.0417
     41  CE2        3.4550    5.5100   14.7250 C.ar   67  TYR67       0.0417
     42  CZ         4.5670    6.0980   15.3010 C.ar   67  TYR67       0.1957
     43  OH         4.6060    7.4340   15.4310 O.3    67  TYR67      -0.2866
     44  N          5.8980   -2.4090   13.9200 N.3    70  THR70      -0.1218
     45  CA         7.3620   -2.1900   14.1460 C.3    70  THR70       0.1862
     46  C          7.8490   -2.9850   15.3600 C.2    70  THR70       0.2287
     47  O          8.9560   -3.5230   15.3480 O.2    70  THR70      -0.2866
     48  CB         7.6220   -0.6640   14.3760 C.3    70  THR70       0.1770
     49  OG1        7.0220    0.1190   13.3140 O.3    70  THR70      -0.2211
     50  CG2        9.0940   -0.4100   14.5270 C.3    70  THR70       0.0375
     51  N          0.2550    4.5620   11.3770 N.3   111  ASN111     -0.1225
     52  CA         1.1680    5.2780   10.5040 C.3   111  ASN111      0.1785
     53  C          2.0070    4.2620    9.8190 C.2   111  ASN111      0.2598
     54  O          3.0750    3.8680   10.4030 O.2   111  ASN111     -0.2718
     55  CB         1.9860    6.2500   11.3270 C.3   111  ASN111      0.1169
     56  CG         3.0450    7.0010   10.5340 C.2   111  ASN111      0.2627
     57  OD1        3.0110    6.9990    9.3110 O.2   111  ASN111     -0.2716
     58  ND2        3.9270    7.7450   11.2510 N.am  111  ASN111     -0.0877
     59  N          1.5870    3.9090    8.5820 N.am  112  THR112     -0.1939
     60  CA         2.2960    2.8110    7.8590 C.3   112  THR112      0.2028
     61  C          3.3460    3.3340    6.8840 C.2   112  THR112      0.2642
     62  O          3.2390    4.4180    6.3030 O.2   112  THR112     -0.2714
     63  CB         1.2290    1.9040    7.1680 C.3   112  THR112      0.1808
     64  OG1        1.8730    0.7950    6.5110 O.3   112  THR112     -0.2208
     65  CG2        0.4740    2.6150    6.1460 C.3   112  THR112      0.0379
     66  N          4.3730    2.5080    6.6890 N.am  113  TYR113     -0.1973
     67  CA         5.2120    2.6710    5.5040 C.3   113  TYR113      0.1639
     68  C          4.3240    2.5600    4.2910 C.2   113  TYR113      0.2290
     69  O          3.3920    1.7280    4.2950 O.2   113  TYR113     -0.2864
     70  CB         6.2490    1.5130    5.4200 C.3   113  TYR113      0.0560
     71  CG         7.2080    1.4270    6.5510 C.ar  113  TYR113     -0.0198
     72  CD1        8.3480    2.2820    6.6150 C.ar  113  TYR113     -0.0009
     73  CD2        7.0350    0.4750    7.5580 C.ar  113  TYR113     -0.0009
     74  CE1        9.3180    2.2040    7.6520 C.ar  113  TYR113      0.0417
     75  CE2        7.9280    0.4080    8.6370 C.ar  113  TYR113      0.0417
     76  CZ         9.1080    1.2220    8.6360 C.ar  113  TYR113      0.1957
     77  OH         9.9520    1.0990    9.6730 O.3   113  TYR113     -0.2866
     78  N          5.7220    7.7390    5.0560 N.3   193  TYR193     -0.1241
     79  CA         4.9240    7.3670    6.2190 C.3   193  TYR193      0.1605
     80  C          3.5760    7.9980    6.0160 C.2   193  TYR193      0.2264
     81  O          3.4710    9.2070    5.7550 O.2   193  TYR193     -0.2867
     82  CB         5.5320    7.8960    7.5480 C.3   193  TYR193      0.0534
     83  CG         6.8830    7.4000    7.9150 C.ar  193  TYR193     -0.0201
     84  CD1        7.5460    6.4160    7.1820 C.ar  193  TYR193     -0.0009
     85  CD2        7.4570    7.8460    9.1130 C.ar  193  TYR193     -0.0009
     86  CE1        8.7990    5.9190    7.6030 C.ar  193  TYR193      0.0417
     87  CE2        8.6920    7.3600    9.5510 C.ar  193  TYR193      0.0417
     88  CZ         9.3730    6.3910    8.8000 C.ar  193  TYR193      0.1957
     89  OH        10.6320    6.0090    9.2020 O.3   193  TYR193     -0.2866
     90  N          0.3700   -0.6470   11.6640 N.3   217  TYR217     -0.1241
     91  CA         1.2130    0.2250   12.4710 C.3   217  TYR217      0.1605
     92  C          0.4130    1.2310   13.3260 C.2   217  TYR217      0.2264
     93  O          0.6610    2.4090   13.3140 O.2   217  TYR217     -0.2867
     94  CB         2.2000    0.9960   11.5130 C.3   217  TYR217      0.0534
     95  CG         3.1690    0.0400   10.8410 C.ar  217  TYR217     -0.0201
     96  CD1        4.3570   -0.3320   11.5200 C.ar  217  TYR217     -0.0009
     97  CD2        2.9650   -0.3860    9.5320 C.ar  217  TYR217     -0.0009
     98  CE1        5.2990   -1.1980   10.9680 C.ar  217  TYR217      0.0417
     99  CE2        3.9260   -1.1640    8.9050 C.ar  217  TYR217      0.0417
    100  CZ         5.0600   -1.5950    9.6170 C.ar  217  TYR217      0.1957
    101  OH         5.9040   -2.4160    8.9290 O.3   217  TYR217     -0.2866
@<TRIPOS>BOND
     1    68    69    2
     2    68    67    1
     3    78    79    1
     4    70    67    1
     5    70    71    1
     6    67    66    1
     7    81    80    2
     8    80    79    1
     9    65    63    1
    10    79    82    1
    11    62    61    2
    12    64    63    1
    13    71    72   ar
    14    71    73   ar
    15    72    74   ar
    16    66    61   am
    17    61    60    1
    18    63    60    1
    19    84    86   ar
    20    84    83   ar
    21    82    83    1
    22    73    75   ar
    23    86    88   ar
    24    74    76   ar
    25    60    59    1
    26    83    85   ar
    27    59    53   am
    28    76    75   ar
    29    76    77    1
    30    88    89    1
    31    88    87   ar
    32    99    97   ar
    33    99   100   ar
    34   101   100    1
    35    85    87   ar
    36    57    56    2
    37    97    95   ar
    38   100    98   ar
    39    53    54    2
    40    53    52    1
    41    52    55    1
    42    52    51    1
    43    56    58   am
    44    56    55    1
    45    95    94    1
    46    95    96   ar
    47    98    96   ar
    48    94    91    1
    49    90    91    1
    50    91    92    1
    51    17    16    1
    52    15    16    1
    53    15    14    1
    54    49    48    1
    55    93    92    2
    56    14    11    1
    57    11    12    1
    58    11    10    1
    59    44    45    1
    60    45    48    1
    61    45    46    1
    62    12    13    2
    63    48    50    1
    64    39    41   ar
    65    39    37   ar
    66     9     7   am
    67    41    42   ar
    68    36    37    1
    69    36    33    1
    70    37    38   ar
    71    42    43    1
    72    42    40   ar
    73    47    46    2
    74    22    19    1
    75    22    23    1
    76    38    40   ar
    77     7     6    1
    78     7     8    2
    79    19    18    1
    80    19    20    1
    81    34    35    2
    82    34    33    1
    83    33    32    1
    84     6     5    1
    85    24    20   am
    86    24    25    1
    87    28    25    1
    88    28    29    1
    89    20    21    2
    90     3     4    2
    91     3     2    1
    92     5     2    1
    93    25    26    1
    94    31    29   am
    95    29    30    2
    96     2     1    1
    97    26    27    2
