@<TRIPOS>MOLECULE
tmp/6eyhA00.pdb
 101 97 0 0 0
SMALL
GASTEIGER

@<TRIPOS>ATOM
      1  N         11.7820    9.8630   19.1570 N.3    15  GLN15      -0.1245
      2  CA        12.6280    9.4830   18.0150 C.3    15  GLN15       0.1566
      3  C         12.8990   10.7030   17.1230 C.2    15  GLN15       0.2260
      4  O         12.1780   11.7220   17.2200 O.2    15  GLN15      -0.2867
      5  CB        11.8610    8.3790   17.2500 C.3    15  GLN15       0.0367
      6  CG        12.8030    7.5110   16.4100 C.3    15  GLN15       0.0905
      7  CD        12.0880    6.2320   15.8910 C.2    15  GLN15       0.2608
      8  OE1       11.7070    5.3740   16.6580 O.2    15  GLN15      -0.2717
      9  NE2       12.1490    6.0330   14.5970 N.am   15  GLN15      -0.0878
     10  N         12.0060   12.2770   14.4620 N.3    17  MET17      -0.1245
     11  CA        10.9200   12.4560   13.5590 C.3    17  MET17       0.1570
     12  C         10.1210   13.5870   14.1460 C.2    17  MET17       0.2261
     13  O         10.0240   13.6840   15.3830 O.2    17  MET17      -0.2867
     14  CB        10.0370   11.1880   13.6330 C.3    17  MET17       0.0387
     15  CG        10.6990    9.9240   13.1160 C.3    17  MET17       0.0595
     16  SD         9.2990    9.1360   12.3230 S.3    17  MET17      -0.1393
     17  CE         8.7420    8.0510   13.6580 C.3    17  MET17       0.0692
     18  N         15.9960    5.3780   16.6240 N.3    47  SER47      -0.1202
     19  CA        15.3490    4.1980   16.0520 C.3    47  SER47       0.2020
     20  C         14.5640    3.4800   17.1130 C.2    47  SER47       0.2618
     21  O         14.6890    3.7380   18.3370 O.2    47  SER47      -0.2717
     22  CB        16.4080    3.1930   15.5410 C.3    47  SER47       0.2103
     23  OG        17.1300    2.5760   16.5990 O.3    47  SER47      -0.2182
     24  N         13.7420    2.5450   16.6410 N.am   48  ASN48      -0.1974
     25  CA        13.0300    1.6270   17.5700 C.3    48  ASN48       0.1688
     26  C         13.9770    1.0030   18.5930 C.2    48  ASN48       0.2292
     27  O         13.6430    0.8900   19.8080 O.2    48  ASN48      -0.2864
     28  CB        12.3230    0.5310   16.7300 C.3    48  ASN48       0.1181
     29  CG        11.7610   -0.5890   17.5890 C.2    48  ASN48       0.2629
     30  OD1       10.7010   -0.4070   18.2230 O.2    48  ASN48      -0.2716
     31  ND2       12.4060   -1.7630   17.5750 N.am   48  ASN48      -0.0877
     32  N          5.7910    1.7240   17.2730 N.3    67  TYR67      -0.1241
     33  CA         4.9210    1.2850   16.1710 C.3    67  TYR67       0.1605
     34  C          4.8880   -0.2230   16.1820 C.2    67  TYR67       0.2264
     35  O          5.9150   -0.8320   16.2540 O.2    67  TYR67      -0.2867
     36  CB         5.4720    1.8110   14.8080 C.3    67  TYR67       0.0534
     37  CG         5.5790    3.3450   14.8060 C.ar   67  TYR67      -0.0201
     38  CD1        6.7510    3.9610   15.3070 C.ar   67  TYR67      -0.0009
     39  CD2        4.5190    4.1570   14.4180 C.ar   67  TYR67      -0.0009
     40  CE1        6.8750    5.3230   15.4400 C.ar   67  TYR67       0.0417
     41  CE2        4.5750    5.5550   14.4940 C.ar   67  TYR67       0.0417
     42  CZ         5.7730    6.1450   14.9780 C.ar   67  TYR67       0.1957
     43  OH         5.9810    7.4990   15.1320 O.3    67  TYR67      -0.2866
     44  N          6.9670   -2.3460   13.6520 N.3    70  THR70      -0.1218
     45  CA         8.4080   -2.1640   13.8670 C.3    70  THR70       0.1862
     46  C          8.9190   -3.0030   15.0480 C.2    70  THR70       0.2287
     47  O         10.0030   -3.6080   15.0460 O.2    70  THR70      -0.2866
     48  CB         8.7100   -0.6540   14.1310 C.3    70  THR70       0.1770
     49  OG1        8.2250    0.1220   13.0160 O.3    70  THR70      -0.2211
     50  CG2       10.1690   -0.3940   14.1960 C.3    70  THR70       0.0375
     51  N          1.3420    4.7760   11.0560 N.3   111  ASN111     -0.1225
     52  CA         2.3190    5.4480   10.2530 C.3   111  ASN111      0.1785
     53  C          3.1430    4.3840    9.5380 C.2   111  ASN111      0.2598
     54  O          4.1580    3.9220   10.0440 O.2   111  ASN111     -0.2718
     55  CB         3.2330    6.3500   11.1100 C.3   111  ASN111      0.1169
     56  CG         4.2930    7.0580   10.2890 C.2   111  ASN111      0.2627
     57  OD1        4.2920    6.9410    9.0650 O.2   111  ASN111     -0.2716
     58  ND2        5.2140    7.7710   10.9460 N.am  111  ASN111     -0.0877
     59  N          2.6400    3.9530    8.3780 N.am  112  THR112     -0.1939
     60  CA         3.2280    2.7850    7.7000 C.3   112  THR112      0.2028
     61  C          4.2340    3.2810    6.6300 C.2   112  THR112      0.2642
     62  O          4.1160    4.4060    6.0440 O.2   112  THR112     -0.2714
     63  CB         2.1630    1.8650    7.0390 C.3   112  THR112      0.1808
     64  OG1        2.8430    0.8010    6.3370 O.3   112  THR112     -0.2208
     65  CG2        1.1890    2.5990    6.0620 C.3   112  THR112      0.0379
     66  N          5.1960    2.4050    6.3420 N.am  113  TYR113     -0.1973
     67  CA         5.9590    2.5700    5.1230 C.3   113  TYR113      0.1639
     68  C          4.9190    2.4820    3.9500 C.2   113  TYR113      0.2290
     69  O          3.9910    1.6480    3.9710 O.2   113  TYR113     -0.2864
     70  CB         6.8680    1.3450    4.9100 C.3   113  TYR113      0.0560
     71  CG         8.0370    1.2800    5.8800 C.ar  113  TYR113     -0.0198
     72  CD1        9.0260    2.2620    5.9090 C.ar  113  TYR113     -0.0009
     73  CD2        8.0940    0.2260    6.8290 C.ar  113  TYR113     -0.0009
     74  CE1       10.1040    2.1830    6.7860 C.ar  113  TYR113      0.0417
     75  CE2        9.1700    0.1380    7.7370 C.ar  113  TYR113      0.0417
     76  CZ        10.1620    1.1240    7.7030 C.ar  113  TYR113      0.1957
     77  OH        11.2180    1.0330    8.6360 O.3   113  TYR113     -0.2866
     78  N          6.7320    7.7260    4.7550 N.3   193  TYR193     -0.1241
     79  CA         5.9770    7.3710    5.9110 C.3   193  TYR193      0.1605
     80  C          4.5820    8.0260    5.7340 C.2   193  TYR193      0.2264
     81  O          4.5050    9.2550    5.4860 O.2   193  TYR193     -0.2867
     82  CB         6.6450    7.9100    7.1970 C.3   193  TYR193      0.0534
     83  CG         8.0000    7.3900    7.5710 C.ar  193  TYR193     -0.0201
     84  CD1        8.6560    6.4160    6.8270 C.ar  193  TYR193     -0.0009
     85  CD2        8.5600    7.7340    8.7680 C.ar  193  TYR193     -0.0009
     86  CE1        9.8900    5.9180    7.2020 C.ar  193  TYR193      0.0417
     87  CE2        9.8060    7.2570    9.1760 C.ar  193  TYR193      0.0417
     88  CZ        10.4790    6.3600    8.4040 C.ar  193  TYR193      0.1957
     89  OH        11.6860    5.8970    8.8180 O.3   193  TYR193     -0.2866
     90  N          1.4180   -0.5030   11.3590 N.3   217  TYR217     -0.1241
     91  CA         2.3500    0.3280   12.1680 C.3   217  TYR217      0.1605
     92  C          1.4870    1.2810   13.0360 C.2   217  TYR217      0.2264
     93  O          1.7290    2.4950   13.0880 O.2   217  TYR217     -0.2867
     94  CB         3.2530    1.1480   11.2180 C.3   217  TYR217      0.0534
     95  CG         4.2990    0.2590   10.5170 C.ar  217  TYR217     -0.0201
     96  CD1        5.4780   -0.1070   11.1650 C.ar  217  TYR217     -0.0009
     97  CD2        4.0450   -0.2700    9.2490 C.ar  217  TYR217     -0.0009
     98  CE1        6.4500   -0.8780   10.5540 C.ar  217  TYR217      0.0417
     99  CE2        5.0020   -1.0900    8.6580 C.ar  217  TYR217      0.0417
    100  CZ         6.2040   -1.3730    9.3180 C.ar  217  TYR217      0.1957
    101  OH         7.1700   -2.2100    8.7130 O.3   217  TYR217     -0.2866
@<TRIPOS>BOND
     1    68    69    2
     2    68    67    1
     3    78    79    1
     4    70    67    1
     5    70    71    1
     6    67    66    1
     7    81    80    2
     8    80    79    1
     9    71    72   ar
    10    71    73   ar
    11    72    74   ar
    12    79    82    1
    13    62    61    2
    14    65    63    1
    15    64    63    1
    16    66    61   am
    17    61    60    1
    18    74    76   ar
    19    84    86   ar
    20    84    83   ar
    21    73    75   ar
    22    63    60    1
    23    82    83    1
    24    86    88   ar
    25    83    85   ar
    26    60    59    1
    27    76    75   ar
    28    76    77    1
    29    59    53   am
    30    88    89    1
    31    88    87   ar
    32    99    97   ar
    33    99   100   ar
    34   101   100    1
    35    85    87   ar
    36    57    56    2
    37    97    95   ar
    38   100    98   ar
    39    53    54    2
    40    53    52    1
    41    52    51    1
    42    52    55    1
    43    56    58   am
    44    56    55    1
    45    95    96   ar
    46    95    94    1
    47    98    96   ar
    48    94    91    1
    49    90    91    1
    50    91    92    1
    51    16    15    1
    52    16    17    1
    53    49    48    1
    54    92    93    2
    55    15    14    1
    56    11    14    1
    57    11    12    1
    58    11    10    1
    59    44    45    1
    60    45    48    1
    61    45    46    1
    62    48    50    1
    63    12    13    2
    64    39    41   ar
    65    39    37   ar
    66    41    42   ar
    67     9     7   am
    68    37    36    1
    69    37    38   ar
    70    36    33    1
    71    42    43    1
    72    42    40   ar
    73    47    46    2
    74    38    40   ar
    75    22    19    1
    76    22    23    1
    77     7     6    1
    78     7     8    2
    79    19    18    1
    80    19    20    1
    81    33    34    1
    82    33    32    1
    83    34    35    2
    84     6     5    1
    85    24    20   am
    86    24    25    1
    87    28    25    1
    88    28    29    1
    89    20    21    2
    90     3     4    2
    91     3     2    1
    92     5     2    1
    93    25    26    1
    94    31    29   am
    95    29    30    2
    96     2     1    1
    97    26    27    2
