@<TRIPOS>MOLECULE
tmp/6eylB00.pdb
 98 93 0 0 0
SMALL
GASTEIGER

@<TRIPOS>ATOM
      1  N         13.0740   11.2010  -13.0490 N.3    15  GLN15      -0.1245
      2  CA        13.9020   10.7280  -14.1530 C.3    15  GLN15       0.1566
      3  C         14.1380   11.9130  -15.1000 C.2    15  GLN15       0.2260
      4  O         13.4430   12.9290  -15.0020 O.2    15  GLN15      -0.2867
      5  CB        13.1940    9.5620  -14.8670 C.3    15  GLN15       0.0367
      6  CG        14.0640    8.7850  -15.8560 C.3    15  GLN15       0.0905
      7  CD        13.5040    7.4240  -16.2270 C.2    15  GLN15       0.2608
      8  OE1       13.0110    6.6800  -15.3740 O.2    15  GLN15      -0.2717
      9  NE2       13.5990    7.0800  -17.5060 N.am   15  GLN15      -0.0878
     10  N         13.1540   13.1790  -17.7320 N.3    17  MET17      -0.1245
     11  CA        12.0640   13.3600  -18.6860 C.3    17  MET17       0.1570
     12  C         11.1900   14.4770  -18.1540 C.2    17  MET17       0.2261
     13  O         10.9630   14.5580  -16.9500 O.2    17  MET17      -0.2867
     14  CB        11.2170   12.0890  -18.7920 C.3    17  MET17       0.0387
     15  CG        11.7340   11.0490  -19.7510 C.3    17  MET17       0.0595
     16  SD        10.4830    9.7950  -19.9840 S.3    17  MET17      -0.1393
     17  CE        10.6020    8.9560  -18.4080 C.3    17  MET17       0.0692
     18  N         18.7210    8.6400  -14.2580 N.3    46  GLY46      -0.1210
     19  CA        18.8670    8.2280  -15.6450 C.3    46  GLY46       0.1956
     20  C         17.8330    7.2680  -16.2050 C.2    46  GLY46       0.2613
     21  O         17.6050    7.2610  -17.4190 O.2    46  GLY46      -0.2717
     22  N         17.2300    6.4460  -15.3470 N.am   47  SER47      -0.1938
     23  CA        16.4570    5.3120  -15.8250 C.3    47  SER47       0.2055
     24  C         15.6560    4.6470  -14.7250 C.2    47  SER47       0.2643
     25  O         15.8220    4.9470  -13.5420 O.2    47  SER47      -0.2714
     26  CB        17.4030    4.2630  -16.3960 C.3    47  SER47       0.2130
     27  OG        18.0920    3.6220  -15.3250 O.3    47  SER47      -0.2179
     28  N         14.8160    3.7050  -15.1340 N.am   48  ASN48      -0.1971
     29  CA        14.1350    2.8140  -14.2060 C.3    48  ASN48       0.1688
     30  C         15.0880    2.1960  -13.1880 C.2    48  ASN48       0.2292
     31  O         14.7900    2.1630  -11.9900 O.2    48  ASN48      -0.2864
     32  CB        13.4080    1.7150  -14.9950 C.3    48  ASN48       0.1181
     33  CG        12.7870    0.6630  -14.1050 C.2    48  ASN48       0.2629
     34  OD1       11.7740    0.9120  -13.4410 O.2    48  ASN48      -0.2716
     35  ND2       13.3780   -0.5350  -14.0970 N.am   48  ASN48      -0.0877
     36  N          6.9950    2.8720  -14.6620 N.3    67  TYR67      -0.1241
     37  CA         6.1400    2.3760  -15.7420 C.3    67  TYR67       0.1605
     38  C          6.0800    0.8530  -15.7100 C.2    67  TYR67       0.2264
     39  O          7.1230    0.2100  -15.6560 O.2    67  TYR67      -0.2867
     40  CB         6.6670    2.8820  -17.1040 C.3    67  TYR67       0.0534
     41  CG         6.8270    4.3950  -17.1280 C.ar   67  TYR67      -0.0201
     42  CD1        7.9890    4.9990  -16.6480 C.ar   67  TYR67      -0.0009
     43  CD2        5.7960    5.2180  -17.5800 C.ar   67  TYR67      -0.0009
     44  CE1        8.1300    6.3700  -16.6280 C.ar   67  TYR67       0.0417
     45  CE2        5.9330    6.6100  -17.5670 C.ar   67  TYR67       0.0417
     46  CZ         7.1050    7.1720  -17.0920 C.ar   67  TYR67       0.1957
     47  OH         7.2630    8.5400  -17.0550 O.3    67  TYR67      -0.2866
     48  N          8.2250   -1.5000  -18.0800 N.3    70  THR70      -0.1218
     49  CA         9.6550   -1.3680  -17.8440 C.3    70  THR70       0.1862
     50  C         10.0840   -2.0640  -16.5510 C.2    70  THR70       0.2287
     51  O         11.0930   -2.7760  -16.5330 O.2    70  THR70      -0.2866
     52  CB        10.0660    0.1100  -17.7690 C.3    70  THR70       0.1770
     53  OG1        9.7090    0.7660  -18.9950 O.3    70  THR70      -0.2211
     54  CG2       11.5620    0.2280  -17.5450 C.3    70  THR70       0.0375
     55  N          2.7560    5.7430  -20.9560 N.3   111  ASN111     -0.1240
     56  CA         3.7740    6.3230  -21.8140 C.3   111  ASN111      0.1653
     57  C          4.5580    5.2030  -22.4900 C.2   111  ASN111      0.2266
     58  O          5.5740    4.7270  -21.9810 O.2   111  ASN111     -0.2867
     59  CB         4.7040    7.2280  -20.9950 C.3   111  ASN111      0.1155
     60  CG         5.7270    7.9340  -21.8560 C.2   111  ASN111      0.2627
     61  OD1        5.7080    7.8260  -23.0920 O.2   111  ASN111     -0.2716
     62  ND2        6.6280    8.6580  -21.2180 N.am  111  ASN111     -0.0877
     63  N          6.6250    3.2330  -25.7000 N.3   113  TYR113     -0.1241
     64  CA         7.3690    3.3260  -26.9430 C.3   113  TYR113      0.1605
     65  C          6.3480    3.2330  -28.0760 C.2   113  TYR113      0.2264
     66  O          5.4010    2.4400  -28.0220 O.2   113  TYR113     -0.2867
     67  CB         8.3530    2.1560  -27.0700 C.3   113  TYR113      0.0534
     68  CG         9.4110    2.0730  -25.9920 C.ar  113  TYR113     -0.0201
     69  CD1       10.5290    2.9010  -26.0120 C.ar  113  TYR113     -0.0009
     70  CD2        9.3030    1.1340  -24.9740 C.ar  113  TYR113     -0.0009
     71  CE1       11.5020    2.8090  -25.0160 C.ar  113  TYR113      0.0417
     72  CE2       10.2610    1.0360  -23.9880 C.ar  113  TYR113      0.0417
     73  CZ        11.3490    1.8730  -24.0100 C.ar  113  TYR113      0.1957
     74  OH        12.2980    1.7510  -23.0140 O.3   113  TYR113     -0.2866
     75  N          8.2000    8.3670  -27.4170 N.3   188  TYR188     -0.1241
     76  CA         7.4370    8.1170  -26.1940 C.3   188  TYR188      0.1605
     77  C          6.0570    8.7590  -26.3740 C.2   188  TYR188      0.2264
     78  O          5.9630    9.9630  -26.6520 O.2   188  TYR188     -0.2867
     79  CB         8.1350    8.7240  -24.9670 C.3   188  TYR188      0.0534
     80  CG         9.4640    8.1100  -24.5770 C.ar  188  TYR188     -0.0201
     81  CD1       10.0690    7.1070  -25.3390 C.ar  188  TYR188     -0.0009
     82  CD2       10.1110    8.5220  -23.4170 C.ar  188  TYR188     -0.0009
     83  CE1       11.2920    6.5550  -24.9560 C.ar  188  TYR188      0.0417
     84  CE2       11.3210    7.9810  -23.0310 C.ar  188  TYR188      0.0417
     85  CZ        11.9120    7.0000  -23.7980 C.ar  188  TYR188      0.1957
     86  OH        13.1190    6.4690  -23.3990 O.3   188  TYR188     -0.2866
     87  N          2.6560    0.4620  -20.4680 N.3   212  TYR212     -0.1241
     88  CA         3.5620    1.2820  -19.6740 C.3   212  TYR212      0.1605
     89  C          2.7720    2.2900  -18.8480 C.2   212  TYR212      0.2264
     90  O          3.0460    3.4960  -18.8580 O.2   212  TYR212     -0.2867
     91  CB         4.5870    1.9730  -20.5690 C.3   212  TYR212      0.0534
     92  CG         5.5380    1.0230  -21.2830 C.ar  212  TYR212     -0.0201
     93  CD1        6.6830    0.5540  -20.6610 C.ar  212  TYR212     -0.0009
     94  CD2        5.2900    0.6090  -22.5790 C.ar  212  TYR212     -0.0009
     95  CE1        7.5550   -0.3100  -21.3130 C.ar  212  TYR212      0.0417
     96  CE2        6.1620   -0.2440  -23.2390 C.ar  212  TYR212      0.0417
     97  CZ         7.2860   -0.6980  -22.6030 C.ar  212  TYR212      0.1957
     98  OH         8.1480   -1.5530  -23.2610 O.3   212  TYR212     -0.2866
@<TRIPOS>BOND
     1    65    66    2
     2    65    64    1
     3    75    76    1
     4    67    64    1
     5    67    68    1
     6    64    63    1
     7    78    77    2
     8    77    76    1
     9    76    79    1
    10    69    68   ar
    11    69    71   ar
    12    68    70   ar
    13    81    83   ar
    14    81    80   ar
    15    71    73   ar
    16    70    72   ar
    17    79    80    1
    18    83    85   ar
    19    80    82   ar
    20    73    72   ar
    21    73    74    1
    22    85    86    1
    23    85    84   ar
    24    82    84   ar
    25    98    97    1
    26    96    97   ar
    27    96    94   ar
    28    61    60    2
    29    97    95   ar
    30    94    92   ar
    31    57    58    2
    32    57    56    1
    33    60    62   am
    34    60    59    1
    35    56    59    1
    36    56    55    1
    37    95    93   ar
    38    92    93   ar
    39    92    91    1
    40    91    88    1
    41    87    88    1
    42    16    15    1
    43    16    17    1
    44    15    14    1
    45    88    89    1
    46    53    52    1
    47    90    89    2
    48    14    11    1
    49    11    12    1
    50    11    10    1
    51    12    13    2
    52    48    49    1
    53    49    52    1
    54    49    50    1
    55    52    54    1
    56    43    45   ar
    57    43    41   ar
    58    45    46   ar
    59     9     7   am
    60    21    20    2
    61    41    40    1
    62    41    42   ar
    63    40    37    1
    64    46    47    1
    65    46    44   ar
    66    42    44   ar
    67    50    51    2
    68    26    23    1
    69    26    27    1
    70     7     6    1
    71     7     8    2
    72    20    19    1
    73    20    22   am
    74     6     5    1
    75    23    22    1
    76    23    24    1
    77    37    38    1
    78    37    36    1
    79    38    39    2
    80    19    18    1
    81    28    24   am
    82    28    29    1
    83     3     4    2
    84     3     2    1
    85    32    29    1
    86    32    33    1
    87     5     2    1
    88    24    25    2
    89    29    30    1
    90     2     1    1
    91    33    35   am
    92    33    34    2
    93    30    31    2
