@<TRIPOS>MOLECULE
tmp/6eyuB07.pdb
 179 174 0 0 0
SMALL
GASTEIGER

@<TRIPOS>ATOM
      1  N        -23.9710   -9.9120   35.5090 N.3    74  TYR74      -0.1241
      2  CA       -23.0820   -9.1920   34.6060 C.3    74  TYR74       0.1605
      3  C        -21.9850  -10.1120   34.0820 C.2    74  TYR74       0.2264
      4  O        -21.6690  -10.0990   32.8920 O.2    74  TYR74      -0.2867
      5  CB       -22.4560   -7.9910   35.3180 C.3    74  TYR74       0.0534
      6  CG       -23.4520   -7.1470   36.0810 C.ar   74  TYR74      -0.0201
      7  CD1      -24.3720   -6.3510   35.4130 C.ar   74  TYR74      -0.0009
      8  CD2      -23.5390   -7.2260   37.4650 C.ar   74  TYR74      -0.0009
      9  CE1      -25.3180   -5.6180   36.1040 C.ar   74  TYR74       0.0417
     10  CE2      -24.4930   -6.5110   38.1630 C.ar   74  TYR74       0.0417
     11  CZ       -25.3770   -5.7060   37.4780 C.ar   74  TYR74       0.1957
     12  OH       -26.3220   -4.9830   38.1700 O.3    74  TYR74      -0.2866
     13  N        -23.9320  -11.9580   31.3490 N.3    77  TRP77      -0.1241
     14  CA       -24.3390  -11.2060   30.1670 C.3    77  TRP77       0.1605
     15  C        -23.1210  -10.6750   29.4220 C.2    77  TRP77       0.2264
     16  O        -23.1510  -10.5030   28.2030 O.2    77  TRP77      -0.2867
     17  CB       -25.2490  -10.0450   30.5720 C.3    77  TRP77       0.0550
     18  CG       -26.4440  -10.4760   31.3640 C.ar   77  TRP77       0.0003
     19  CD1      -26.9800  -11.7300   31.4200 C.ar   77  TRP77       0.0946
     20  CD2      -27.2190   -9.6690   32.2580 C.ar   77  TRP77       0.0152
     21  NE1      -28.0690  -11.7420   32.2580 N.ar   77  TRP77      -0.2442
     22  CE2      -28.2490  -10.4830   32.7680 C.ar   77  TRP77       0.0810
     23  CE3      -27.1690   -8.3250   32.6420 C.ar   77  TRP77       0.0012
     24  CZ2      -29.2200  -10.0000   33.6430 C.ar   77  TRP77       0.0191
     25  CZ3      -28.1280   -7.8490   33.5180 C.ar   77  TRP77       0.0001
     26  CH2      -29.1370   -8.6850   34.0120 C.ar   77  TRP77       0.0015
     27  N        -22.2800  -13.6210   27.1890 N.3    80  SER80      -0.1202
     28  CA       -23.4320  -14.3350   26.6450 C.3    80  SER80       0.2020
     29  C        -24.1970  -13.4700   25.6470 C.2    80  SER80       0.2619
     30  O        -24.6070  -13.9480   24.5900 O.2    80  SER80      -0.2717
     31  CB       -24.3650  -14.7890   27.7700 C.3    80  SER80       0.2103
     32  OG       -25.1210  -13.7030   28.2770 O.3    80  SER80      -0.2182
     33  N        -24.3700  -12.1930   25.9740 N.am   81  THR81      -0.1952
     34  CA       -25.2820  -11.3340   25.2240 C.3    81  THR81       0.1897
     35  C        -24.6340  -10.8140   23.9430 C.2    81  THR81       0.2313
     36  O        -25.3300  -10.4920   22.9800 O.2    81  THR81      -0.2863
     37  CB       -25.7530  -10.1300   26.0620 C.3    81  THR81       0.1794
     38  OG1      -24.6270   -9.3260   26.4330 O.3    81  THR81      -0.2208
     39  CG2      -26.4780  -10.5970   27.3150 C.3    81  THR81       0.0378
     40  N        -25.0770  -13.9310   21.7410 N.3    84  ILE84      -0.1245
     41  CA       -26.4420  -13.8420   21.2380 C.3    84  ILE84       0.1561
     42  C        -26.5040  -12.9530   19.9990 C.2    84  ILE84       0.2260
     43  O        -27.0380  -13.3540   18.9650 O.2    84  ILE84      -0.2867
     44  CB       -27.3940  -13.2750   22.3080 C.3    84  ILE84       0.0252
     45  CG1      -27.9170  -14.4020   23.2010 C.3    84  ILE84       0.0019
     46  CG2      -28.5520  -12.5390   21.6520 C.3    84  ILE84       0.0019
     47  CD1      -28.6310  -13.9130   24.4430 C.3    84  ILE84       0.0001
     48  N        -22.7670   -4.1320   23.2180 N.3   111  GLU111     -0.1245
     49  CA       -23.3930   -4.9940   24.2130 C.3   111  GLU111      0.1567
     50  C        -22.4830   -5.1710   25.4220 C.2   111  GLU111      0.2260
     51  O        -22.9190   -5.0300   26.5640 O.2   111  GLU111     -0.2867
     52  CB       -23.7250   -6.3590   23.6060 C.3   111  GLU111      0.0388
     53  CG       -25.1910   -6.5320   23.2480 C.3   111  GLU111      0.1160
     54  CD       -26.0940   -6.5260   24.4660 C.2   111  GLU111      0.3649
     55  OE1      -25.7990   -7.2630   25.4300 O.co2 111  GLU111     -0.2457
     56  OE2      -27.0900   -5.7730   24.4660 O.co2 111  GLU111     -0.2457
     57  N        -22.3050   -2.2910   27.4630 N.3   114  LEU114     -0.1231
     58  CA       -23.6490   -1.9690   27.9250 C.3   114  LEU114      0.1693
     59  C        -24.0000   -2.8130   29.1470 C.2   114  LEU114      0.2591
     60  O        -24.5830   -2.3080   30.1110 O.2   114  LEU114     -0.2718
     61  CB       -24.6280   -2.2300   26.7760 C.3   114  LEU114      0.0284
     62  CG       -26.0970   -2.5920   26.9940 C.3   114  LEU114      0.0019
     63  CD1      -26.7730   -2.5440   25.6290 C.3   114  LEU114      0.0001
     64  CD2      -26.2670   -3.9710   27.6160 C.3   114  LEU114      0.0001
     65  N        -23.3790   -3.9880   29.2180 N.am  115  VAL115     -0.1980
     66  CA       -23.4380   -4.8190   30.4140 C.3   115  VAL115      0.1595
     67  C        -22.4590   -4.3320   31.4780 C.2   115  VAL115      0.2287
     68  O        -22.7120   -4.4810   32.6740 O.2   115  VAL115     -0.2864
     69  CB       -23.1250   -6.2920   30.0890 C.3   115  VAL115      0.0276
     70  CG1      -23.1180   -7.1270   31.3600 C.3   115  VAL115      0.0022
     71  CG2      -24.1350   -6.8400   29.0920 C.3   115  VAL115      0.0022
     72  N        -21.6450   -1.1760   31.9580 N.3   117  THR117     -0.1203
     73  CA       -22.3090   -0.0320   32.5760 C.3   117  THR117      0.1994
     74  C        -23.2300   -0.4980   33.6970 C.2   117  THR117      0.2618
     75  O        -23.2910    0.1210   34.7600 O.2   117  THR117     -0.2717
     76  CB       -23.1420    0.7720   31.5580 C.3   117  THR117      0.1784
     77  OG1      -24.1890   -0.0510   31.0300 O.3   117  THR117     -0.2211
     78  CG2      -22.2670    1.2750   30.4220 C.3   117  THR117      0.0376
     79  N        -23.9820   -1.5610   33.4340 N.am  118  GLY118     -0.1956
     80  CA       -24.8150   -2.1790   34.4580 C.3   118  GLY118      0.1869
     81  C        -24.0120   -2.5570   35.6870 C.2   118  GLY118      0.2309
     82  O        -24.4020   -2.2480   36.8120 O.2   118  GLY118     -0.2863
     83  N        -25.8200    3.7190   33.9860 N.3   130  TYR130     -0.1241
     84  CA       -26.9860    3.0240   33.4540 C.3   130  TYR130      0.1605
     85  C        -27.5390    3.7520   32.2330 C.2   130  TYR130      0.2264
     86  O        -27.9700    3.1220   31.2670 O.2   130  TYR130     -0.2867
     87  CB       -28.0680    2.9160   34.5310 C.3   130  TYR130      0.0534
     88  CG       -29.4240    2.5030   34.0050 C.ar  130  TYR130     -0.0201
     89  CD1      -29.8260    1.1740   34.0510 C.ar  130  TYR130     -0.0009
     90  CD2      -30.3730    3.4580   33.6670 C.ar  130  TYR130     -0.0009
     91  CE1      -31.1070    0.8010   33.6910 C.ar  130  TYR130      0.0417
     92  CE2      -31.6590    3.0960   33.3120 C.ar  130  TYR130      0.0417
     93  CZ       -32.0160    1.7650   33.3140 C.ar  130  TYR130      0.1957
     94  OH       -33.2870    1.3960   32.9340 O.3   130  TYR130     -0.2866
     95  N        -25.5470    3.0020   29.2640 N.3   133  GLY133     -0.1210
     96  CA       -25.9490    1.6550   28.8780 C.3   133  GLY133      0.1956
     97  C        -27.2300    1.6530   28.0680 C.2   133  GLY133      0.2611
     98  O        -27.3710    0.8900   27.1130 O.2   133  GLY133     -0.2717
     99  N        -28.1810    2.4870   28.4750 N.am  134  VAL134     -0.1979
    100  CA       -29.4650    2.5770   27.7900 C.3   134  VAL134      0.1595
    101  C        -29.2950    3.1970   26.4070 C.2   134  VAL134      0.2287
    102  O        -29.8640    2.7130   25.4280 O.2   134  VAL134     -0.2864
    103  CB       -30.4700    3.4200   28.5960 C.3   134  VAL134      0.0276
    104  CG1      -31.5190    4.0230   27.6750 C.3   134  VAL134      0.0022
    105  CG2      -31.1240    2.5730   29.6780 C.3   134  VAL134      0.0022
    106  N        -27.7690    0.5260   24.3000 N.3   137  LEU137     -0.1245
    107  CA       -28.8010   -0.4380   23.9350 C.3   137  LEU137      0.1561
    108  C        -29.5450    0.0240   22.6860 C.2   137  LEU137      0.2260
    109  O        -29.8060   -0.7670   21.7800 O.2   137  LEU137     -0.2867
    110  CB       -29.7900   -0.6320   25.0860 C.3   137  LEU137      0.0270
    111  CG       -30.8420   -1.7200   24.8560 C.3   137  LEU137      0.0019
    112  CD1      -30.2460   -2.8820   24.0760 C.3   137  LEU137      0.0001
    113  CD2      -31.4220   -2.2000   26.1770 C.3   137  LEU137      0.0001
    114  N        -34.5720   -7.6540   24.8290 N.3   174  PHE174     -0.1241
    115  CA       -33.3680   -6.9780   25.2960 C.3   174  PHE174      0.1605
    116  C        -33.7200   -5.6920   26.0370 C.2   174  PHE174      0.2264
    117  O        -33.0510   -5.3200   27.0010 O.2   174  PHE174     -0.2867
    118  CB       -32.4360   -6.6670   24.1220 C.3   174  PHE174      0.0534
    119  CG       -31.3230   -7.6620   23.9540 C.ar  174  PHE174     -0.0203
    120  CD1      -31.5260   -9.0020   24.2410 C.ar  174  PHE174     -0.0042
    121  CD2      -30.0600   -7.2510   23.5590 C.ar  174  PHE174     -0.0042
    122  CE1      -30.5010   -9.9190   24.1030 C.ar  174  PHE174     -0.0003
    123  CE2      -29.0320   -8.1640   23.4140 C.ar  174  PHE174     -0.0003
    124  CZ       -29.2520   -9.4990   23.6880 C.ar  174  PHE174     -0.0000
    125  N        -34.7660   -5.8580   30.0430 N.3   177  TYR177     -0.1228
    126  CA       -33.8320   -6.0930   31.1410 C.3   177  TYR177      0.1721
    127  C        -33.5090   -4.8000   31.8850 C.2   177  TYR177      0.2437
    128  O        -33.6300   -4.7410   33.1090 O.2   177  TYR177     -0.2733
    129  CB       -32.5420   -6.7420   30.6320 C.3   177  TYR177      0.0547
    130  CG       -32.6970   -8.1990   30.2560 C.ar  177  TYR177     -0.0200
    131  CD1      -33.1150   -8.5650   28.9840 C.ar  177  TYR177     -0.0009
    132  CD2      -32.3490   -9.2090   31.1460 C.ar  177  TYR177     -0.0009
    133  CE1      -33.2050   -9.8930   28.6150 C.ar  177  TYR177      0.0417
    134  CE2      -32.4440  -10.5410   30.7880 C.ar  177  TYR177      0.0417
    135  CZ       -32.8770  -10.8770   29.5230 C.ar  177  TYR177      0.1957
    136  OH       -32.9800  -12.2020   29.1650 O.3   177  TYR177     -0.2866
    137  N        -33.1240   -3.7470   31.1470 N.am  178  PRO178     -0.2729
    138  CA       -32.9440   -2.4440   31.7850 C.3   178  PRO178      0.1401
    139  C        -34.2190   -1.9550   32.4620 C.2   178  PRO178      0.2269
    140  O        -34.1540   -1.3310   33.5210 O.2   178  PRO178     -0.2865
    141  CB       -32.5620   -1.5170   30.6210 C.3   178  PRO178      0.0296
    142  CG       -32.8880   -2.2670   29.3720 C.3   178  PRO178      0.0237
    143  CD       -32.7770   -3.7190   29.7170 C.3   178  PRO178      0.0939
    144  N        -34.4520   -4.1680   35.7300 N.3   181  TRP181     -0.1241
    145  CA       -33.3220   -3.6960   36.5260 C.3   181  TRP181      0.1605
    146  C        -33.6870   -2.4110   37.2620 C.2   181  TRP181      0.2264
    147  O        -33.6280   -2.3490   38.4900 O.2   181  TRP181     -0.2867
    148  CB       -32.1060   -3.4510   35.6280 C.3   181  TRP181      0.0550
    149  CG       -30.7980   -3.4220   36.3670 C.ar  181  TRP181      0.0003
    150  CD1      -29.9960   -4.4920   36.6440 C.ar  181  TRP181      0.0946
    151  CD2      -30.0420   -2.2560   36.7230 C.ar  181  TRP181      0.0152
    152  NE1      -28.7970   -4.0660   37.1630 N.ar  181  TRP181     -0.2442
    153  CE2      -28.8010   -2.6980   37.2230 C.ar  181  TRP181      0.0810
    154  CE3      -30.2890   -0.8820   36.6510 C.ar  181  TRP181      0.0012
    155  CZ2      -27.8300   -1.8170   37.6940 C.ar  181  TRP181      0.0191
    156  CZ3      -29.3210   -0.0080   37.1140 C.ar  181  TRP181      0.0001
    157  CH2      -28.1070   -0.4790   37.6300 C.ar  181  TRP181      0.0015
    158  N        -34.1480  -14.6480   30.5160 N.3   209  PRO209     -0.2116
    159  CA       -32.9350  -15.2560   29.9770 C.3   209  PRO209      0.1372
    160  C        -33.2000  -16.6210   29.3500 C.2   209  PRO209      0.2244
    161  O        -32.5980  -16.9630   28.3330 O.2   209  PRO209     -0.2868
    162  CB       -32.0340  -15.3990   31.2060 C.3   209  PRO209      0.0268
    163  CG       -32.5100  -14.3500   32.1510 C.3   209  PRO209      0.0207
    164  CD       -33.9890  -14.2430   31.9240 C.3   209  PRO209      0.0892
    165  N        -34.2250  -15.8750   26.0120 N.3   212  CYS212     -0.1221
    166  CA       -33.2260  -15.1780   25.2050 C.3   212  CYS212      0.1808
    167  C        -32.1040  -16.1210   24.7760 C.2   212  CYS212      0.2601
    168  O        -31.2550  -15.7600   23.9610 O.2   212  CYS212     -0.2717
    169  CB       -32.6410  -13.9990   25.9840 C.3   212  CYS212      0.0970
    170  SG       -33.7700  -12.6010   26.1760 S.3   212  CYS212     -0.0800
    171  N        -32.0510  -17.2890   25.4050 N.am  213  LYS213     -0.1979
    172  CA       -30.8960  -18.1770   25.2940 C.3   213  LYS213      0.1596
    173  C        -31.3290  -19.5740   24.8240 C.2   213  LYS213      0.2287
    174  O        -30.9130  -20.0330   23.7610 O.2   213  LYS213     -0.2864
    175  CB       -30.1700  -18.2660   26.6370 C.3   213  LYS213      0.0298
    176  CG       -29.4340  -16.9560   26.9290 C.3   213  LYS213      0.0038
    177  CD       -28.7930  -16.9690   28.3170 C.3   213  LYS213      0.0206
    178  CE       -27.8720  -15.7610   28.4980 C.3   213  LYS213      0.1093
    179  NZ       -28.5680  -14.7250   29.2750 N.3   213  LYS213     -0.1314
@<TRIPOS>BOND
     1    43    42    2
     2    42    41    1
     3    41    40    1
     4    41    44    1
     5    46    44    1
     6   109   108    2
     7    44    45    1
     8   108   107    1
     9    36    35    2
    10    45    47    1
    11    48    49    1
    12    53    52    1
    13    53    54    1
    14   123   121   ar
    15   123   124   ar
    16   121   119   ar
    17    52    49    1
    18   124   122   ar
    19   174   173    2
    20   107   106    1
    21   107   110    1
    22    35    34    1
    23   119   118    1
    24   119   120   ar
    25   168   167    2
    26   112   111    1
    27   122   120   ar
    28   118   115    1
    29    49    50    1
    30    54    56   ar
    31    54    55   ar
    32    30    29    2
    33   167   166    1
    34   167   171   am
    35   173   172    1
    36   114   115    1
    37   111   110    1
    38   111   113    1
    39   166   169    1
    40   166   165    1
    41    34    33    1
    42    34    37    1
    43   172   171    1
    44   172   175    1
    45   115   116    1
    46    50    51    2
    47   102   101    2
    48    63    62    1
    49    29    33   am
    50    29    28    1
    51   169   170    1
    52   116   117    2
    53    37    38    1
    54    37    39    1
    55   101   100    1
    56   175   176    1
    57    28    27    1
    58    28    31    1
    59    61    62    1
    60    61    58    1
    61   176   177    1
    62    62    64    1
    63    98    97    2
    64    57    58    1
    65   104   103    1
    66    31    32    1
    67   100    99    1
    68   100   103    1
    69    58    59    1
    70    97    99   am
    71    97    96    1
    72    16    15    2
    73   177   178    1
    74   161   160    2
    75   178   179    1
    76   103   105    1
    77   133   131   ar
    78   133   135   ar
    79    96    95    1
    80   131   130   ar
    81    71    69    1
    82    59    65   am
    83    59    60    2
    84   136   135    1
    85    65    66    1
    86   160   159    1
    87   142   143    1
    88   142   141    1
    89    15    14    1
    90   135   134   ar
    91   143   137    1
    92   159   158    1
    93   159   162    1
    94   125   126    1
    95    69    66    1
    96    69    70    1
    97    14    17    1
    98    14    13    1
    99   130   129    1
   100   130   132   ar
   101    66    67    1
   102    78    76    1
   103   158   164    1
   104    17    18    1
   105   141   138    1
   106   129   126    1
   107   134   132   ar
   108    77    76    1
   109   126   127    1
   110   137   138    1
   111   137   127   am
   112   162   163    1
   113    86    85    2
   114    18    19   ar
   115    18    20   ar
   116    19    21   ar
   117    67    68    2
   118    76    73    1
   119   138   139    1
   120   127   128    2
   121   164   163    1
   122    72    73    1
   123    85    84    1
   124    20    23   ar
   125    20    22   ar
   126    21    22   ar
   127   139   140    2
   128    73    74    1
   129    23    25   ar
   130    22    24   ar
   131     4     3    2
   132    94    93    1
   133    92    93   ar
   134    92    90   ar
   135    93    91   ar
   136    79    74   am
   137    79    80    1
   138    84    83    1
   139    84    87    1
   140    25    26   ar
   141    24    26   ar
   142    90    88   ar
   143    91    89   ar
   144    74    75    2
   145    88    89   ar
   146    88    87    1
   147     3     2    1
   148    80    81    1
   149     2     5    1
   150     2     1    1
   151     5     6    1
   152     7     6   ar
   153     7     9   ar
   154   148   149    1
   155   148   145    1
   156    81    82    2
   157   144   145    1
   158     6     8   ar
   159     9    11   ar
   160   149   150   ar
   161   149   151   ar
   162   145   146    1
   163   150   152   ar
   164   154   151   ar
   165   154   156   ar
   166   151   153   ar
   167   156   157   ar
   168   152   153   ar
   169   153   155   ar
   170   146   147    2
   171     8    10   ar
   172    11    10   ar
   173    11    12    1
   174   157   155   ar
