@<TRIPOS>MOLECULE
tmp/6eyuB00.pdb
 77 73 0 0 0
SMALL
GASTEIGER

@<TRIPOS>ATOM
      1  N        -22.0640  -10.3730   30.1690 N.3    78  MET78      -0.1230
      2  CA       -20.8150   -9.9070   29.5830 C.3    78  MET78       0.1702
      3  C        -20.5470  -10.6130   28.2580 C.2    78  MET78       0.2592
      4  O        -20.3210   -9.9640   27.2350 O.2    78  MET78      -0.2718
      5  CB       -19.6550  -10.1600   30.5470 C.3    78  MET78       0.0401
      6  CG       -18.8710   -8.9120   30.9180 C.3    78  MET78       0.0596
      7  SD       -17.6910   -9.2150   32.2460 S.3    78  MET78      -0.1393
      8  CE       -17.2760  -10.9300   31.9380 C.3    78  MET78       0.0692
      9  N        -20.4770  -11.9410   28.2990 N.am   79  VAL79      -0.1980
     10  CA       -20.0240  -12.7150   27.1490 C.3    79  VAL79       0.1595
     11  C        -21.1860  -13.4250   26.4600 C.2    79  VAL79       0.2287
     12  O        -21.1160  -13.7280   25.2680 O.2    79  VAL79      -0.2864
     13  CB       -18.9620  -13.7580   27.5480 C.3    79  VAL79       0.0276
     14  CG1      -18.4590  -13.5000   28.9600 C.3    79  VAL79       0.0022
     15  CG2      -19.5210  -15.1670   27.4200 C.3    79  VAL79       0.0022
     16  N        -23.2940  -10.7500   23.9190 N.3    82  PRO82      -0.2116
     17  CA       -22.6350  -10.4870   22.6420 C.3    82  PRO82       0.1372
     18  C        -22.6560  -11.7030   21.7230 C.2    82  PRO82       0.2244
     19  O        -22.8440  -11.5630   20.5150 O.2    82  PRO82      -0.2868
     20  CB       -21.1980  -10.1500   23.0470 C.3    82  PRO82       0.0268
     21  CG       -21.3020   -9.6510   24.4460 C.3    82  PRO82       0.0207
     22  CD       -22.4280  -10.4260   25.0670 C.3    82  PRO82       0.0892
     23  N        -24.0460  -12.0740   18.1210 N.3    86  LEU86      -0.1245
     24  CA       -23.2040  -12.6550   17.0810 C.3    86  LEU86       0.1561
     25  C        -24.0050  -13.6320   16.2260 C.2    86  LEU86       0.2260
     26  O        -23.9120  -13.6190   14.9990 O.2    86  LEU86      -0.2867
     27  CB       -22.0030  -13.3750   17.7000 C.3    86  LEU86       0.0270
     28  CG       -21.1020  -14.1060   16.7020 C.3    86  LEU86       0.0019
     29  CD1      -20.2780  -13.1110   15.8980 C.3    86  LEU86       0.0001
     30  CD2      -20.1990  -15.1030   17.4120 C.3    86  LEU86       0.0001
     31  N        -18.2260   -6.6280    8.9000 N.3   101  TYR101     -0.1241
     32  CA       -17.6960   -7.2090   10.1270 C.3   101  TYR101      0.1605
     33  C        -17.3250   -6.1190   11.1280 C.2   101  TYR101      0.2264
     34  O        -17.2680   -6.3650   12.3330 O.2   101  TYR101     -0.2867
     35  CB       -16.4700   -8.0710    9.8190 C.3   101  TYR101      0.0534
     36  CG       -16.8080   -9.4400    9.2730 C.ar  101  TYR101     -0.0201
     37  CD1      -17.2280  -10.4600   10.1160 C.ar  101  TYR101     -0.0009
     38  CD2      -16.7970   -9.6850    7.9060 C.ar  101  TYR101     -0.0009
     39  CE1      -17.5800  -11.7000    9.6170 C.ar  101  TYR101      0.0417
     40  CE2      -17.1460  -10.9220    7.3980 C.ar  101  TYR101      0.0417
     41  CZ       -17.5350  -11.9260    8.2580 C.ar  101  TYR101      0.1957
     42  OH       -17.8790  -13.1610    7.7580 O.3   101  TYR101     -0.2866
     43  N        -20.5170   -5.9020   12.8740 N.3   104  LEU104     -0.1231
     44  CA       -20.5410   -7.0020   13.8320 C.3   104  LEU104      0.1693
     45  C        -19.8020   -6.6090   15.1080 C.2   104  LEU104      0.2592
     46  O        -20.3190   -6.7780   16.2120 O.2   104  LEU104     -0.2718
     47  CB       -19.8990   -8.2520   13.2270 C.3   104  LEU104      0.0284
     48  CG       -20.7790   -9.5050   13.1830 C.3   104  LEU104      0.0019
     49  CD1      -19.9210  -10.7530   13.0390 C.3   104  LEU104      0.0001
     50  CD2      -21.6580   -9.5980   14.4210 C.3   104  LEU104      0.0001
     51  N        -18.6200   -6.0240   14.9440 N.am  105  GLY105     -0.1957
     52  CA       -17.8180   -5.5860   16.0790 C.3   105  GLY105      0.1869
     53  C        -18.5190   -4.5170   16.8950 C.2   105  GLY105      0.2309
     54  O        -18.5580   -4.5860   18.1230 O.2   105  GLY105     -0.2863
     55  N        -21.3600   -6.1300   18.8170 N.3   108  LEU108     -0.1231
     56  CA       -20.9040   -6.9140   19.9580 C.3   108  LEU108      0.1693
     57  C        -20.2430   -6.0150   20.9970 C.2   108  LEU108      0.2592
     58  O        -20.4870   -6.1550   22.1960 O.2   108  LEU108     -0.2718
     59  CB       -19.9210   -7.9930   19.5010 C.3   108  LEU108      0.0284
     60  CG       -20.5070   -9.3990   19.3600 C.3   108  LEU108      0.0019
     61  CD1      -21.6030   -9.4220   18.3050 C.3   108  LEU108      0.0001
     62  CD2      -19.4150  -10.4030   19.0230 C.3   108  LEU108      0.0001
     63  N        -19.4680   -5.0440   20.5250 N.am  109  GLY109     -0.1957
     64  CA       -18.7730   -4.1200   21.4130 C.3   109  GLY109      0.1869
     65  C        -19.7370   -3.3220   22.2690 C.2   109  GLY109      0.2309
     66  O        -19.5130   -3.1380   23.4650 O.2   109  GLY109     -0.2863
     67  N        -21.2110   -5.4580   25.1650 N.3   112  PHE112     -0.1241
     68  CA       -20.2470   -5.6670   26.2380 C.3   112  PHE112      0.1605
     69  C        -20.1440   -4.4260   27.1190 C.2   112  PHE112      0.2264
     70  O        -20.2100   -4.5180   28.3450 O.2   112  PHE112     -0.2867
     71  CB       -18.8720   -6.0120   25.6630 C.3   112  PHE112      0.0534
     72  CG       -17.7930   -6.1240   26.7020 C.ar  112  PHE112     -0.0203
     73  CD1      -17.7450   -7.2140   27.5560 C.ar  112  PHE112     -0.0042
     74  CD2      -16.8590   -5.1130   26.8610 C.ar  112  PHE112     -0.0042
     75  CE1      -16.7590   -7.3150   28.5200 C.ar  112  PHE112     -0.0003
     76  CE2      -15.8700   -5.2090   27.8210 C.ar  112  PHE112     -0.0003
     77  CZ       -15.8200   -6.3110   28.6520 C.ar  112  PHE112     -0.0000
@<TRIPOS>BOND
     1    40    38   ar
     2    40    41   ar
     3    42    41    1
     4    38    36   ar
     5    41    39   ar
     6    31    32    1
     7    36    35    1
     8    36    37   ar
     9    39    37   ar
    10    35    32    1
    11    32    33    1
    12    33    34    2
    13    43    44    1
    14    49    48    1
    15    48    47    1
    16    48    50    1
    17    47    44    1
    18    44    45    1
    19    51    45   am
    20    51    52    1
    21    26    25    2
    22    45    46    2
    23    29    28    1
    24    52    53    1
    25    25    24    1
    26    28    30    1
    27    28    27    1
    28    53    54    2
    29    24    27    1
    30    24    23    1
    31    61    60    1
    32    55    56    1
    33    62    60    1
    34    60    59    1
    35    59    56    1
    36    56    57    1
    37    19    18    2
    38    63    57   am
    39    63    64    1
    40    57    58    2
    41    64    65    1
    42    18    17    1
    43    65    66    2
    44    17    20    1
    45    17    16    1
    46    20    21    1
    47    16    22    1
    48    21    22    1
    49    67    68    1
    50    12    11    2
    51    71    68    1
    52    71    72    1
    53    68    69    1
    54    11    10    1
    55    72    74   ar
    56    72    73   ar
    57    74    76   ar
    58    69    70    2
    59    10    13    1
    60    10     9    1
    61     4     3    2
    62    15    13    1
    63    13    14    1
    64    73    75   ar
    65    76    77   ar
    66     3     9   am
    67     3     2    1
    68    75    77   ar
    69     2     1    1
    70     2     5    1
    71     5     6    1
    72     6     7    1
    73     8     7    1
