@<TRIPOS>MOLECULE
tmp/6eyuB11.pdb
 86 79 0 0 0
SMALL
GASTEIGER

@<TRIPOS>ATOM
      1  N        -20.5500   -7.0400    6.6640 N.3   100  ARG100     -0.1245
      2  CA       -19.9710   -5.9080    7.3780 C.3   100  ARG100      0.1563
      3  C        -19.5140   -6.3260    8.7710 C.2   100  ARG100      0.2260
      4  O        -20.3040   -6.3430    9.7150 O.2   100  ARG100     -0.2867
      5  CB       -20.9880   -4.7700    7.4840 C.3   100  ARG100      0.0307
      6  CG       -21.1260   -3.9450    6.2150 C.3   100  ARG100      0.0489
      7  CD       -19.9980   -2.9340    6.0840 C.3   100  ARG100      0.2205
      8  NE       -20.5000   -1.5770    5.8890 N.pl3 100  ARG100     -0.0865
      9  CZ       -20.3990   -0.6060    6.7910 C.cat 100  ARG100      0.5346
     10  NH1      -20.8930    0.5960    6.5310 N.pl3 100  ARG100      0.1354
     11  NH2      -19.7690   -0.8260    7.9370 N.pl3 100  ARG100      0.1354
     12  N        -19.3630   -3.7530   11.5750 N.3   103  LEU103     -0.1245
     13  CA       -20.6720   -3.5750   12.1930 C.3   103  LEU103      0.1561
     14  C        -20.9560   -4.6890   13.1960 C.2   103  LEU103      0.2260
     15  O        -21.5580   -4.4520   14.2440 O.2   103  LEU103     -0.2867
     16  CB       -21.7660   -3.5460   11.1240 C.3   103  LEU103      0.0270
     17  CG       -21.9170   -2.2210   10.3750 C.3   103  LEU103      0.0019
     18  CD1      -23.1660   -2.2350    9.5070 C.3   103  LEU103      0.0001
     19  CD2      -21.9510   -1.0540   11.3500 C.3   103  LEU103      0.0001
     20  N        -19.0440   -3.5060   16.2100 N.3   106  ALA106     -0.1245
     21  CA       -19.8140   -2.4560   16.8660 C.3   106  ALA106      0.1562
     22  C        -20.9820   -3.0580   17.6380 C.2   106  ALA106      0.2260
     23  O        -21.1950   -2.7410   18.8080 O.2   106  ALA106     -0.2867
     24  CB       -20.3200   -1.4550   15.8390 C.3   106  ALA106      0.0290
     25  N        -20.8240   -2.8640   21.6570 N.3   110  ALA110     -0.1245
     26  CA       -21.8200   -2.0680   22.3620 C.3   110  ALA110      0.1562
     27  C        -22.4440   -2.8730   23.4960 C.2   110  ALA110      0.2260
     28  O        -22.6140   -2.3690   24.6060 O.2   110  ALA110     -0.2867
     29  CB       -22.8950   -1.5920   21.3970 C.3   110  ALA110      0.0290
     30  N        -26.5220    2.9970   24.6760 N.3   136  LEU136     -0.1245
     31  CA       -25.8420    1.9550   23.9130 C.3   136  LEU136      0.1561
     32  C        -26.8290    0.8940   23.4350 C.2   136  LEU136      0.2260
     33  O        -26.7240    0.4010   22.3120 O.2   136  LEU136     -0.2867
     34  CB       -24.7470    1.3020   24.7580 C.3   136  LEU136      0.0270
     35  CG       -23.5090    2.1640   25.0140 C.3   136  LEU136      0.0019
     36  CD1      -22.6170    1.5220   26.0660 C.3   136  LEU136      0.0001
     37  CD2      -22.7380    2.3950   23.7230 C.3   136  LEU136      0.0001
     38  N        -28.4810    2.0660   20.3910 N.3   139  GLY139     -0.1225
     39  CA       -27.5490    1.8950   19.2840 C.3   139  GLY139      0.1811
     40  C        -27.5310    0.4680   18.7750 C.2   139  GLY139      0.2280
     41  O        -27.3990    0.2290   17.5740 O.2   139  GLY139     -0.2866
     42  N        -30.8860   -0.1660   16.9430 N.3   142  TYR142     -0.1227
     43  CA       -30.7620    0.5700   15.6880 C.3   142  TYR142      0.1736
     44  C        -29.9270   -0.2210   14.6880 C.2   142  TYR142      0.2595
     45  O        -30.3220   -0.3930   13.5350 O.2   142  TYR142     -0.2718
     46  CB       -30.1210    1.9400   15.9210 C.3   142  TYR142      0.0548
     47  CG       -29.5500    2.5630   14.6650 C.ar  142  TYR142     -0.0200
     48  CD1      -30.3810    3.1830   13.7400 C.ar  142  TYR142     -0.0009
     49  CD2      -28.2210    2.3630   14.3140 C.ar  142  TYR142     -0.0009
     50  CE1      -29.8800    3.6850   12.5530 C.ar  142  TYR142      0.0417
     51  CE2      -27.7110    2.8620   13.1310 C.ar  142  TYR142      0.0417
     52  CZ       -28.5430    3.5270   12.2560 C.ar  142  TYR142      0.1957
     53  OH       -28.0390    4.0300   11.0790 O.3   142  TYR142     -0.2866
     54  N        -28.7180   -0.5860   15.1000 N.am  143  LEU143     -0.1980
     55  CA       -27.8590   -1.4360   14.2860 C.3   143  LEU143      0.1596
     56  C        -28.6570   -2.6100   13.7340 C.2   143  LEU143      0.2287
     57  O        -28.6070   -2.9000   12.5380 O.2   143  LEU143     -0.2864
     58  CB       -26.6930   -1.9630   15.1230 C.3   143  LEU143      0.0297
     59  CG       -25.2890   -1.6130   14.6260 C.3   143  LEU143      0.0022
     60  CD1      -25.3070   -0.3430   13.7900 C.3   143  LEU143      0.0001
     61  CD2      -24.3430   -1.4700   15.8080 C.3   143  LEU143      0.0001
     62  N        -31.6080   -1.6680   11.2010 N.3   146  LYS146     -0.1231
     63  CA       -31.3400   -1.0820    9.8900 C.3   146  LYS146      0.1678
     64  C        -30.2130   -1.8040    9.1530 C.2   146  LYS146      0.2434
     65  O        -30.4770   -2.6110    8.2590 O.2   146  LYS146     -0.2733
     66  CB       -31.0320    0.4100   10.0160 C.3   146  LYS146      0.0284
     67  CG       -32.1250    1.3210   10.4160 C.3   146  LYS146      0.0035
     68  CD       -33.3750    1.2840    9.5780 C.3   146  LYS146      0.0206
     69  CE       -34.5120    2.0790   10.2740 C.3   146  LYS146      0.1093
     70  NZ       -34.4300    1.9480   11.8120 N.3   146  LYS146     -0.1314
     71  N        -28.9570   -1.4090    9.4160 N.am  147  PRO147     -0.2729
     72  CA       -27.8670   -1.9200    8.5860 C.3   147  PRO147      0.1401
     73  C        -27.9290   -3.4360    8.4320 C.2   147  PRO147      0.2269
     74  O        -27.7300   -3.9550    7.3330 O.2   147  PRO147     -0.2865
     75  CB       -26.6050   -1.5150    9.3580 C.3   147  PRO147      0.0296
     76  CG       -27.0370   -0.4390   10.2950 C.3   147  PRO147      0.0237
     77  CD       -28.4610   -0.7560   10.6380 C.3   147  PRO147      0.0939
     78  N        -30.7900   -4.4770    6.3340 N.3   150  GLU150     -0.1245
     79  CA       -30.4440   -4.2500    4.9360 C.3   150  GLU150      0.1567
     80  C        -29.6760   -5.4430    4.3810 C.2   150  GLU150      0.2260
     81  O        -29.9450   -5.9080    3.2730 O.2   150  GLU150     -0.2867
     82  CB       -29.5950   -2.9850    4.8030 C.3   150  GLU150      0.0388
     83  CG       -30.1100   -1.9970    3.7710 C.3   150  GLU150      0.1160
     84  CD       -29.1600   -0.8350    3.5550 C.2   150  GLU150      0.3649
     85  OE1      -28.8630   -0.1200    4.5350 O.co2 150  GLU150     -0.2457
     86  OE2      -28.6280   -0.7040    2.4330 O.co2 150  GLU150     -0.2457
@<TRIPOS>BOND
     1    86    84   ar
     2    81    80    2
     3    84    83    1
     4    84    85   ar
     5    83    82    1
     6    80    79    1
     7    82    79    1
     8    79    78    1
     9     8     7    1
    10     8     9    2
    11     7     6    1
    12     6     5    1
    13    10     9    1
    14     1     2    1
    15     9    11    1
    16    74    73    2
    17     2     5    1
    18     2     3    1
    19    65    64    2
    20    73    72    1
    21    72    75    1
    22    72    71    1
    23     3     4    2
    24    64    71   am
    25    64    63    1
    26    75    76    1
    27    71    77    1
    28    18    17    1
    29    68    69    1
    30    68    67    1
    31    63    66    1
    32    63    62    1
    33    66    67    1
    34    69    70    1
    35    76    77    1
    36    17    16    1
    37    17    19    1
    38    53    52    1
    39    16    13    1
    40    12    13    1
    41    13    14    1
    42    52    50   ar
    43    52    51   ar
    44    57    56    2
    45    50    48   ar
    46    51    49   ar
    47    14    15    2
    48    45    44    2
    49    56    55    1
    50    48    47   ar
    51    60    59    1
    52    55    54    1
    53    55    58    1
    54    49    47   ar
    55    59    58    1
    56    59    61    1
    57    47    46    1
    58    44    54   am
    59    44    43    1
    60    43    46    1
    61    43    42    1
    62    24    21    1
    63    20    21    1
    64    21    22    1
    65    41    40    2
    66    22    23    2
    67    40    39    1
    68    39    38    1
    69    29    26    1
    70    25    26    1
    71    33    32    2
    72    26    27    1
    73    32    31    1
    74    27    28    2
    75    37    35    1
    76    31    30    1
    77    31    34    1
    78    34    35    1
    79    35    36    1
