@<TRIPOS>MOLECULE
tmp/6eyuC05.pdb
 89 84 0 0 0
SMALL
GASTEIGER

@<TRIPOS>ATOM
      1  N         -6.8690   -0.9380   29.4890 N.3    78  MET78      -0.1230
      2  CA        -7.0240   -2.3180   29.0450 C.3    78  MET78       0.1702
      3  C         -7.5550   -2.3760   27.6170 C.2    78  MET78       0.2592
      4  O         -7.0640   -3.1560   26.7990 O.2    78  MET78      -0.2718
      5  CB        -7.9780   -3.0630   29.9790 C.3    78  MET78       0.0401
      6  CG        -7.4830   -4.4340   30.4090 C.3    78  MET78       0.0596
      7  SD        -8.3480   -5.0490   31.8660 S.3    78  MET78      -0.1393
      8  CE       -10.0310   -4.5710   31.4800 C.3    78  MET78       0.0692
      9  N         -8.6590   -1.6780   27.3700 N.am   79  VAL79      -0.1980
     10  CA        -9.3950   -1.8390   26.1200 C.3    79  VAL79       0.1595
     11  C         -9.3640   -0.5680   25.2750 C.2    79  VAL79       0.2287
     12  O         -9.5790   -0.6180   24.0610 O.2    79  VAL79      -0.2864
     13  CB       -10.8630   -2.2350   26.3690 C.3    79  VAL79       0.0276
     14  CG1      -11.0890   -2.5680   27.8360 C.3    79  VAL79       0.0022
     15  CG2      -11.7990   -1.1270   25.9120 C.3    79  VAL79       0.0022
     16  N         -5.6030   -0.5010   23.2430 N.3    82  PRO82      -0.2102
     17  CA        -5.5430   -1.4020   22.0950 C.3    82  PRO82       0.1504
     18  C         -6.4410   -0.9430   20.9510 C.2    82  PRO82       0.2575
     19  O         -6.0590   -1.0490   19.7860 O.2    82  PRO82      -0.2718
     20  CB        -6.0380   -2.7350   22.6630 C.3    82  PRO82       0.0282
     21  CG        -5.7610   -2.6580   24.1230 C.3    82  PRO82       0.0208
     22  CD        -5.9120   -1.2120   24.4950 C.3    82  PRO82       0.0893
     23  N         -7.5720   -0.3330   21.2920 N.am   83  LEU83      -0.1980
     24  CA        -8.4600    0.2430   20.2900 C.3    83  LEU83       0.1596
     25  C         -7.7860    1.4180   19.5870 C.2    83  LEU83       0.2287
     26  O         -7.8890    1.5640   18.3690 O.2    83  LEU83      -0.2864
     27  CB        -9.7690    0.7030   20.9360 C.3    83  LEU83       0.0297
     28  CG       -10.7370   -0.4080   21.3530 C.3    83  LEU83       0.0022
     29  CD1      -12.0680    0.1820   21.7960 C.3    83  LEU83       0.0001
     30  CD2      -10.9410   -1.4030   20.2220 C.3    83  LEU83       0.0001
     31  N         -5.4480   -0.0820   17.2750 N.3    86  LEU86      -0.1245
     32  CA        -6.2320   -0.6380   16.1780 C.3    86  LEU86       0.1561
     33  C         -6.5850    0.4450   15.1640 C.2    86  LEU86       0.2260
     34  O         -6.4090    0.2610   13.9600 O.2    86  LEU86      -0.2867
     35  CB        -7.5110   -1.2870   16.7120 C.3    86  LEU86       0.0270
     36  CG        -8.4760   -1.8100   15.6470 C.3    86  LEU86       0.0019
     37  CD1       -7.8730   -2.9980   14.9120 C.3    86  LEU86       0.0001
     38  CD2       -9.8130   -2.1850   16.2690 C.3    86  LEU86       0.0001
     39  N         -5.2300    0.3310   11.3670 N.3    90  LEU90      -0.1245
     40  CA        -6.1630    0.2230   10.2510 C.3    90  LEU90       0.1561
     41  C         -6.0010    1.4060    9.3020 C.2    90  LEU90       0.2260
     42  O         -6.3010    1.3030    8.1120 O.2    90  LEU90      -0.2867
     43  CB        -7.6020    0.1700   10.7680 C.3    90  LEU90       0.0270
     44  CG        -8.0250   -1.1410   11.4340 C.3    90  LEU90       0.0019
     45  CD1       -9.5100   -1.1160   11.7590 C.3    90  LEU90       0.0001
     46  CD2       -7.6880   -2.3290   10.5460 C.3    90  LEU90       0.0001
     47  N         -2.6250   -9.0840    9.5890 N.3   101  TYR101     -0.1241
     48  CA        -3.4930   -9.0680   10.7600 C.3   101  TYR101      0.1605
     49  C         -2.8350   -9.7890   11.9310 C.2   101  TYR101      0.2264
     50  O         -3.2610   -9.6450   13.0770 O.2   101  TYR101     -0.2867
     51  CB        -4.8350   -9.7270   10.4340 C.3   101  TYR101      0.0534
     52  CG        -5.6910   -8.9290    9.4760 C.ar  101  TYR101     -0.0201
     53  CD1       -5.5390   -9.0640    8.1020 C.ar  101  TYR101     -0.0009
     54  CD2       -6.6050   -7.9950    9.9440 C.ar  101  TYR101     -0.0009
     55  CE1       -6.2850   -8.3020    7.2230 C.ar  101  TYR101      0.0417
     56  CE2       -7.3610   -7.2340    9.0730 C.ar  101  TYR101      0.0417
     57  CZ        -7.1970   -7.3920    7.7130 C.ar  101  TYR101      0.1957
     58  OH        -7.9500   -6.6400    6.8410 O.3   101  TYR101     -0.2866
     59  N         -1.3350   -6.8370   13.6110 N.3   104  LEU104     -0.1231
     60  CA        -2.4030   -6.1960   14.3700 C.3   104  LEU104      0.1693
     61  C         -2.5580   -6.8610   15.7340 C.2   104  LEU104      0.2592
     62  O         -2.5220   -6.1950   16.7680 O.2   104  LEU104     -0.2718
     63  CB        -3.7240   -6.2770   13.6020 C.3   104  LEU104      0.0284
     64  CG        -4.1990   -4.9880   12.9270 C.3   104  LEU104      0.0019
     65  CD1       -5.7120   -5.0010   12.7750 C.3   104  LEU104      0.0001
     66  CD2       -3.7470   -3.7620   13.7060 C.3   104  LEU104      0.0001
     67  N         -2.7210   -8.1800   15.7280 N.am  105  GLY105     -0.1957
     68  CA        -2.8930   -8.9370   16.9620 C.3   105  GLY105      0.1869
     69  C         -1.7340   -8.7380   17.9180 C.2   105  GLY105      0.2309
     70  O         -1.9320   -8.4940   19.1080 O.2   105  GLY105     -0.2863
     71  N         -1.9160   -5.2560   19.2970 N.3   108  LEU108     -0.1245
     72  CA        -2.9820   -5.1050   20.2810 C.3   108  LEU108      0.1561
     73  C         -2.6800   -5.9230   21.5330 C.2   108  LEU108      0.2260
     74  O         -2.8720   -5.4530   22.6540 O.2   108  LEU108     -0.2867
     75  CB        -4.3210   -5.5440   19.6850 C.3   108  LEU108      0.0270
     76  CG        -5.1340   -4.4380   19.0090 C.3   108  LEU108      0.0019
     77  CD1       -4.3250   -3.7770   17.9040 C.3   108  LEU108      0.0001
     78  CD2       -6.4420   -4.9900   18.4630 C.3   108  LEU108      0.0001
     79  N         -2.3530   -4.6390   25.6170 N.3   112  PHE112     -0.1241
     80  CA        -3.1620   -5.2440   26.6660 C.3   112  PHE112      0.1605
     81  C         -2.2850   -5.7360   27.8130 C.2   112  PHE112      0.2264
     82  O         -2.4830   -5.3530   28.9660 O.2   112  PHE112     -0.2867
     83  CB        -3.9740   -6.4060   26.0920 C.3   112  PHE112      0.0534
     84  CG        -4.8190   -7.1140   27.1090 C.ar  112  PHE112     -0.0203
     85  CD1       -5.9150   -6.4850   27.6770 C.ar  112  PHE112     -0.0042
     86  CD2       -4.5480   -8.4250   27.4610 C.ar  112  PHE112     -0.0042
     87  CE1       -6.7050   -7.1410   28.6010 C.ar  112  PHE112     -0.0003
     88  CE2       -5.3330   -9.0860   28.3850 C.ar  112  PHE112     -0.0003
     89  CZ        -6.4180   -8.4450   28.9510 C.ar  112  PHE112     -0.0000
@<TRIPOS>BOND
     1    58    57    1
     2    55    57   ar
     3    55    53   ar
     4    57    56   ar
     5    53    52   ar
     6    42    41    2
     7    56    54   ar
     8    41    40    1
     9    52    54   ar
    10    52    51    1
    11    47    48    1
    12    40    43    1
    13    40    39    1
    14    51    48    1
    15    46    44    1
    16    48    49    1
    17    43    44    1
    18    44    45    1
    19    49    50    2
    20    65    64    1
    21    64    63    1
    22    64    66    1
    23    63    60    1
    24    59    60    1
    25    34    33    2
    26    60    61    1
    27    37    36    1
    28    33    32    1
    29    36    38    1
    30    36    35    1
    31    67    61   am
    32    67    68    1
    33    61    62    2
    34    32    35    1
    35    32    31    1
    36    68    69    1
    37    77    76    1
    38    69    70    2
    39    26    25    2
    40    78    76    1
    41    76    75    1
    42    71    72    1
    43    25    24    1
    44    75    72    1
    45    19    18    2
    46    30    28    1
    47    72    73    1
    48    24    27    1
    49    24    23    1
    50    27    28    1
    51    18    23   am
    52    18    17    1
    53    28    29    1
    54    73    74    2
    55    17    20    1
    56    17    16    1
    57    20    21    1
    58    16    22    1
    59    12    11    2
    60    21    22    1
    61    11    10    1
    62    79    80    1
    63    15    13    1
    64    83    80    1
    65    83    84    1
    66    10    13    1
    67    10     9    1
    68    13    14    1
    69    80    81    1
    70     4     3    2
    71    84    86   ar
    72    84    85   ar
    73     9     3   am
    74    86    88   ar
    75     3     2    1
    76    85    87   ar
    77    81    82    2
    78    88    89   ar
    79    87    89   ar
    80     2     1    1
    81     2     5    1
    82     5     6    1
    83     6     7    1
    84     8     7    1
