@<TRIPOS>MOLECULE
tmp/6eyuA13.pdb
 104 99 0 0 0
SMALL
GASTEIGER

@<TRIPOS>ATOM
      1  N         12.8820  -18.3730   32.3840 N.3    23  THR23      -0.1218
      2  CA        12.9280  -19.1550   31.1530 C.3    23  THR23       0.1862
      3  C         11.7950  -18.7530   30.2150 C.2    23  THR23       0.2287
      4  O         11.9210  -18.8560   28.9950 O.2    23  THR23      -0.2866
      5  CB        12.8200  -20.6640   31.4420 C.3    23  THR23       0.1770
      6  OG1       11.7350  -20.9060   32.3460 O.3    23  THR23      -0.2211
      7  CG2       14.1120  -21.1880   32.0480 C.3    23  THR23       0.0375
      8  N         12.7790  -15.5500   28.4710 N.3    26  ILE26      -0.1231
      9  CA        13.8590  -15.8460   27.5370 C.3    26  ILE26       0.1692
     10  C         13.3380  -16.6270   26.3340 C.2    26  ILE26       0.2592
     11  O         13.5470  -16.2270   25.1890 O.2    26  ILE26      -0.2718
     12  CB        14.9820  -16.6540   28.2160 C.3    26  ILE26       0.0266
     13  CG1       16.0210  -15.7070   28.8190 C.3    26  ILE26       0.0019
     14  CG2       15.6420  -17.5890   27.2140 C.3    26  ILE26       0.0020
     15  CD1       16.7570  -16.2860   30.0080 C.3    26  ILE26       0.0001
     16  N         12.5570  -17.6680   26.6030 N.am   27  SER27      -0.1952
     17  CA        11.8620  -18.3970   25.5480 C.3    27  SER27       0.1924
     18  C         11.0690  -17.4390   24.6630 C.2    27  SER27       0.2314
     19  O         11.0330  -17.5920   23.4430 O.2    27  SER27      -0.2863
     20  CB        10.9220  -19.4410   26.1540 C.3    27  SER27       0.2116
     21  OG        11.6500  -20.5350   26.6840 O.3    27  SER27      -0.2180
     22  N         13.0740  -15.6050   22.1850 N.3    30  LEU30      -0.1245
     23  CA        13.5210  -16.5620   21.1790 C.3    30  LEU30       0.1561
     24  C         12.4000  -16.8740   20.1910 C.2    30  LEU30       0.2260
     25  O         12.6290  -16.9450   18.9840 O.2    30  LEU30      -0.2867
     26  CB        14.0000  -17.8540   21.8480 C.3    30  LEU30       0.0270
     27  CG        15.5050  -17.9620   22.1060 C.3    30  LEU30       0.0019
     28  CD1       16.1680  -16.5940   22.0610 C.3    30  LEU30       0.0001
     29  CD2       15.7680  -18.6430   23.4400 C.3    30  LEU30       0.0001
     30  N          5.8700  -25.7030   32.1340 N.3   210  PHE210     -0.1241
     31  CA         7.1410  -25.6160   31.4240 C.3   210  PHE210      0.1605
     32  C          7.0840  -26.4310   30.1370 C.2   210  PHE210      0.2264
     33  O          7.5320  -25.9750   29.0840 O.2   210  PHE210     -0.2867
     34  CB         8.2880  -26.1160   32.3050 C.3   210  PHE210      0.0534
     35  CG         9.6370  -26.0250   31.6480 C.ar  210  PHE210     -0.0203
     36  CD1       10.2600  -24.7980   31.4860 C.ar  210  PHE210     -0.0042
     37  CD2       10.2130  -27.1430   31.0670 C.ar  210  PHE210     -0.0042
     38  CE1       11.4590  -24.6970   30.8060 C.ar  210  PHE210     -0.0003
     39  CE2       11.4220  -27.0520   30.4040 C.ar  210  PHE210     -0.0003
     40  CZ        12.0460  -25.8270   30.2720 C.ar  210  PHE210     -0.0000
     41  N          6.9600  -23.3640   27.3590 N.3   214  GLN214     -0.1231
     42  CA         8.3480  -23.1520   26.9590 C.3   214  GLN214      0.1698
     43  C          8.7820  -24.2030   25.9420 C.2   214  GLN214      0.2592
     44  O          9.1780  -23.8730   24.8240 O.2   214  GLN214     -0.2718
     45  CB         9.2700  -23.1980   28.1800 C.3   214  GLN214      0.0381
     46  CG         9.4680  -21.8520   28.8580 C.3   214  GLN214      0.0905
     47  CD         8.6770  -21.7260   30.1460 C.2   214  GLN214      0.2608
     48  OE1        9.2130  -21.3280   31.1800 O.2   214  GLN214     -0.2717
     49  NE2        7.3880  -22.0370   30.0810 N.am  214  GLN214     -0.0878
     50  N          8.6480  -25.4710   26.3170 N.am  215  VAL215     -0.1980
     51  CA         9.0460  -26.5750   25.4500 C.3   215  VAL215      0.1595
     52  C          8.1720  -26.6230   24.2010 C.2   215  VAL215      0.2287
     53  O          8.6580  -26.8840   23.1010 O.2   215  VAL215     -0.2864
     54  CB         8.9370  -27.9250   26.1830 C.3   215  VAL215      0.0276
     55  CG1        9.2140  -29.0740   25.2250 C.3   215  VAL215      0.0022
     56  CG2        9.8930  -27.9650   27.3650 C.3   215  VAL215      0.0022
     57  N          8.8820  -24.2300   21.0470 N.3   218  PHE218     -0.1227
     58  CA         9.9590  -24.7530   20.2140 C.3   218  PHE218      0.1736
     59  C          9.4790  -25.9640   19.4220 C.2   218  PHE218      0.2595
     60  O          9.5180  -25.9690   18.1910 O.2   218  PHE218     -0.2718
     61  CB        11.1580  -25.1420   21.0810 C.3   218  PHE218      0.0547
     62  CG        11.8850  -23.9680   21.6700 C.ar  218  PHE218     -0.0202
     63  CD1       12.5470  -23.0680   20.8520 C.ar  218  PHE218     -0.0042
     64  CD2       11.8050  -23.6980   23.0260 C.ar  218  PHE218     -0.0042
     65  CE1       13.1630  -21.9500   21.3810 C.ar  218  PHE218     -0.0003
     66  CE2       12.4140  -22.5790   23.5620 C.ar  218  PHE218     -0.0003
     67  CZ        13.0940  -21.7030   22.7380 C.ar  218  PHE218     -0.0000
     68  N          8.8950  -26.9240   20.1310 N.am  219  LEU219     -0.1980
     69  CA         8.4410  -28.1690   19.5230 C.3   219  LEU219      0.1596
     70  C          7.5520  -27.8820   18.3160 C.2   219  LEU219      0.2287
     71  O          7.7000  -28.5010   17.2630 O.2   219  LEU219     -0.2864
     72  CB         7.6690  -28.9980   20.5510 C.3   219  LEU219      0.0297
     73  CG         7.7300  -30.5210   20.4070 C.3   219  LEU219      0.0022
     74  CD1        6.3350  -31.0850   20.1900 C.3   219  LEU219      0.0001
     75  CD2        8.6620  -30.9330   19.2780 C.3   219  LEU219      0.0001
     76  N          9.5240  -26.0840   15.2350 N.3   222  TYR222     -0.1227
     77  CA        10.5130  -26.9630   14.6210 C.3   222  TYR222      0.1736
     78  C          9.8400  -28.0940   13.8460 C.2   222  TYR222      0.2595
     79  O         10.3030  -28.4810   12.7730 O.2   222  TYR222     -0.2718
     80  CB        11.4490  -27.5390   15.6860 C.3   222  TYR222      0.0548
     81  CG        12.6740  -26.6900   15.9480 C.ar  222  TYR222     -0.0200
     82  CD1       13.7590  -26.7150   15.0820 C.ar  222  TYR222     -0.0009
     83  CD2       12.7410  -25.8560   17.0570 C.ar  222  TYR222     -0.0009
     84  CE1       14.8780  -25.9380   15.3150 C.ar  222  TYR222      0.0417
     85  CE2       13.8540  -25.0720   17.2950 C.ar  222  TYR222      0.0417
     86  CZ        14.9200  -25.1190   16.4230 C.ar  222  TYR222      0.1957
     87  OH        16.0330  -24.3440   16.6600 O.3   222  TYR222     -0.2866
     88  N          8.7080  -28.5720   14.3560 N.am  223  LEU223     -0.1980
     89  CA         7.9660  -29.6440   13.6990 C.3   223  LEU223      0.1596
     90  C          7.4050  -29.1700   12.3610 C.2   223  LEU223      0.2287
     91  O          7.4760  -29.8850   11.3610 O.2   223  LEU223     -0.2864
     92  CB         6.8250  -30.1320   14.5960 C.3   223  LEU223      0.0297
     93  CG         6.9650  -31.5570   15.1360 C.3   223  LEU223      0.0022
     94  CD1        8.4030  -31.8420   15.5410 C.3   223  LEU223      0.0001
     95  CD2        6.0210  -31.7790   16.3090 C.3   223  LEU223      0.0001
     96  N         10.5710  -28.5620   10.0710 N.3   226  LYS226     -0.1245
     97  CA        10.9700  -29.8720    9.5690 C.3   226  LYS226      0.1561
     98  C         10.0030  -30.3520    8.4930 C.2   226  LYS226      0.2260
     99  O         10.4210  -30.8390    7.4430 O.2   226  LYS226     -0.2867
    100  CB        11.0140  -30.8850   10.7140 C.3   226  LYS226      0.0271
    101  CG        12.3930  -31.1020   11.2930 C.3   226  LYS226      0.0035
    102  CD        13.3990  -31.3510   10.1630 C.3   226  LYS226      0.0206
    103  CE        12.8750  -32.4130    9.1680 C.3   226  LYS226      0.1093
    104  NZ        13.7650  -32.6660    8.0400 N.3   226  LYS226     -0.1314
@<TRIPOS>BOND
     1    99    98    2
     2   104   103    1
     3    98    97    1
     4   103   102    1
     5    97    96    1
     6    97   100    1
     7   102   101    1
     8   100   101    1
     9    91    90    2
    10    90    89    1
    11    79    78    2
    12    89    88    1
    13    89    92    1
    14    78    88   am
    15    78    77    1
    16    92    93    1
    17    77    76    1
    18    77    80    1
    19    82    84   ar
    20    82    81   ar
    21    93    94    1
    22    93    95    1
    23    84    86   ar
    24    80    81    1
    25    81    83   ar
    26    86    87    1
    27    86    85   ar
    28    83    85   ar
    29    71    70    2
    30    60    59    2
    31    70    69    1
    32    25    24    2
    33    75    73    1
    34    59    68   am
    35    59    58    1
    36    69    68    1
    37    69    72    1
    38    74    73    1
    39    24    23    1
    40    58    57    1
    41    58    61    1
    42    73    72    1
    43    63    65   ar
    44    63    62   ar
    45    61    62    1
    46    23    26    1
    47    23    22    1
    48    65    67   ar
    49    62    64   ar
    50    26    27    1
    51    28    27    1
    52    27    29    1
    53    67    66   ar
    54    64    66   ar
    55    53    52    2
    56    19    18    2
    57    52    51    1
    58    18    17    1
    59    44    43    2
    60    11    10    2
    61    55    54    1
    62    51    54    1
    63    51    50    1
    64    17    20    1
    65    17    16    1
    66    43    50   am
    67    43    42    1
    68    20    21    1
    69    54    56    1
    70    10    16   am
    71    10     9    1
    72    42    41    1
    73    42    45    1
    74    14    12    1
    75     9    12    1
    76     9     8    1
    77    45    46    1
    78    12    13    1
    79    13    15    1
    80    46    47    1
    81     4     3    2
    82    33    32    2
    83    49    47   am
    84    32    31    1
    85    47    48    2
    86     3     2    1
    87    40    39   ar
    88    40    38   ar
    89    39    37   ar
    90    38    36   ar
    91    37    35   ar
    92     2     5    1
    93     2     1    1
    94    31    30    1
    95    31    34    1
    96     5     7    1
    97     5     6    1
    98    36    35   ar
    99    35    34    1
