@<TRIPOS>MOLECULE
tmp/6eyuB05.pdb
 93 88 0 0 0
SMALL
GASTEIGER

@<TRIPOS>ATOM
      1  N        -21.5430  -23.6080   13.1280 N.3    43  LYS43      -0.1245
      2  CA       -21.1380  -22.4270   13.8830 C.3    43  LYS43       0.1561
      3  C        -22.2680  -21.9550   14.7930 C.2    43  LYS43       0.2260
      4  O        -22.0240  -21.4720   15.8990 O.2    43  LYS43      -0.2867
      5  CB       -20.7270  -21.2990   12.9330 C.3    43  LYS43       0.0271
      6  CG       -21.8870  -20.6490   12.1970 C.3    43  LYS43       0.0035
      7  CD       -21.4210  -19.4630   11.3660 C.3    43  LYS43       0.0206
      8  CE       -21.6690  -19.6890    9.8840 C.3    43  LYS43       0.1093
      9  NZ       -20.4910  -19.3120    9.0550 N.3    43  LYS43      -0.1314
     10  N        -22.6320  -23.9780   17.9030 N.3    46  ILE46      -0.1231
     11  CA       -21.4900  -23.7420   18.7770 C.3    46  ILE46       0.1692
     12  C        -21.6940  -22.4730   19.5970 C.2    46  ILE46       0.2591
     13  O        -21.4080  -22.4450   20.7940 O.2    46  ILE46      -0.2718
     14  CB       -20.1880  -23.6050   17.9650 C.3    46  ILE46       0.0266
     15  CG1      -19.6520  -24.9880   17.5900 C.3    46  ILE46       0.0019
     16  CG2      -19.1470  -22.8290   18.7570 C.3    46  ILE46       0.0020
     17  CD1      -18.7910  -24.9910   16.3460 C.3    46  ILE46       0.0001
     18  N        -22.2660  -21.4520   18.9670 N.am   47  ILE47      -0.1980
     19  CA       -22.4970  -20.1760   19.6340 C.3    47  ILE47       0.1595
     20  C        -23.5820  -20.3110   20.6970 C.2    47  ILE47       0.2287
     21  O        -23.4100  -19.8610   21.8300 O.2    47  ILE47      -0.2864
     22  CB       -22.9150  -19.0840   18.6320 C.3    47  ILE47       0.0276
     23  CG1      -21.7590  -18.7660   17.6810 C.3    47  ILE47       0.0022
     24  CG2      -23.3450  -17.8260   19.3710 C.3    47  ILE47       0.0022
     25  CD1      -22.2060  -18.2900   16.3170 C.3    47  ILE47       0.0001
     26  N        -22.3270  -22.2230   23.8560 N.3    50  PHE50      -0.1241
     27  CA       -21.5520  -21.4470   24.8170 C.3    50  PHE50       0.1605
     28  C        -22.4380  -20.4430   25.5460 C.2    50  PHE50       0.2264
     29  O        -22.2720  -20.2120   26.7440 O.2    50  PHE50      -0.2867
     30  CB       -20.4080  -20.7140   24.1140 C.3    50  PHE50       0.0534
     31  CG       -19.1940  -21.5680   23.8840 C.ar   50  PHE50      -0.0203
     32  CD1      -18.4760  -22.0760   24.9540 C.ar   50  PHE50      -0.0042
     33  CD2      -18.8440  -21.9620   22.6040 C.ar   50  PHE50      -0.0042
     34  CE1      -17.3890  -22.9030   24.7480 C.ar   50  PHE50      -0.0003
     35  CE2      -17.7480  -22.7750   22.3890 C.ar   50  PHE50      -0.0003
     36  CZ       -17.0260  -23.2560   23.4630 C.ar   50  PHE50      -0.0000
     37  N        -22.3940  -20.9600   29.2850 N.3    54  TRP54      -0.1241
     38  CA       -21.8100  -19.8460   30.0220 C.3    54  TRP54       0.1605
     39  C        -22.7940  -19.3170   31.0590 C.2    54  TRP54       0.2264
     40  O        -22.4910  -19.2790   32.2520 O.2    54  TRP54      -0.2867
     41  CB       -21.4070  -18.7190   29.0690 C.3    54  TRP54       0.0550
     42  CG       -20.7070  -17.5880   29.7590 C.ar   54  TRP54       0.0003
     43  CD1      -21.2850  -16.4530   30.2520 C.ar   54  TRP54       0.0946
     44  CD2      -19.3560  -17.5860   30.2390 C.ar   54  TRP54       0.0152
     45  NE1      -20.3660  -15.7230   30.9660 N.ar   54  TRP54      -0.2442
     46  CE2      -19.1700  -16.3910   30.9620 C.ar   54  TRP54       0.0810
     47  CE3      -18.2870  -18.4800   30.1270 C.ar   54  TRP54       0.0012
     48  CZ2      -17.9520  -16.0570   31.5510 C.ar   54  TRP54       0.0191
     49  CZ3      -17.0780  -18.1460   30.7110 C.ar   54  TRP54       0.0001
     50  CH2      -16.9190  -16.9420   31.4080 C.ar   54  TRP54       0.0015
     51  N        -20.4770  -11.9410   28.2990 N.3    79  VAL79      -0.1245
     52  CA       -20.0240  -12.7150   27.1490 C.3    79  VAL79       0.1561
     53  C        -21.1860  -13.4250   26.4600 C.2    79  VAL79       0.2260
     54  O        -21.1160  -13.7280   25.2680 O.2    79  VAL79      -0.2867
     55  CB       -18.9620  -13.7580   27.5480 C.3    79  VAL79       0.0252
     56  CG1      -18.4590  -13.5000   28.9600 C.3    79  VAL79       0.0019
     57  CG2      -19.5210  -15.1670   27.4200 C.3    79  VAL79       0.0019
     58  N        -22.5570  -12.8900   22.3120 N.3    83  LEU83      -0.1245
     59  CA       -22.6680  -14.1310   21.5570 C.3    83  LEU83       0.1561
     60  C        -24.0610  -14.2670   20.9520 C.2    83  LEU83       0.2260
     61  O        -24.2080  -14.6000   19.7760 O.2    83  LEU83      -0.2867
     62  CB       -22.3750  -15.3290   22.4620 C.3    83  LEU83       0.0270
     63  CG       -20.9090  -15.5090   22.8610 C.3    83  LEU83       0.0019
     64  CD1      -20.7150  -16.8260   23.5960 C.3    83  LEU83       0.0001
     65  CD2      -20.0070  -15.4350   21.6390 C.3    83  LEU83       0.0001
     66  N        -24.0460  -12.0740   18.1210 N.3    86  LEU86      -0.1245
     67  CA       -23.2040  -12.6550   17.0810 C.3    86  LEU86       0.1561
     68  C        -24.0050  -13.6320   16.2260 C.2    86  LEU86       0.2260
     69  O        -23.9120  -13.6190   14.9990 O.2    86  LEU86      -0.2867
     70  CB       -22.0030  -13.3750   17.7000 C.3    86  LEU86       0.0270
     71  CG       -21.1020  -14.1060   16.7020 C.3    86  LEU86       0.0019
     72  CD1      -20.2780  -13.1110   15.8980 C.3    86  LEU86       0.0001
     73  CD2      -20.1990  -15.1030   17.4120 C.3    86  LEU86       0.0001
     74  N        -24.7910  -13.0910   12.4300 N.3    90  LEU90      -0.1245
     75  CA       -24.2820  -14.0980   11.5080 C.3    90  LEU90       0.1561
     76  C        -25.4200  -14.7220   10.7120 C.2    90  LEU90       0.2260
     77  O        -25.2550  -15.0720    9.5430 O.2    90  LEU90      -0.2867
     78  CB       -23.5270  -15.1830   12.2770 C.3    90  LEU90       0.0270
     79  CG       -22.0620  -14.8450   12.5490 C.3    90  LEU90       0.0019
     80  CD1      -21.4050  -15.9140   13.4070 C.3    90  LEU90       0.0001
     81  CD2      -21.3160  -14.6660   11.2370 C.3    90  LEU90       0.0001
     82  N        -18.2260   -6.6280    8.9000 N.3   101  TYR101     -0.1241
     83  CA       -17.6960   -7.2090   10.1270 C.3   101  TYR101      0.1605
     84  C        -17.3250   -6.1190   11.1280 C.2   101  TYR101      0.2264
     85  O        -17.2680   -6.3650   12.3330 O.2   101  TYR101     -0.2867
     86  CB       -16.4700   -8.0710    9.8190 C.3   101  TYR101      0.0534
     87  CG       -16.8080   -9.4400    9.2730 C.ar  101  TYR101     -0.0201
     88  CD1      -17.2280  -10.4600   10.1160 C.ar  101  TYR101     -0.0009
     89  CD2      -16.7970   -9.6850    7.9060 C.ar  101  TYR101     -0.0009
     90  CE1      -17.5800  -11.7000    9.6170 C.ar  101  TYR101      0.0417
     91  CE2      -17.1460  -10.9220    7.3980 C.ar  101  TYR101      0.0417
     92  CZ       -17.5350  -11.9260    8.2580 C.ar  101  TYR101      0.1957
     93  OH       -17.8790  -13.1610    7.7580 O.3   101  TYR101     -0.2866
@<TRIPOS>BOND
     1    91    89   ar
     2    91    92   ar
     3    93    92    1
     4    89    87   ar
     5    92    90   ar
     6    82    83    1
     7     9     8    1
     8    87    86    1
     9    87    88   ar
    10    77    76    2
    11    90    88   ar
    12    86    83    1
    13     8     7    1
    14    83    84    1
    15    76    75    1
    16    84    85    2
    17    81    79    1
    18     7     6    1
    19    75    78    1
    20    75    74    1
    21     6     5    1
    22    78    79    1
    23    79    80    1
    24     5     2    1
    25     1     2    1
    26     2     3    1
    27     3     4    2
    28    69    68    2
    29    72    71    1
    30    68    67    1
    31    25    23    1
    32    17    15    1
    33    71    73    1
    34    71    70    1
    35    67    70    1
    36    67    66    1
    37    15    14    1
    38    23    22    1
    39    10    11    1
    40    14    16    1
    41    14    11    1
    42    22    24    1
    43    22    19    1
    44    11    12    1
    45    18    12   am
    46    18    19    1
    47    12    13    2
    48    19    20    1
    49    61    60    2
    50    20    21    2
    51    60    59    1
    52    59    58    1
    53    59    62    1
    54    65    63    1
    55    35    33   ar
    56    35    36   ar
    57    62    63    1
    58    33    31   ar
    59    63    64    1
    60    36    34   ar
    61    26    27    1
    62    31    30    1
    63    31    32   ar
    64    30    27    1
    65    34    32   ar
    66    27    28    1
    67    54    53    2
    68    28    29    2
    69    53    52    1
    70    52    55    1
    71    52    51    1
    72    57    55    1
    73    55    56    1
    74    41    42    1
    75    41    38    1
    76    37    38    1
    77    42    44   ar
    78    42    43   ar
    79    38    39    1
    80    47    44   ar
    81    47    49   ar
    82    44    46   ar
    83    43    45   ar
    84    49    50   ar
    85    46    45   ar
    86    46    48   ar
    87    39    40    2
    88    50    48   ar
