@<TRIPOS>MOLECULE
tmp/6eyuA14.pdb
 85 80 0 0 0
SMALL
GASTEIGER

@<TRIPOS>ATOM
      1  N         -6.1660  -18.7220   31.6870 N.3    78  MET78      -0.1230
      2  CA        -7.3660  -18.0940   31.1580 C.3    78  MET78       0.1702
      3  C         -7.1200  -17.5450   29.7570 C.2    78  MET78       0.2592
      4  O         -8.0260  -17.5260   28.9240 O.2    78  MET78      -0.2718
      5  CB        -7.8130  -16.9670   32.0880 C.3    78  MET78       0.0401
      6  CG        -8.7870  -15.9840   31.4610 C.3    78  MET78       0.0596
      7  SD        -9.4190  -14.8180   32.6810 S.3    78  MET78      -0.1393
      8  CE        -8.9490  -15.6510   34.1950 C.3    78  MET78       0.0692
      9  N         -5.8820  -17.1440   29.4820 N.am   79  VAL79      -0.1980
     10  CA        -5.5280  -16.6720   28.1470 C.3    79  VAL79       0.1595
     11  C         -4.3600  -17.4450   27.5370 C.2    79  VAL79       0.2287
     12  O         -4.2700  -17.5730   26.3150 O.2    79  VAL79      -0.2864
     13  CB        -5.2020  -15.1640   28.1380 C.3    79  VAL79       0.0276
     14  CG1       -5.2930  -14.5850   29.5420 C.3    79  VAL79       0.0022
     15  CG2       -3.8300  -14.9160   27.5320 C.3    79  VAL79       0.0022
     16  N         -5.8500  -20.9920   25.7820 N.3    82  PRO82      -0.2102
     17  CA        -6.4910  -20.8050   24.4860 C.3    82  PRO82       0.1504
     18  C         -5.4930  -20.5040   23.3730 C.2    82  PRO82       0.2575
     19  O         -5.7070  -20.9020   22.2280 O.2    82  PRO82      -0.2718
     20  CB        -7.4080  -19.6070   24.7240 C.3    82  PRO82       0.0282
     21  CG        -7.7760  -19.7100   26.1630 C.3    82  PRO82       0.0208
     22  CD        -6.5820  -20.3050   26.8620 C.3    82  PRO82       0.0893
     23  N         -4.3770  -19.8750   23.7270 N.am   83  LEU83      -0.1980
     24  CA        -3.3500  -19.5370   22.7490 C.3    83  LEU83       0.1596
     25  C         -2.5710  -20.7810   22.3390 C.2    83  LEU83       0.2287
     26  O         -2.3810  -21.0430   21.1510 O.2    83  LEU83      -0.2864
     27  CB        -2.3950  -18.4900   23.3220 C.3    83  LEU83       0.0297
     28  CG        -2.9940  -17.0950   23.5060 C.3    83  LEU83       0.0022
     29  CD1       -1.9740  -16.1500   24.1230 C.3    83  LEU83       0.0001
     30  CD2       -3.4990  -16.5520   22.1780 C.3    83  LEU83       0.0001
     31  N         -4.8490  -22.1980   19.9240 N.3    86  LEU86      -0.1245
     32  CA        -4.7490  -21.4160   18.6970 C.3    86  LEU86       0.1561
     33  C         -3.5870  -21.9160   17.8470 C.2    86  LEU86       0.2260
     34  O         -3.7310  -22.1310   16.6440 O.2    86  LEU86      -0.2867
     35  CB        -4.5520  -19.9330   19.0200 C.3    86  LEU86       0.0270
     36  CG        -4.5930  -19.0020   17.8070 C.3    86  LEU86       0.0019
     37  CD1       -5.8950  -19.1830   17.0410 C.3    86  LEU86       0.0001
     38  CD2       -4.4140  -17.5520   18.2290 C.3    86  LEU86       0.0001
     39  N         -3.8960  -23.6260   14.3070 N.3    90  LEU90      -0.1245
     40  CA        -3.2950  -22.9750   13.1510 C.3    90  LEU90       0.1561
     41  C         -2.2810  -23.8920   12.4820 C.2    90  LEU90       0.2260
     42  O         -2.1990  -23.9560   11.2550 O.2    90  LEU90      -0.2867
     43  CB        -2.6200  -21.6710   13.5740 C.3    90  LEU90       0.0270
     44  CG        -3.6090  -20.5680   13.9450 C.3    90  LEU90       0.0019
     45  CD1       -2.8990  -19.2410   14.1620 C.3    90  LEU90       0.0001
     46  CD2       -4.6700  -20.4480   12.8630 C.3    90  LEU90       0.0001
     47  N        -12.9540  -21.8740   11.1260 N.3   101  TYR101     -0.1241
     48  CA       -12.6220  -20.9600   12.2110 C.3   101  TYR101      0.1605
     49  C        -13.6740  -21.0250   13.3140 C.2   101  TYR101      0.2264
     50  O        -13.4900  -20.4580   14.3910 O.2   101  TYR101     -0.2867
     51  CB       -12.5110  -19.5290   11.6830 C.3   101  TYR101      0.0534
     52  CG       -11.2270  -19.2540   10.9330 C.ar  101  TYR101     -0.0201
     53  CD1      -10.0210  -19.1210   11.6100 C.ar  101  TYR101     -0.0009
     54  CD2      -11.2020  -19.2420    9.5450 C.ar  101  TYR101     -0.0009
     55  CE1       -8.8370  -18.9210   10.9270 C.ar  101  TYR101      0.0417
     56  CE2      -10.0220  -19.0410    8.8530 C.ar  101  TYR101      0.0417
     57  CZ        -8.8430  -18.8800    9.5490 C.ar  101  TYR101      0.1957
     58  OH        -7.6670  -18.6770    8.8650 O.3   101  TYR101     -0.2866
     59  N        -12.1370  -23.4720   15.5730 N.3   104  LEU104     -0.1245
     60  CA       -11.1260  -22.6960   16.2820 C.3   104  LEU104      0.1561
     61  C        -11.7650  -21.9060   17.4190 C.2   104  LEU104      0.2260
     62  O        -11.2370  -21.8600   18.5300 O.2   104  LEU104     -0.2867
     63  CB       -10.4200  -21.7380   15.3200 C.3   104  LEU104      0.0270
     64  CG        -8.9330  -22.0020   15.0660 C.3   104  LEU104      0.0019
     65  CD1       -8.2090  -20.6970   14.7730 C.3   104  LEU104      0.0001
     66  CD2       -8.2930  -22.7180   16.2450 C.3   104  LEU104      0.0001
     67  N        -11.1830  -22.6740   21.3270 N.3   108  LEU108     -0.1245
     68  CA       -10.6950  -21.6330   22.2240 C.3   108  LEU108      0.1561
     69  C        -11.7040  -21.3570   23.3330 C.2   108  LEU108      0.2260
     70  O        -11.3300  -21.1330   24.4840 O.2   108  LEU108     -0.2867
     71  CB       -10.4140  -20.3470   21.4450 C.3   108  LEU108      0.0270
     72  CG        -8.9540  -20.1550   21.0320 C.3   108  LEU108      0.0019
     73  CD1       -8.5850  -21.1320   19.9270 C.3   108  LEU108      0.0001
     74  CD2       -8.6970  -18.7210   20.5960 C.3   108  LEU108      0.0001
     75  N        -11.3100  -21.6750   27.4750 N.3   112  PHE112     -0.1241
     76  CA       -11.4530  -20.5030   28.3290 C.3   112  PHE112      0.1605
     77  C        -12.5410  -20.7310   29.3740 C.2   112  PHE112      0.2264
     78  O        -12.3310  -20.5050   30.5660 O.2   112  PHE112     -0.2867
     79  CB       -11.7990  -19.2790   27.4780 C.3   112  PHE112      0.0534
     80  CG       -12.4620  -18.1750   28.2470 C.ar  112  PHE112     -0.0203
     81  CD1      -11.7100  -17.3030   29.0160 C.ar  112  PHE112     -0.0042
     82  CD2      -13.8280  -17.9700   28.1510 C.ar  112  PHE112     -0.0042
     83  CE1      -12.3130  -16.2670   29.7040 C.ar  112  PHE112     -0.0003
     84  CE2      -14.4370  -16.9350   28.8350 C.ar  112  PHE112     -0.0003
     85  CZ       -13.6780  -16.0820   29.6130 C.ar  112  PHE112     -0.0000
@<TRIPOS>BOND
     1    56    54   ar
     2    56    57   ar
     3    58    57    1
     4    54    52   ar
     5    57    55   ar
     6    55    53   ar
     7    52    53   ar
     8    52    51    1
     9    47    48    1
    10    42    41    2
    11    51    48    1
    12    48    49    1
    13    41    40    1
    14    46    44    1
    15    40    43    1
    16    40    39    1
    17    49    50    2
    18    43    44    1
    19    44    45    1
    20    65    64    1
    21    64    63    1
    22    64    66    1
    23    63    60    1
    24    59    60    1
    25    60    61    1
    26    34    33    2
    27    37    36    1
    28    61    62    2
    29    36    38    1
    30    36    35    1
    31    33    32    1
    32    32    35    1
    33    32    31    1
    34    73    72    1
    35    74    72    1
    36    72    71    1
    37    26    25    2
    38    67    68    1
    39    71    68    1
    40    30    28    1
    41    68    69    1
    42    19    18    2
    43    25    24    1
    44    24    27    1
    45    24    23    1
    46    27    28    1
    47    69    70    2
    48    18    23   am
    49    18    17    1
    50    28    29    1
    51    17    20    1
    52    17    16    1
    53    20    21    1
    54    16    22    1
    55    21    22    1
    56    12    11    2
    57    75    76    1
    58    79    80    1
    59    79    76    1
    60    15    13    1
    61    11    10    1
    62    13    10    1
    63    13    14    1
    64    10     9    1
    65    82    80   ar
    66    82    84   ar
    67    80    81   ar
    68    76    77    1
    69    84    85   ar
    70     4     3    2
    71    81    83   ar
    72    77    78    2
    73     9     3   am
    74    85    83   ar
    75     3     2    1
    76     2     1    1
    77     2     5    1
    78     6     5    1
    79     6     7    1
    80     7     8    1
