@<TRIPOS>MOLECULE
tmp/6eyvB00.pdb
 134 132 0 0 0
SMALL
GASTEIGER

@<TRIPOS>ATOM
      1  N         39.6820   12.1500   51.5650 N.3   176  HIS176     -0.1241
      2  CA        38.8850   11.8190   50.3900 C.3   176  HIS176      0.1621
      3  C         39.6050   12.2230   49.1090 C.2   176  HIS176      0.2264
      4  O         39.6710   11.4460   48.1490 O.2   176  HIS176     -0.2867
      5  CB        37.5220   12.5040   50.4900 C.3   176  HIS176      0.0745
      6  CG        36.4850   11.9280   49.5790 C.ar  176  HIS176      0.0817
      7  ND1       35.7460   12.7000   48.7100 N.ar  176  HIS176     -0.2268
      8  CD2       36.0600   10.6540   49.4060 C.ar  176  HIS176      0.1154
      9  CE1       34.9110   11.9260   48.0390 C.ar  176  HIS176      0.1986
     10  NE2       35.0820   10.6800   48.4430 N.ar  176  HIS176     -0.2212
     11  N         41.3420    9.3460   46.3440 N.3   180  HIS180     -0.1241
     12  CA        41.0830    9.3300   44.9090 C.3   180  HIS180      0.1621
     13  C         42.3140    9.7410   44.1130 C.2   180  HIS180      0.2264
     14  O         42.6260    9.1280   43.0860 O.2   180  HIS180     -0.2867
     15  CB        39.9180   10.2610   44.5690 C.3   180  HIS180      0.0745
     16  CG        38.5690    9.6630   44.8160 C.ar  180  HIS180      0.0817
     17  ND1       37.9820    8.7680   43.9480 N.ar  180  HIS180     -0.2268
     18  CD2       37.6870    9.8390   45.8280 C.ar  180  HIS180      0.1154
     19  CE1       36.8000    8.4130   44.4180 C.ar  180  HIS180      0.1986
     20  NE2       36.5970    9.0490   45.5580 N.ar  180  HIS180     -0.2212
     21  N         43.8210    7.5010   41.1800 N.3   184  ASP184     -0.1239
     22  CA        43.4140    8.1060   39.9140 C.3   184  ASP184      0.1674
     23  C         44.6160    8.4830   39.0580 C.2   184  ASP184      0.2266
     24  O         44.5400    8.4230   37.8260 O.2   184  ASP184     -0.2867
     25  CB        42.5510    9.3460   40.1610 C.3   184  ASP184      0.1410
     26  CG        41.1160    9.0040   40.5180 C.2   184  ASP184      0.3668
     27  OD1       40.5850    8.0100   39.9780 O.co2 184  ASP184     -0.2456
     28  OD2       40.5150    9.7350   41.3320 O.co2 184  ASP184     -0.2456
     29  N         42.9970    3.9580   36.9350 N.3   214  ARG214     -0.1245
     30  CA        42.7220    4.4210   35.5800 C.3   214  ARG214      0.1563
     31  C         43.8250    3.9990   34.6160 C.2   214  ARG214      0.2260
     32  O         44.1060    4.7010   33.6420 O.2   214  ARG214     -0.2867
     33  CB        42.5410    5.9390   35.5560 C.3   214  ARG214      0.0307
     34  CG        41.7020    6.4670   36.7120 C.3   214  ARG214      0.0489
     35  CD        41.4390    7.9600   36.5980 C.3   214  ARG214      0.2205
     36  NE        40.2100    8.2450   35.8630 N.pl3 214  ARG214     -0.0865
     37  CZ        38.9970    8.2850   36.4090 C.cat 214  ARG214      0.5346
     38  NH1       38.8350    8.0540   37.7070 N.pl3 214  ARG214      0.1354
     39  NH2       37.9400    8.5550   35.6540 N.pl3 214  ARG214      0.1354
     40  N         34.5330   21.7090   27.0940 N.3   288  TYR288     -0.1241
     41  CA        34.0370   21.2880   28.4000 C.3   288  TYR288      0.1605
     42  C         32.6130   21.7750   28.6300 C.2   288  TYR288      0.2264
     43  O         31.7980   21.0690   29.2370 O.2   288  TYR288     -0.2867
     44  CB        34.9650   21.8040   29.4990 C.3   288  TYR288      0.0534
     45  CG        34.4500   21.5980   30.9070 C.ar  288  TYR288     -0.0201
     46  CD1       34.6780   20.4070   31.5830 C.ar  288  TYR288     -0.0009
     47  CD2       33.7520   22.6000   31.5660 C.ar  288  TYR288     -0.0009
     48  CE1       34.2150   20.2160   32.8710 C.ar  288  TYR288      0.0417
     49  CE2       33.2860   22.4170   32.8540 C.ar  288  TYR288      0.0417
     50  CZ        33.5210   21.2240   33.5000 C.ar  288  TYR288      0.1957
     51  OH        33.0600   21.0360   34.7830 O.3   288  TYR288     -0.2866
     52  N         30.3190   19.5920   26.8270 N.3   291  TRP291     -0.1241
     53  CA        30.2930   18.3070   27.5180 C.3   291  TRP291      0.1605
     54  C         29.4070   18.3710   28.7540 C.2   291  TRP291      0.2264
     55  O         28.5480   17.5060   28.9610 O.2   291  TRP291     -0.2867
     56  CB        31.7140   17.8870   27.8970 C.3   291  TRP291      0.0550
     57  CG        31.7710   16.6540   28.7490 C.ar  291  TRP291      0.0003
     58  CD1       31.6190   15.3640   28.3320 C.ar  291  TRP291      0.0946
     59  CD2       32.0070   16.5930   30.1610 C.ar  291  TRP291      0.0152
     60  NE1       31.7400   14.5040   29.3960 N.ar  291  TRP291     -0.2442
     61  CE2       31.9790   15.2330   30.5310 C.ar  291  TRP291      0.0810
     62  CE3       32.2370   17.5550   31.1490 C.ar  291  TRP291      0.0012
     63  CZ2       32.1700   14.8120   31.8460 C.ar  291  TRP291      0.0191
     64  CZ3       32.4270   17.1330   32.4550 C.ar  291  TRP291      0.0001
     65  CH2       32.3920   15.7750   32.7910 C.ar  291  TRP291      0.0015
     66  N         29.6460    6.8560   38.0480 N.3   335  HIS335     -0.1226
     67  CA        30.0210    7.6280   39.2300 C.3   335  HIS335      0.1752
     68  C         30.4630    9.0400   38.8620 C.2   335  HIS335      0.2596
     69  O         29.9450   10.0250   39.3970 O.2   335  HIS335     -0.2718
     70  CB        31.1350    6.8960   39.9760 C.3   335  HIS335      0.0759
     71  CG        31.7410    7.6810   41.0950 C.ar  335  HIS335      0.0818
     72  ND1       32.8500    8.4820   40.9240 N.ar  335  HIS335     -0.2268
     73  CD2       31.4100    7.7720   42.4050 C.ar  335  HIS335      0.1154
     74  CE1       33.1680    9.0410   42.0770 C.ar  335  HIS335      0.1986
     75  NE2       32.3110    8.6260   42.9920 N.ar  335  HIS335     -0.2212
     76  N         31.4230    9.1560   37.9430 N.am  336  ASP336     -0.1974
     77  CA        31.9200   10.4740   37.5620 C.3   336  ASP336      0.1709
     78  C         30.8290   11.3240   36.9230 C.2   336  ASP336      0.2293
     79  O         30.8110   12.5470   37.1060 O.2   336  ASP336     -0.2864
     80  CB        33.1100   10.3320   36.6110 C.3   336  ASP336      0.1436
     81  CG        34.3170    9.6870   37.2750 C.2   336  ASP336      0.3671
     82  OD1       34.2810    9.4670   38.5050 O.co2 336  ASP336     -0.2456
     83  OD2       35.3010    9.3960   36.5640 O.co2 336  ASP336     -0.2456
     84  N         28.3360   12.7510   39.6350 N.3   339  HIS339     -0.1226
     85  CA        28.8580   13.9300   40.3160 C.3   339  HIS339      0.1752
     86  C         28.5730   15.1910   39.5120 C.2   339  HIS339      0.2595
     87  O         27.9900   16.1520   40.0270 O.2   339  HIS339     -0.2718
     88  CB        30.3600   13.7760   40.5560 C.3   339  HIS339      0.0759
     89  CG        30.7010   12.9450   41.7540 C.ar  339  HIS339      0.0818
     90  ND1       31.0850   13.4980   42.9560 N.ar  339  HIS339     -0.2268
     91  CD2       30.7170   11.6040   41.9340 C.ar  339  HIS339      0.1154
     92  CE1       31.3230   12.5330   43.8260 C.ar  339  HIS339      0.1986
     93  NE2       31.1070   11.3740   43.2310 N.ar  339  HIS339     -0.2212
     94  N         28.9620   15.1990   38.2360 N.am  340  MET340     -0.1979
     95  CA        28.8420   16.4060   37.4280 C.3   340  MET340      0.1605
     96  C         27.4050   16.7060   37.0190 C.2   340  MET340      0.2287
     97  O         27.0920   17.8660   36.7330 O.2   340  MET340     -0.2864
     98  CB        29.7220   16.2890   36.1810 C.3   340  MET340      0.0413
     99  CG        31.2070   16.1130   36.4840 C.3   340  MET340      0.0598
    100  SD        31.8610   17.3330   37.6460 S.3   340  MET340     -0.1393
    101  CE        31.5140   18.8650   36.7850 C.3   340  MET340      0.0692
    102  N         30.6890   19.2660   43.8350 N.3   376  LEU376     -0.1231
    103  CA        30.6630   17.8320   43.5720 C.3   376  LEU376      0.1693
    104  C         31.7380   17.3910   42.5890 C.2   376  LEU376      0.2593
    105  O         32.0040   16.1900   42.4860 O.2   376  LEU376     -0.2718
    106  CB        29.2880   17.4240   43.0430 C.3   376  LEU376      0.0284
    107  CG        28.2270   17.1010   44.1000 C.3   376  LEU376      0.0019
    108  CD1       26.8500   16.9970   43.4650 C.3   376  LEU376      0.0001
    109  CD2       28.5700   15.8120   44.8310 C.3   376  LEU376      0.0001
    110  N         32.3550   18.3190   41.8630 N.am  377  GLY377     -0.1942
    111  CA        33.3960   17.9700   40.9190 C.3   377  GLY377      0.2014
    112  C         34.7710   17.7620   41.5100 C.2   377  GLY377      0.2639
    113  O         35.7340   17.5930   40.7600 O.2   377  GLY377     -0.2714
    114  N         34.8960   17.7660   42.8410 N.am  378  ASP378     -0.1957
    115  CA        36.1830   17.6310   43.5070 C.3   378  ASP378      0.1825
    116  C         36.0140   16.6690   44.6810 C.2   378  ASP378      0.2464
    117  O         35.1090   16.8670   45.5130 O.2   378  ASP378     -0.2730
    118  CB        36.6900   18.9930   43.9930 C.3   378  ASP378      0.1450
    119  CG        38.1000   18.9330   44.5640 C.2   378  ASP378      0.3671
    120  OD1       38.5150   17.8600   45.0500 O.co2 378  ASP378     -0.2456
    121  OD2       38.7950   19.9720   44.5320 O.co2 378  ASP378     -0.2456
    122  N         36.8460   15.6270   44.7870 N.am  379  PRO379     -0.2727
    123  CA        36.7590   14.7490   45.9670 C.3   379  PRO379      0.1402
    124  C         37.0840   15.4590   47.2660 C.2   379  PRO379      0.2269
    125  O         36.6590   15.0000   48.3330 O.2   379  PRO379     -0.2865
    126  CB        37.7800   13.6440   45.6610 C.3   379  PRO379      0.0296
    127  CG        38.7300   14.2620   44.7010 C.3   379  PRO379      0.0237
    128  CD        37.9110   15.1950   43.8640 C.3   379  PRO379      0.0939
    129  N         33.3600   16.9020   47.4800 N.3   382  SER382     -0.1217
    130  CA        32.1490   16.2700   46.9660 C.3   382  SER382      0.1889
    131  C         31.3520   15.6000   48.0800 C.2   382  SER382      0.2288
    132  O         30.1160   15.5950   48.0510 O.2   382  SER382     -0.2866
    133  CB        32.5110   15.2620   45.8760 C.3   382  SER382      0.2089
    134  OG        33.4090   14.2830   46.3640 O.3   382  SER382     -0.2183
@<TRIPOS>BOND
     1    52    53    1
     2    40    41    1
     3    53    56    1
     4    53    54    1
     5    56    57    1
     6    58    57   ar
     7    58    60   ar
     8    41    42    1
     9    41    44    1
    10    42    43    2
    11    57    59   ar
    12    54    55    2
    13    60    61   ar
    14    44    45    1
    15    59    61   ar
    16    59    62   ar
    17    61    63   ar
    18    45    47   ar
    19    45    46   ar
    20    62    64   ar
    21    47    49   ar
    22    46    48   ar
    23    63    65   ar
    24    64    65   ar
    25    49    50   ar
    26    48    50   ar
    27    50    51    1
    28    32    31    2
    29    31    30    1
    30    33    30    1
    31    33    34    1
    32    30    29    1
    33    39    37    1
    34    36    37    2
    35    36    35    1
    36    98    99    1
    37    98    95    1
    38    37    38    1
    39    99   100    1
    40    83    81   ar
    41    35    34    1
    42    80    81    1
    43    80    77    1
    44    97    96    2
    45   101   100    1
    46    78    79    2
    47    78    77    1
    48    96    95    1
    49    81    82   ar
    50    95    94    1
    51    77    76    1
    52    24    23    2
    53    76    68   am
    54    66    67    1
    55    94    86   am
    56    68    67    1
    57    68    69    2
    58    23    22    1
    59    67    70    1
    60    86    87    2
    61    86    85    1
    62    84    85    1
    63    22    25    1
    64    22    21    1
    65    70    71    1
    66    27    26   ar
    67    25    26    1
    68    85    88    1
    69    26    28   ar
    70    88    89    1
    71   113   112    2
    72   111   112    1
    73   111   110    1
    74    72    71   ar
    75    72    74   ar
    76    71    73   ar
    77   112   114   am
    78    89    91   ar
    79    89    90   ar
    80   110   104   am
    81    91    93   ar
    82    74    75   ar
    83    73    75   ar
    84   105   104    2
    85   104   103    1
    86   114   115    1
    87    90    92   ar
    88   106   103    1
    89   106   107    1
    90    14    13    2
    91    93    92   ar
    92   108   107    1
    93   115   118    1
    94   115   116    1
    95   103   102    1
    96   128   127    1
    97   128   122    1
    98    17    19   ar
    99    17    16   ar
   100   118   119    1
   101   107   109    1
   102    13    12    1
   103    19    20   ar
   104   121   119   ar
   105   119   120   ar
   106    15    16    1
   107    15    12    1
   108   116   122   am
   109   116   117    2
   110   127   126    1
   111   122   123    1
   112    16    18   ar
   113    12    11    1
   114    20    18   ar
   115   126   123    1
   116   133   134    1
   117   133   130    1
   118   123   124    1
   119   130   129    1
   120   130   131    1
   121   124   125    2
   122     9    10   ar
   123     9     7   ar
   124   132   131    2
   125     4     3    2
   126    10     8   ar
   127     7     6   ar
   128     3     2    1
   129     8     6   ar
   130     6     5    1
   131     2     5    1
   132     2     1    1
