@<TRIPOS>MOLECULE
tmp/6eyzA00.pdb
 205 191 0 0 0
SMALL
GASTEIGER

@<TRIPOS>ATOM
      1  N          6.5580  -28.4900   15.6730 N.3   586  GLN586     -0.1245
      2  CA         5.7530  -28.9560   16.8060 C.3   586  GLN586      0.1566
      3  C          4.2470  -28.8600   16.5610 C.2   586  GLN586      0.2260
      4  O          3.4570  -29.2660   17.4170 O.2   586  GLN586     -0.2867
      5  CB         6.1710  -28.2490   18.1050 C.3   586  GLN586      0.0367
      6  CG         7.6500  -28.5080   18.4690 C.3   586  GLN586      0.0905
      7  CD         8.0380  -29.9800   18.5310 C.2   586  GLN586      0.2608
      8  OE1        7.4040  -30.7930   19.2180 O.2   586  GLN586     -0.2717
      9  NE2        9.1010  -30.3560   17.8150 N.am  586  GLN586     -0.0878
     10  N          0.6790  -29.8520   14.6560 N.3   588  THR588     -0.1218
     11  CA         0.0830  -31.1010   14.1730 C.3   588  THR588      0.1862
     12  C         -1.4250  -30.9020   14.1460 C.2   588  THR588      0.2287
     13  O         -1.9090  -29.7670   14.1780 O.2   588  THR588     -0.2866
     14  CB         0.6320  -32.3670   14.9770 C.3   588  THR588      0.1770
     15  OG1        0.0150  -33.5690   14.4970 O.3   588  THR588     -0.2211
     16  CG2        0.4150  -32.2800   16.4960 C.3   588  THR588      0.0375
     17  N         -5.1930  -33.1090   15.5860 N.3   590  MET590     -0.1245
     18  CA        -5.7400  -34.2520   16.3440 C.3   590  MET590      0.1570
     19  C         -6.6670  -35.0940   15.4550 C.2   590  MET590      0.2261
     20  O         -7.1830  -34.5900   14.4490 O.2   590  MET590     -0.2867
     21  CB        -6.3690  -33.8340   17.6800 C.3   590  MET590      0.0387
     22  CG        -5.3160  -33.3980   18.6980 C.3   590  MET590      0.0595
     23  SD        -5.8860  -33.2190   20.4190 S.3   590  MET590     -0.1393
     24  CE        -7.0070  -31.7060   20.2510 C.3   590  MET590      0.0692
     25  N         -9.5990  -36.5500   15.9420 N.3   592  SER592     -0.1217
     26  CA       -11.0500  -36.4620   16.0860 C.3   592  SER592      0.1889
     27  C        -11.7030  -35.9590   14.7930 C.2   592  SER592      0.2288
     28  O        -11.0290  -35.3980   13.9220 O.2   592  SER592     -0.2866
     29  CB       -11.4320  -35.5790   17.2720 C.3   592  SER592      0.2089
     30  OG       -10.8400  -34.2900   17.2230 O.3   592  SER592     -0.2183
     31  N         -8.8690  -31.1210   14.3670 N.3   596  PRO596     -0.2116
     32  CA        -8.4580  -29.8180   14.8990 C.3   596  PRO596      0.1372
     33  C         -6.9560  -29.6350   14.8900 C.2   596  PRO596      0.2244
     34  O         -6.2060  -30.5520   15.2470 O.2   596  PRO596     -0.2868
     35  CB        -9.0190  -29.8150   16.3300 C.3   596  PRO596      0.0268
     36  CG        -9.1800  -31.2330   16.6940 C.3   596  PRO596      0.0207
     37  CD        -9.4910  -31.9530   15.4180 C.3   596  PRO596      0.0892
     38  N         -3.3270  -28.2560   16.0350 N.3   598  TRP598     -0.1241
     39  CA        -2.5540  -28.1200   17.2630 C.3   598  TRP598      0.1605
     40  C         -1.3610  -27.2330   16.8900 C.2   598  TRP598      0.2264
     41  O         -0.4170  -27.7050   16.2970 O.2   598  TRP598     -0.2867
     42  CB        -2.0850  -29.5170   17.7360 C.3   598  TRP598      0.0550
     43  CG        -1.3200  -29.5200   19.0310 C.ar  598  TRP598      0.0003
     44  CD1        0.0140  -29.2580   19.2060 C.ar  598  TRP598      0.0946
     45  CD2       -1.8510  -29.8060   20.3400 C.ar  598  TRP598      0.0152
     46  NE1        0.3480  -29.3700   20.5410 N.ar  598  TRP598     -0.2442
     47  CE2       -0.7800  -29.7040   21.2600 C.ar  598  TRP598      0.0810
     48  CE3       -3.1230  -30.1870   20.8180 C.ar  598  TRP598      0.0012
     49  CZ2       -0.9420  -29.9810   22.6260 C.ar  598  TRP598      0.0191
     50  CZ3       -3.2900  -30.4070   22.1750 C.ar  598  TRP598      0.0001
     51  CH2       -2.2210  -30.2610   23.0700 C.ar  598  TRP598      0.0015
     52  N         -5.4760  -24.4820   19.9270 N.3   615  ILE615     -0.1245
     53  CA        -6.1600  -25.5200   19.1380 C.3   615  ILE615      0.1561
     54  C         -7.1810  -24.8030   18.2630 C.2   615  ILE615      0.2260
     55  O         -8.0650  -24.1720   18.8110 O.2   615  ILE615     -0.2867
     56  CB        -6.8500  -26.6240   20.0110 C.3   615  ILE615      0.0252
     57  CG1       -5.8140  -27.4070   20.8810 C.3   615  ILE615      0.0019
     58  CG2       -7.7500  -27.5870   19.1600 C.3   615  ILE615      0.0019
     59  CD1       -6.4180  -27.9780   22.0870 C.3   615  ILE615      0.0001
     60  N        -10.3150  -25.1530   16.0440 N.3   617  LYS617     -0.1245
     61  CA       -11.4250  -26.0810   15.8480 C.3   617  LYS617      0.1561
     62  C        -12.5020  -25.4780   14.9400 C.2   617  LYS617      0.2260
     63  O        -13.0360  -24.4070   15.2090 O.2   617  LYS617     -0.2867
     64  CB       -12.0430  -26.4760   17.1860 C.3   617  LYS617      0.0271
     65  CG       -11.9930  -27.9640   17.4080 C.3   617  LYS617      0.0035
     66  CD       -13.3510  -28.5300   17.6620 C.3   617  LYS617      0.0206
     67  CE       -13.2010  -29.9400   18.1480 C.3   617  LYS617      0.1093
     68  NZ       -12.9830  -29.9400   19.6180 N.3   617  LYS617     -0.1314
     69  N        -17.4850  -27.4040   14.8060 N.3   620  ASP620     -0.1239
     70  CA       -18.2850  -27.5130   16.0220 C.3   620  ASP620      0.1674
     71  C        -18.7530  -26.1790   16.6140 C.2   620  ASP620      0.2266
     72  O        -18.1500  -25.1380   16.3860 O.2   620  ASP620     -0.2867
     73  CB       -17.5490  -28.3540   17.0780 C.3   620  ASP620      0.1410
     74  CG       -17.5190  -29.8550   16.7870 C.2   620  ASP620      0.3668
     75  OD1      -18.3230  -30.3270   15.9250 O.co2 620  ASP620     -0.2456
     76  OD2      -16.7210  -30.5600   17.4220 O.co2 620  ASP620     -0.2456
     77  N        -18.8810  -24.0450   19.7230 N.3   622  LEU622     -0.1245
     78  CA       -18.1020  -23.9820   20.9780 C.3   622  LEU622      0.1561
     79  C        -18.7010  -23.1430   22.1170 C.2   622  LEU622      0.2260
     80  O        -18.0900  -23.0870   23.1810 O.2   622  LEU622     -0.2867
     81  CB       -16.6570  -23.4970   20.7040 C.3   622  LEU622      0.0270
     82  CG       -15.7390  -24.4170   19.8960 C.3   622  LEU622      0.0019
     83  CD1      -14.3170  -23.8610   19.8640 C.3   622  LEU622      0.0001
     84  CD2      -15.7390  -25.8360   20.4240 C.3   622  LEU622      0.0001
     85  N        -19.4390  -25.0630   25.4460 N.3   625  ASP625     -0.1239
     86  CA       -18.1310  -25.4150   26.0370 C.3   625  ASP625      0.1674
     87  C        -17.5580  -24.2020   26.7480 C.2   625  ASP625      0.2266
     88  O        -17.1410  -24.3260   27.8920 O.2   625  ASP625     -0.2867
     89  CB       -17.1650  -25.8760   24.9600 C.3   625  ASP625      0.1410
     90  CG       -17.2310  -27.3690   24.7510 C.2   625  ASP625      0.3668
     91  OD1      -16.4860  -28.1000   25.4540 O.co2 625  ASP625     -0.2456
     92  OD2      -18.0350  -27.8150   23.8980 O.co2 625  ASP625     -0.2456
     93  N         -9.2160  -23.8810   31.2190 N.3   651  TYR651     -0.1241
     94  CA        -8.4590  -23.4690   30.0290 C.3   651  TYR651      0.1605
     95  C         -9.3920  -22.6380   29.1200 C.2   651  TYR651      0.2264
     96  O        -10.6210  -22.8220   29.1710 O.2   651  TYR651     -0.2867
     97  CB        -7.9020  -24.7130   29.2840 C.3   651  TYR651      0.0534
     98  CG        -8.9800  -25.7000   28.8980 C.ar  651  TYR651     -0.0201
     99  CD1       -9.6670  -25.5770   27.6960 C.ar  651  TYR651     -0.0009
    100  CD2       -9.3140  -26.7660   29.7360 C.ar  651  TYR651     -0.0009
    101  CE1      -10.7140  -26.4370   27.3690 C.ar  651  TYR651      0.0417
    102  CE2      -10.3430  -27.6480   29.4080 C.ar  651  TYR651      0.0417
    103  CZ       -11.0590  -27.4580   28.2370 C.ar  651  TYR651      0.1957
    104  OH       -12.0810  -28.2940   27.9060 O.3   651  TYR651     -0.2866
    105  N        -11.4270  -21.1010   25.9430 N.3   653  CYS653     -0.1235
    106  CA       -12.2500  -21.6640   24.8830 C.3   653  CYS653      0.1677
    107  C        -13.0370  -20.5150   24.3320 C.2   653  CYS653      0.2270
    108  O        -13.8870  -19.9740   25.0180 O.2   653  CYS653     -0.2867
    109  CB       -13.1550  -22.7850   25.3830 C.3   653  CYS653      0.0956
    110  SG       -14.2050  -23.5040   24.1030 S.3   653  CYS653     -0.0801
    111  N         -9.1420  -23.0920   21.4190 N.3   663  ILE663     -0.1231
    112  CA        -9.0870  -23.7700   22.7020 C.3   663  ILE663      0.1692
    113  C         -7.6450  -23.7000   23.1380 C.2   663  ILE663      0.2592
    114  O         -6.7510  -23.7780   22.3010 O.2   663  ILE663     -0.2718
    115  CB        -9.6280  -25.2260   22.6240 C.3   663  ILE663      0.0266
    116  CG1      -11.0380  -25.2570   21.9150 C.3   663  ILE663      0.0019
    117  CG2       -9.7210  -25.8150   24.0320 C.3   663  ILE663      0.0020
    118  CD1      -11.5170  -26.5320   21.4020 C.3   663  ILE663      0.0001
    119  N         -7.4060  -23.5130   24.4390 N.am  664  GLU664     -0.1966
    120  CA        -6.0440  -23.3860   24.9520 C.3   664  GLU664      0.1733
    121  C         -5.4810  -24.7260   25.1230 C.2   664  GLU664      0.2616
    122  O         -6.1800  -25.6090   25.6210 O.2   664  GLU664     -0.2715
    123  CB        -6.0720  -22.6750   26.3040 C.3   664  GLU664      0.0429
    124  CG        -4.7390  -22.4460   27.0070 C.3   664  GLU664      0.1163
    125  CD        -4.8670  -21.6830   28.3200 C.2   664  GLU664      0.3649
    126  OE1       -6.0140  -21.4190   28.7530 O.co2 664  GLU664     -0.2457
    127  OE2       -3.8190  -21.3580   28.9270 O.co2 664  GLU664     -0.2457
    128  N         -4.2080  -24.8880   24.6920 N.am  665  VAL665     -0.1963
    129  CA        -3.3930  -26.0770   24.9190 C.3   665  VAL665      0.1727
    130  C         -2.9350  -26.0280   26.3800 C.2   665  VAL665      0.2616
    131  O         -2.3740  -25.0260   26.8590 O.2   665  VAL665     -0.2715
    132  CB        -2.1570  -26.1260   23.9730 C.3   665  VAL665      0.0290
    133  CG1       -1.0370  -27.0000   24.5290 C.3   665  VAL665      0.0023
    134  CG2       -2.5340  -26.5370   22.5540 C.3   665  VAL665      0.0023
    135  N         -3.1570  -27.1360   27.0700 N.am  666  VAL666     -0.1977
    136  CA        -2.6580  -27.3430   28.4030 C.3   666  VAL666      0.1596
    137  C         -1.4300  -28.2800   28.1540 C.2   666  VAL666      0.2287
    138  O         -1.5730  -29.4660   27.8070 O.2   666  VAL666     -0.2864
    139  CB        -3.7170  -27.9520   29.3630 C.3   666  VAL666      0.0276
    140  CG1       -3.1950  -27.9980   30.7960 C.3   666  VAL666      0.0022
    141  CG2       -5.0300  -27.1840   29.2970 C.3   666  VAL666      0.0022
    142  N          0.3240  -32.5980   29.5840 N.3   669  SER669     -0.1202
    143  CA        -0.8910  -33.2570   30.0020 C.3   669  SER669      0.2020
    144  C         -1.3270  -34.2260   28.9740 C.2   669  SER669      0.2619
    145  O         -1.1830  -33.9620   27.7790 O.2   669  SER669     -0.2717
    146  CB        -1.9910  -32.2320   30.2730 C.3   669  SER669      0.2103
    147  OG        -2.5050  -31.6220   29.1070 O.3   669  SER669     -0.2182
    148  N         -1.8750  -35.3520   29.4160 N.am  670  ASP670     -0.1959
    149  CA        -2.4210  -36.3430   28.4840 C.3   670  ASP670      0.1840
    150  C         -3.7890  -36.7760   29.0080 C.2   670  ASP670      0.2622
    151  O         -4.1030  -36.5020   30.1650 O.2   670  ASP670     -0.2715
    152  CB        -1.4700  -37.5470   28.3560 C.3   670  ASP670      0.1450
    153  CG        -1.4370  -38.1490   26.9610 C.2   670  ASP670      0.3671
    154  OD1       -2.3940  -37.9150   26.1810 O.co2 670  ASP670     -0.2456
    155  OD2       -0.4470  -38.8400   26.6350 O.co2 670  ASP670     -0.2456
    156  N         -4.6100  -37.4170   28.1700 N.am  671  THR671     -0.1951
    157  CA        -5.9210  -37.9290   28.5830 C.3   671  THR671      0.1897
    158  C         -5.7070  -39.2070   29.4280 C.2   671  THR671      0.2313
    159  O         -4.6970  -39.9040   29.2490 O.2   671  THR671     -0.2863
    160  CB        -6.7750  -38.3230   27.3530 C.3   671  THR671      0.1794
    161  OG1       -5.9830  -39.1290   26.5080 O.3   671  THR671     -0.2208
    162  CG2       -7.3360  -37.1310   26.5650 C.3   671  THR671      0.0378
    163  N         -5.1760  -42.2130   27.1380 N.3   674  ASN674     -0.1240
    164  CA        -3.8150  -42.4190   26.6160 C.3   674  ASN674      0.1653
    165  C         -2.8770  -43.0230   27.6350 C.2   674  ASN674      0.2266
    166  O         -2.1190  -43.9070   27.2780 O.2   674  ASN674     -0.2867
    167  CB        -3.2460  -41.1290   26.0070 C.3   674  ASN674      0.1155
    168  CG        -3.9460  -40.7480   24.7320 C.2   674  ASN674      0.2627
    169  OD1       -4.4890  -41.5980   24.0120 O.2   674  ASN674     -0.2716
    170  ND2       -3.9840  -39.4570   24.4400 N.am  674  ASN674     -0.0877
    171  N         -8.4800  -35.5090   31.4660 N.3   738  MET738     -0.1245
    172  CA        -7.0410  -35.3500   31.2920 C.3   738  MET738      0.1570
    173  C         -6.3520  -35.1560   32.6540 C.2   738  MET738      0.2261
    174  O         -6.9900  -34.8210   33.6490 O.2   738  MET738     -0.2867
    175  CB        -6.7630  -34.1470   30.4010 C.3   738  MET738      0.0387
    176  CG        -7.2530  -34.3180   28.9620 C.3   738  MET738      0.0595
    177  SD        -6.5010  -33.1310   27.8680 S.3   738  MET738     -0.1393
    178  CE        -4.9220  -33.8400   27.6240 C.3   738  MET738      0.0692
    179  N         -8.4020  -32.6910   34.9720 N.3   746  PHE746     -0.1241
    180  CA        -9.3700  -31.7080   34.4390 C.3   746  PHE746      0.1605
    181  C        -10.2150  -32.3470   33.3520 C.2   746  PHE746      0.2264
    182  O         -9.8100  -33.3170   32.7370 O.2   746  PHE746     -0.2867
    183  CB        -8.7370  -30.3540   34.0130 C.3   746  PHE746      0.0534
    184  CG        -7.7900  -30.4440   32.8220 C.ar  746  PHE746     -0.0203
    185  CD1       -6.4750  -30.8900   32.9820 C.ar  746  PHE746     -0.0042
    186  CD2       -8.2120  -30.0840   31.5450 C.ar  746  PHE746     -0.0042
    187  CE1       -5.6250  -31.0210   31.8820 C.ar  746  PHE746     -0.0003
    188  CE2       -7.3390  -30.1670   30.4560 C.ar  746  PHE746     -0.0003
    189  CZ        -6.0590  -30.6610   30.6350 C.ar  746  PHE746     -0.0000
    190  N        -12.4740  -32.1190   29.7130 N.3   748  ILE748     -0.1231
    191  CA       -12.5470  -31.4860   28.3930 C.3   748  ILE748      0.1692
    192  C        -13.8410  -31.9240   27.6900 C.2   748  ILE748      0.2592
    193  O        -14.5290  -32.8480   28.1520 O.2   748  ILE748     -0.2718
    194  CB       -11.2710  -31.7620   27.4970 C.3   748  ILE748      0.0266
    195  CG1      -11.1110  -33.2480   27.1500 C.3   748  ILE748      0.0019
    196  CG2       -9.9980  -31.1790   28.1240 C.3   748  ILE748      0.0020
    197  CD1      -10.1380  -33.5810   26.1070 C.3   748  ILE748      0.0001
    198  N        -14.1250  -31.2990   26.5310 N.am  749  ASP749     -0.1974
    199  CA       -15.2230  -31.6270   25.6110 C.3   749  ASP749      0.1709
    200  C        -16.5770  -31.7230   26.3130 C.2   749  ASP749      0.2293
    201  O        -17.1360  -32.8060   26.5220 O.2   749  ASP749     -0.2864
    202  CB       -14.8810  -32.8910   24.8010 C.3   749  ASP749      0.1436
    203  CG       -15.6820  -33.0140   23.5210 C.2   749  ASP749      0.3671
    204  OD1      -15.4370  -32.2120   22.5870 O.co2 749  ASP749     -0.2456
    205  OD2      -16.5530  -33.9110   23.4490 O.co2 749  ASP749     -0.2456
@<TRIPOS>BOND
     1    28    27    2
     2    12    11    1
     3    12    13    2
     4    11    10    1
     5    11    14    1
     6    31    32    1
     7    31    37    1
     8    20    19    2
     9    15    14    1
    10    27    26    1
    11    69    70    1
    12    33    32    1
    13    33    34    2
    14    32    35    1
    15    62    63    2
    16    62    61    1
    17    14    16    1
    18    37    36    1
    19    19    18    1
    20    17    18    1
    21     1     2    1
    22    61    60    1
    23    61    64    1
    24    75    74   ar
    25    25    26    1
    26    70    71    1
    27    70    73    1
    28    38    39    1
    29    26    29    1
    30    41    40    2
    31    35    36    1
    32    18    21    1
    33    72    71    2
    34     3     2    1
    35     3     4    2
    36    74    73    1
    37    74    76   ar
    38     2     5    1
    39    40    39    1
    40    64    65    1
    41    30    29    1
    42    39    42    1
    43    65    66    1
    44    66    67    1
    45    21    22    1
    46    42    43    1
    47     9     7   am
    48     5     6    1
    49    67    68    1
    50    54    55    2
    51    54    53    1
    52     6     7    1
    53     7     8    2
    54    22    23    1
    55    43    44   ar
    56    43    45   ar
    57    53    52    1
    58    53    56    1
    59    58    56    1
    60    44    46   ar
    61    77    78    1
    62    83    82    1
    63    82    84    1
    64    82    81    1
    65    56    57    1
    66    24    23    1
    67    45    48   ar
    68    45    47   ar
    69    46    47   ar
    70    81    78    1
    71    48    50   ar
    72    57    59    1
    73    78    79    1
    74    47    49   ar
    75   118   116    1
    76   111   112    1
    77   116   115    1
    78    79    80    2
    79    50    51   ar
    80   114   113    2
    81   134   132    1
    82   204   203   ar
    83   115   112    1
    84   115   117    1
    85    49    51   ar
    86   112   113    1
    87   113   119   am
    88   205   203   ar
    89   203   202    1
    90    92    90   ar
    91   132   133    1
    92   132   129    1
    93   169   168    2
    94   110   109    1
    95   107   106    1
    96   107   108    2
    97   119   120    1
    98   170   168   am
    99   128   129    1
   100   128   121   am
   101   168   167    1
   102    90    89    1
   103    90    91   ar
   104   202   199    1
   105   106   109    1
   106   106   105    1
   107   129   130    1
   108   120   121    1
   109   120   123    1
   110    89    86    1
   111   121   122    2
   112    85    86    1
   113   199   200    1
   114   199   198    1
   115   167   164    1
   116    86    87    1
   117   197   195    1
   118   154   153   ar
   119   123   124    1
   120   200   201    2
   121   130   131    2
   122   130   135   am
   123   161   160    1
   124   198   192   am
   125   162   160    1
   126   164   163    1
   127   164   165    1
   128   155   153   ar
   129    87    88    2
   130   153   152    1
   131   124   125    1
   132   135   136    1
   133   195   194    1
   134   166   165    2
   135   160   157    1
   136   101    99   ar
   137   101   103   ar
   138   194   196    1
   139   194   191    1
   140   178   177    1
   141   192   193    2
   142   192   191    1
   143    99    98   ar
   144   145   144    2
   145   138   137    2
   146   177   176    1
   147   104   103    1
   148   137   136    1
   149   156   157    1
   150   156   150   am
   151   103   102   ar
   152   125   126   ar
   153   125   127   ar
   154   152   149    1
   155   191   190    1
   156   136   139    1
   157   149   150    1
   158   149   148    1
   159   157   158    1
   160    98    97    1
   161    98   100   ar
   162   176   175    1
   163   144   148   am
   164   144   143    1
   165   150   151    2
   166   147   146    1
   167    95    96    2
   168    95    94    1
   169   159   158    2
   170    97    94    1
   171   141   139    1
   172   139   140    1
   173   102   100   ar
   174   142   143    1
   175   143   146    1
   176    94    93    1
   177   175   172    1
   178   188   189   ar
   179   188   186   ar
   180   189   187   ar
   181   172   171    1
   182   172   173    1
   183   186   184   ar
   184   187   185   ar
   185   173   174    2
   186   182   181    2
   187   184   185   ar
   188   184   183    1
   189   181   180    1
   190   183   180    1
   191   180   179    1
