@<TRIPOS>MOLECULE
tmp/6ez6A00.pdb
 191 179 0 0 0
SMALL
GASTEIGER

@<TRIPOS>ATOM
      1  N          6.4140  -28.3660   15.6020 N.3   587  GLN587     -0.1245
      2  CA         5.5700  -28.7760   16.7110 C.3   587  GLN587      0.1566
      3  C          4.0750  -28.6940   16.3780 C.2   587  GLN587      0.2260
      4  O          3.2500  -28.9790   17.2600 O.2   587  GLN587     -0.2867
      5  CB         5.8470  -27.8890   17.9400 C.3   587  GLN587      0.0367
      6  CG         7.0490  -28.2910   18.7760 C.3   587  GLN587      0.0905
      7  CD         6.8660  -27.8630   20.2150 C.2   587  GLN587      0.2608
      8  OE1        7.0220  -26.6880   20.5640 O.2   587  GLN587     -0.2717
      9  NE2        6.5410  -28.8110   21.0910 N.am  587  GLN587     -0.0878
     10  N          0.5190  -29.7410   14.6450 N.3   589  THR589     -0.1218
     11  CA        -0.0950  -30.9450   14.1120 C.3   589  THR589      0.1862
     12  C         -1.6060  -30.7350   14.0830 C.2   589  THR589      0.2287
     13  O         -2.0620  -29.5940   14.1590 O.2   589  THR589     -0.2866
     14  CB         0.4420  -32.2110   14.8860 C.3   589  THR589      0.1770
     15  OG1       -0.1190  -33.3720   14.3000 O.3   589  THR589     -0.2211
     16  CG2        0.1410  -32.1630   16.3810 C.3   589  THR589      0.0375
     17  N         -5.5080  -32.9360   15.3760 N.3   591  MET591     -0.1245
     18  CA        -6.0390  -34.0210   16.2230 C.3   591  MET591      0.1570
     19  C         -6.8660  -34.9430   15.3900 C.2   591  MET591      0.2261
     20  O         -7.4640  -34.4910   14.4190 O.2   591  MET591     -0.2867
     21  CB        -6.8490  -33.4820   17.4180 C.3   591  MET591      0.0387
     22  CG        -5.9830  -33.0650   18.5870 C.3   591  MET591      0.0595
     23  SD        -6.8290  -31.8660   19.6690 S.3   591  MET591     -0.1393
     24  CE        -6.3160  -30.4410   18.9400 C.3   591  MET591      0.0692
     25  N         -9.7330  -36.3840   15.8050 N.3   593  SER593     -0.1217
     26  CA       -11.1920  -36.2730   15.9080 C.3   593  SER593      0.1889
     27  C        -11.8650  -35.8150   14.5940 C.2   593  SER593      0.2288
     28  O        -11.1760  -35.4140   13.6610 O.2   593  SER593     -0.2866
     29  CB       -11.5730  -35.3550   17.0690 C.3   593  SER593      0.2089
     30  OG       -10.9100  -34.1040   16.9780 O.3   593  SER593     -0.2183
     31  N         -9.1680  -30.8490   14.3100 N.3   597  PRO597     -0.2116
     32  CA        -8.7100  -29.5380   14.7740 C.3   597  PRO597      0.1372
     33  C         -7.1970  -29.3910   14.7600 C.2   597  PRO597      0.2244
     34  O         -6.4740  -30.3480   14.9880 O.2   597  PRO597     -0.2868
     35  CB        -9.3220  -29.3920   16.1750 C.3   597  PRO597      0.0268
     36  CG        -9.6930  -30.7540   16.6130 C.3   597  PRO597      0.0207
     37  CD        -9.8450  -31.6030   15.3850 C.3   597  PRO597      0.0892
     38  N         -3.4930  -28.1080   15.9830 N.3   599  TRP599     -0.1241
     39  CA        -2.7460  -27.9440   17.2470 C.3   599  TRP599      0.1605
     40  C         -1.5650  -27.0760   16.8440 C.2   599  TRP599      0.2264
     41  O         -0.7110  -27.5530   16.1030 O.2   599  TRP599     -0.2867
     42  CB        -2.3080  -29.3440   17.7640 C.3   599  TRP599      0.0550
     43  CG        -1.4560  -29.3330   19.0080 C.ar  599  TRP599      0.0003
     44  CD1       -0.1110  -29.0880   19.0910 C.ar  599  TRP599      0.0946
     45  CD2       -1.9030  -29.5970   20.3500 C.ar  599  TRP599      0.0152
     46  NE1        0.3110  -29.2070   20.4070 N.ar  599  TRP599     -0.2442
     47  CE2       -0.7680  -29.5260   21.1940 C.ar  599  TRP599      0.0810
     48  CE3       -3.1360  -30.0000   20.9070 C.ar  599  TRP599      0.0012
     49  CZ2       -0.8370  -29.8250   22.5660 C.ar  599  TRP599      0.0191
     50  CZ3       -3.2110  -30.2310   22.2770 C.ar  599  TRP599      0.0001
     51  CH2       -2.0860  -30.0850   23.0960 C.ar  599  TRP599      0.0015
     52  N         -5.5810  -24.3430   19.9060 N.3   616  ILE616     -0.1245
     53  CA        -6.2630  -25.3460   19.1030 C.3   616  ILE616      0.1561
     54  C         -7.2990  -24.6020   18.2760 C.2   616  ILE616      0.2260
     55  O         -8.1480  -23.9050   18.8370 O.2   616  ILE616     -0.2867
     56  CB        -6.8920  -26.4820   19.9770 C.3   616  ILE616      0.0252
     57  CG1       -5.7750  -27.3290   20.6610 C.3   616  ILE616      0.0019
     58  CG2       -7.8370  -27.3670   19.1380 C.3   616  ILE616      0.0019
     59  CD1       -6.1990  -27.8870   22.0160 C.3   616  ILE616      0.0001
     60  N        -10.5240  -24.9840   15.9080 N.3   618  LYS618     -0.1245
     61  CA       -11.5350  -25.9710   15.5630 C.3   618  LYS618      0.1561
     62  C        -12.6310  -25.3440   14.7120 C.2   618  LYS618      0.2260
     63  O        -13.1770  -24.3060   15.0680 O.2   618  LYS618     -0.2867
     64  CB       -12.1310  -26.6100   16.8230 C.3   618  LYS618      0.0271
     65  CG       -12.9430  -27.8710   16.5510 C.3   618  LYS618      0.0035
     66  CD       -13.5640  -28.3320   17.8440 C.3   618  LYS618      0.0206
     67  CE       -14.2490  -29.6260   17.7050 C.3   618  LYS618      0.1093
     68  NZ       -15.3010  -29.7370   18.7580 N.3   618  LYS618     -0.1314
     69  N        -18.9150  -23.7910   19.4760 N.3   623  LEU623     -0.1245
     70  CA       -18.1590  -23.7660   20.7380 C.3   623  LEU623      0.1561
     71  C        -18.7920  -22.9560   21.9090 C.2   623  LEU623      0.2260
     72  O        -18.2100  -22.8970   22.9940 O.2   623  LEU623     -0.2867
     73  CB       -16.7380  -23.2570   20.4550 C.3   623  LEU623      0.0270
     74  CG       -15.8190  -24.2100   19.6370 C.3   623  LEU623      0.0019
     75  CD1      -14.5220  -23.5660   19.3660 C.3   623  LEU623      0.0001
     76  CD2      -15.5490  -25.4970   20.3770 C.3   623  LEU623      0.0001
     77  N        -19.3920  -24.9710   25.2790 N.3   626  ASP626     -0.1239
     78  CA       -18.1010  -25.2570   25.9410 C.3   626  ASP626      0.1674
     79  C        -17.6460  -24.0290   26.6730 C.2   626  ASP626      0.2266
     80  O        -17.3020  -24.1200   27.8440 O.2   626  ASP626     -0.2867
     81  CB       -17.0060  -25.6400   24.9170 C.3   626  ASP626      0.1410
     82  CG       -17.0260  -27.1230   24.6670 C.2   626  ASP626      0.3668
     83  OD1      -17.8420  -27.5720   23.8250 O.co2 626  ASP626     -0.2456
     84  OD2      -16.3190  -27.8480   25.3910 O.co2 626  ASP626     -0.2456
     85  N         -9.3690  -23.6650   31.2570 N.3   652  TYR652     -0.1241
     86  CA        -8.6030  -23.2560   30.0670 C.3   652  TYR652      0.1605
     87  C         -9.5210  -22.4060   29.1360 C.2   652  TYR652      0.2264
     88  O        -10.7450  -22.5450   29.1870 O.2   652  TYR652     -0.2867
     89  CB        -8.0080  -24.4940   29.3650 C.3   652  TYR652      0.0534
     90  CG        -9.0690  -25.4670   28.9030 C.ar  652  TYR652     -0.0201
     91  CD1       -9.6920  -25.3180   27.6680 C.ar  652  TYR652     -0.0009
     92  CD2       -9.4420  -26.5520   29.6940 C.ar  652  TYR652     -0.0009
     93  CE1      -10.7170  -26.1680   27.2690 C.ar  652  TYR652      0.0417
     94  CE2      -10.4310  -27.4440   29.2770 C.ar  652  TYR652      0.0417
     95  CZ       -11.0710  -27.2410   28.0700 C.ar  652  TYR652      0.1957
     96  OH       -12.0620  -28.0980   27.6610 O.3   652  TYR652     -0.2866
     97  N         -9.3030  -22.9820   21.2850 N.3   664  ILE664     -0.1231
     98  CA        -9.2640  -23.6350   22.5950 C.3   664  ILE664      0.1692
     99  C         -7.7980  -23.5870   23.0590 C.2   664  ILE664      0.2592
    100  O         -6.8890  -23.8260   22.2560 O.2   664  ILE664     -0.2718
    101  CB        -9.7870  -25.1100   22.5680 C.3   664  ILE664      0.0266
    102  CG1      -11.2450  -25.2150   22.0610 C.3   664  ILE664      0.0019
    103  CG2       -9.6890  -25.7340   23.9520 C.3   664  ILE664      0.0020
    104  CD1      -11.4550  -26.4480   21.1680 C.3   664  ILE664      0.0001
    105  N         -7.5820  -23.3190   24.3400 N.am  665  GLU665     -0.1966
    106  CA        -6.2180  -23.2270   24.8830 C.3   665  GLU665      0.1733
    107  C         -5.5570  -24.6110   25.0300 C.2   665  GLU665      0.2616
    108  O         -6.1960  -25.5680   25.5050 O.2   665  GLU665     -0.2715
    109  CB        -6.2680  -22.5520   26.2440 C.3   665  GLU665      0.0429
    110  CG        -4.8980  -22.2540   26.8500 C.3   665  GLU665      0.1163
    111  CD        -4.9220  -21.5200   28.1790 C.2   665  GLU665      0.3649
    112  OE1       -6.0250  -21.2770   28.7180 O.co2 665  GLU665     -0.2457
    113  OE2       -3.8290  -21.1910   28.6870 O.co2 665  GLU665     -0.2457
    114  N         -4.2760  -24.6850   24.6400 N.am  666  VAL666     -0.1963
    115  CA        -3.4430  -25.8690   24.8190 C.3   666  VAL666      0.1727
    116  C         -2.9450  -25.8300   26.3040 C.2   666  VAL666      0.2616
    117  O         -2.4190  -24.8070   26.7660 O.2   666  VAL666     -0.2715
    118  CB        -2.2370  -25.8990   23.8430 C.3   666  VAL666      0.0290
    119  CG1       -1.1520  -26.8630   24.3150 C.3   666  VAL666      0.0023
    120  CG2       -2.6660  -26.2030   22.4060 C.3   666  VAL666      0.0023
    121  N         -3.1360  -26.9510   27.0230 N.am  667  VAL667     -0.1977
    122  CA        -2.6290  -27.1610   28.3660 C.3   667  VAL667      0.1596
    123  C         -1.4320  -28.1200   28.1330 C.2   667  VAL667      0.2287
    124  O         -1.6170  -29.2920   27.8000 O.2   667  VAL667     -0.2864
    125  CB        -3.6960  -27.7380   29.3350 C.3   667  VAL667      0.0276
    126  CG1       -3.0850  -28.0320   30.7110 C.3   667  VAL667      0.0022
    127  CG2       -4.8770  -26.7830   29.4760 C.3   667  VAL667      0.0022
    128  N          0.1710  -32.3500   29.6940 N.3   670  SER670     -0.1202
    129  CA        -1.0860  -32.9910   30.0530 C.3   670  SER670      0.2020
    130  C         -1.4410  -34.0200   29.0180 C.2   670  SER670      0.2619
    131  O         -1.0560  -33.8950   27.8510 O.2   670  SER670     -0.2717
    132  CB        -2.2190  -31.9670   30.2120 C.3   670  SER670      0.2103
    133  OG        -2.6610  -31.4550   28.9660 O.3   670  SER670     -0.2182
    134  N         -2.1810  -35.0530   29.4520 N.am  671  ASP671     -0.1959
    135  CA        -2.6340  -36.1060   28.5440 C.3   671  ASP671      0.1840
    136  C         -3.9760  -36.6440   29.0220 C.2   671  ASP671      0.2622
    137  O         -4.3660  -36.4140   30.1700 O.2   671  ASP671     -0.2715
    138  CB        -1.5780  -37.2140   28.4080 C.3   671  ASP671      0.1450
    139  CG        -1.6190  -37.9170   27.0690 C.2   671  ASP671      0.3671
    140  OD1       -2.6430  -37.7520   26.3260 O.co2 671  ASP671     -0.2456
    141  OD2       -0.6410  -38.6230   26.7450 O.co2 671  ASP671     -0.2456
    142  N         -4.7170  -37.3140   28.1360 N.am  672  THR672     -0.1951
    143  CA        -6.0030  -37.8520   28.5690 C.3   672  THR672      0.1897
    144  C         -5.7870  -39.0940   29.4340 C.2   672  THR672      0.2313
    145  O         -4.7670  -39.7980   29.2810 O.2   672  THR672     -0.2863
    146  CB        -6.8800  -38.2360   27.3600 C.3   672  THR672      0.1794
    147  OG1       -6.2020  -39.2610   26.6400 O.3   672  THR672     -0.2208
    148  CG2       -7.2110  -37.0400   26.4410 C.3   672  THR672      0.0378
    149  N         -5.3130  -42.1110   27.1330 N.3   675  ASN675     -0.1240
    150  CA        -3.9360  -42.3000   26.6430 C.3   675  ASN675      0.1653
    151  C         -3.0170  -42.8680   27.7110 C.2   675  ASN675      0.2266
    152  O         -2.2400  -43.7490   27.4340 O.2   675  ASN675     -0.2867
    153  CB        -3.3750  -40.9910   26.0870 C.3   675  ASN675      0.1155
    154  CG        -3.9730  -40.6240   24.7590 C.2   675  ASN675      0.2627
    155  OD1       -4.6480  -41.4330   24.1100 O.2   675  ASN675     -0.2716
    156  ND2       -3.7410  -39.3930   24.3280 N.am  675  ASN675     -0.0877
    157  N         -8.6390  -35.2760   31.4740 N.3   739  MET739     -0.1245
    158  CA        -7.2110  -35.1130   31.3220 C.3   739  MET739      0.1570
    159  C         -6.5120  -34.9720   32.6600 C.2   739  MET739      0.2261
    160  O         -7.1340  -34.6540   33.6570 O.2   739  MET739     -0.2867
    161  CB        -6.9110  -33.8960   30.4500 C.3   739  MET739      0.0387
    162  CG        -7.4970  -34.0210   29.0560 C.3   739  MET739      0.0595
    163  SD        -6.7040  -32.9430   27.8930 S.3   739  MET739     -0.1393
    164  CE        -5.1760  -33.7070   27.7520 C.3   739  MET739      0.0692
    165  N         -8.5640  -32.4990   34.9480 N.3   747  PHE747     -0.1241
    166  CA        -9.5050  -31.5230   34.4140 C.3   747  PHE747      0.1605
    167  C        -10.3170  -32.1480   33.2810 C.2   747  PHE747      0.2264
    168  O         -9.8870  -33.1210   32.6700 O.2   747  PHE747     -0.2867
    169  CB        -8.8650  -30.1520   34.0410 C.3   747  PHE747      0.0534
    170  CG        -7.9040  -30.1920   32.8750 C.ar  747  PHE747     -0.0203
    171  CD1       -6.5840  -30.6060   33.0530 C.ar  747  PHE747     -0.0042
    172  CD2       -8.3050  -29.7890   31.6120 C.ar  747  PHE747     -0.0042
    173  CE1       -5.7080  -30.6830   31.9690 C.ar  747  PHE747     -0.0003
    174  CE2       -7.4090  -29.8040   30.5440 C.ar  747  PHE747     -0.0003
    175  CZ        -6.1250  -30.2820   30.7200 C.ar  747  PHE747     -0.0000
    176  N        -12.5080  -31.9340   29.5490 N.3   749  ILE749     -0.1231
    177  CA       -12.5160  -31.2910   28.2570 C.3   749  ILE749      0.1692
    178  C        -13.7790  -31.6470   27.5000 C.2   749  ILE749      0.2592
    179  O        -14.4260  -32.6630   27.7930 O.2   749  ILE749     -0.2718
    180  CB       -11.2420  -31.6190   27.4010 C.3   749  ILE749      0.0266
    181  CG1      -11.1090  -33.1510   27.1500 C.3   749  ILE749      0.0019
    182  CG2       -9.9470  -30.9830   27.9980 C.3   749  ILE749      0.0020
    183  CD1      -10.1750  -33.5220   25.9840 C.3   749  ILE749      0.0001
    184  N        -14.0580  -30.8610   26.4490 N.am  750  ASP750     -0.1974
    185  CA       -15.0920  -31.1350   25.4510 C.3   750  ASP750      0.1709
    186  C        -16.4530  -31.3450   26.0720 C.2   750  ASP750      0.2293
    187  O        -16.9350  -32.4690   26.1830 O.2   750  ASP750     -0.2864
    188  CB       -14.6240  -32.3390   24.5870 C.3   750  ASP750      0.1436
    189  CG       -15.4540  -32.6400   23.3520 C.2   750  ASP750      0.3671
    190  OD1      -15.9700  -31.6950   22.7420 O.co2 750  ASP750     -0.2456
    191  OD2      -15.5450  -33.8150   22.9810 O.co2 750  ASP750     -0.2456
@<TRIPOS>BOND
     1    28    27    2
     2    12    11    1
     3    12    13    2
     4    11    10    1
     5    11    14    1
     6    15    14    1
     7    31    32    1
     8    31    37    1
     9    20    19    2
    10    27    26    1
    11    62    63    2
    12    62    61    1
    13    33    32    1
    14    33    34    2
    15    32    35    1
    16    14    16    1
    17    17    18    1
    18    37    36    1
    19    19    18    1
    20    61    60    1
    21    61    64    1
    22     1     2    1
    23    25    26    1
    24    26    29    1
    25    38    39    1
    26    41    40    2
    27    35    36    1
    28    18    21    1
    29     3     2    1
    30     3     4    2
    31    65    64    1
    32    65    66    1
    33     2     5    1
    34    40    39    1
    35    30    29    1
    36    39    42    1
    37    21    22    1
    38    67    66    1
    39    67    68    1
    40    42    43    1
    41     5     6    1
    42    54    55    2
    43    54    53    1
    44    22    23    1
    45     6     7    1
    46    24    23    1
    47    43    44   ar
    48    43    45   ar
    49    44    46   ar
    50    53    52    1
    51    53    56    1
    52    58    56    1
    53    75    74    1
    54    69    70    1
    55    74    76    1
    56    74    73    1
    57    56    57    1
    58     7     8    2
    59     7     9   am
    60    45    48   ar
    61    45    47   ar
    62    46    47   ar
    63    73    70    1
    64    57    59    1
    65    70    71    1
    66    48    50   ar
    67   104   102    1
    68    47    49   ar
    69    97    98    1
    70    71    72    2
    71   102   101    1
    72   100    99    2
    73    50    51   ar
    74   120   118    1
    75    49    51   ar
    76   101    98    1
    77   101   103    1
    78    98    99    1
    79   190   189   ar
    80   191   189   ar
    81    99   105   am
    82   189   188    1
    83    83    82   ar
    84   118   119    1
    85   118   115    1
    86   155   154    2
    87   156   154   am
    88   105   106    1
    89   188   185    1
    90   114   115    1
    91   114   107   am
    92    82    81    1
    93    82    84   ar
    94   154   153    1
    95   115   116    1
    96   106   107    1
    97   106   109    1
    98    81    78    1
    99   107   108    2
   100    77    78    1
   101   185   186    1
   102   185   184    1
   103    78    79    1
   104   183   181    1
   105   186   187    2
   106   153   150    1
   107   109   110    1
   108   116   117    2
   109   116   121   am
   110   140   139   ar
   111   148   146    1
   112   184   178   am
   113   147   146    1
   114   150   149    1
   115   150   151    1
   116    79    80    2
   117   141   139   ar
   118   110   111    1
   119   121   122    1
   120   139   138    1
   121   181   180    1
   122    93    91   ar
   123    93    95   ar
   124   146   143    1
   125   180   182    1
   126   180   177    1
   127   152   151    2
   128   178   179    2
   129   178   177    1
   130    96    95    1
   131    91    90   ar
   132   164   163    1
   133   124   123    2
   134   131   130    2
   135   163   162    1
   136    95    94   ar
   137   123   122    1
   138   142   143    1
   139   142   136   am
   140   111   113   ar
   141   111   112   ar
   142   177   176    1
   143   122   125    1
   144   138   135    1
   145   135   136    1
   146   135   134    1
   147   143   144    1
   148    90    89    1
   149    90    92   ar
   150   133   132    1
   151   130   134   am
   152   130   129    1
   153   136   137    2
   154   162   161    1
   155    87    88    2
   156    87    86    1
   157    94    92   ar
   158   145   144    2
   159   125   127    1
   160   125   126    1
   161    89    86    1
   162   128   129    1
   163   129   132    1
   164    86    85    1
   165   161   158    1
   166   174   175   ar
   167   174   172   ar
   168   175   173   ar
   169   158   157    1
   170   158   159    1
   171   172   170   ar
   172   173   171   ar
   173   159   160    2
   174   168   167    2
   175   170   171   ar
   176   170   169    1
   177   167   166    1
   178   169   166    1
   179   166   165    1
