@<TRIPOS>MOLECULE
tmp/6ez9A07.pdb
 224 215 0 0 0
SMALL
GASTEIGER

@<TRIPOS>ATOM
      1  N         21.7110   50.3040   36.2920 N.3   155  PHE155     -0.1227
      2  CA        20.5880   49.3810   36.2450 C.3   155  PHE155      0.1736
      3  C         20.2410   48.9150   34.8410 C.2   155  PHE155      0.2595
      4  O         20.2550   49.7040   33.8680 O.2   155  PHE155     -0.2718
      5  CB        19.3720   50.1160   36.8410 C.3   155  PHE155      0.0547
      6  CG        18.0760   49.3510   36.7100 C.ar  155  PHE155     -0.0202
      7  CD1       17.9250   48.1040   37.3550 C.ar  155  PHE155     -0.0042
      8  CD2       16.9600   49.9540   36.0730 C.ar  155  PHE155     -0.0042
      9  CE1       16.7030   47.4010   37.3000 C.ar  155  PHE155     -0.0003
     10  CE2       15.7410   49.2470   36.0320 C.ar  155  PHE155     -0.0003
     11  CZ        15.6290   47.9770   36.6180 C.ar  155  PHE155     -0.0000
     12  N         19.9810   47.6090   34.7300 N.am  156  ARG156     -0.1980
     13  CA        19.7760   47.0140   33.3650 C.3   156  ARG156      0.1597
     14  C         18.5640   47.5930   32.6250 C.2   156  ARG156      0.2287
     15  O         18.5530   47.6380   31.3880 O.2   156  ARG156     -0.2864
     16  CB        19.7180   45.4860   33.4800 C.3   156  ARG156      0.0334
     17  CG        18.4280   44.9930   34.1490 C.3   156  ARG156      0.0492
     18  CD        18.4490   43.4580   34.3380 C.3   156  ARG156      0.2205
     19  NE        19.2320   43.0350   35.5240 N.pl3 156  ARG156     -0.0865
     20  CZ        18.8410   43.2440   36.7810 C.cat 156  ARG156      0.5346
     21  NH1       17.6780   43.8410   37.0490 N.pl3 156  ARG156      0.1354
     22  NH2       19.6070   42.8340   37.7830 N.pl3 156  ARG156      0.1354
     23  N         16.9830   39.2510   36.0330 N.3   202  GLY202     -0.1210
     24  CA        16.5390   40.5850   36.5430 C.3   202  GLY202      0.1956
     25  C         15.5520   41.2540   35.6280 C.2   202  GLY202      0.2611
     26  O         15.5900   41.0870   34.3810 O.2   202  GLY202     -0.2717
     27  N         14.6530   42.0450   36.2260 N.am  203  ASN203     -0.1974
     28  CA        13.6780   42.7550   35.3770 C.3   203  ASN203      0.1688
     29  C         14.3130   43.9310   34.6400 C.2   203  ASN203      0.2292
     30  O         15.3530   44.4600   35.0340 O.2   203  ASN203     -0.2864
     31  CB        12.4260   43.2170   36.1660 C.3   203  ASN203      0.1181
     32  CG        12.6670   44.5550   36.8900 C.2   203  ASN203      0.2629
     33  OD1       12.7060   45.6150   36.2440 O.2   203  ASN203     -0.2716
     34  ND2       12.8670   44.5220   38.2420 N.am  203  ASN203     -0.0877
     35  N         20.4680   37.3810   48.2950 N.3   333  ASP333     -0.1239
     36  CA        19.4200   38.3470   47.9020 C.3   333  ASP333      0.1674
     37  C         18.0740   37.6000   47.7480 C.2   333  ASP333      0.2266
     38  O         17.9020   36.9190   46.7640 O.2   333  ASP333     -0.2867
     39  CB        19.8730   38.9900   46.5820 C.3   333  ASP333      0.1410
     40  CG        18.8740   39.8940   45.9990 C.2   333  ASP333      0.3668
     41  OD1       18.0090   40.2620   46.8130 O.co2 333  ASP333     -0.2456
     42  OD2       18.9920   40.2280   44.7830 O.co2 333  ASP333     -0.2456
     43  N          9.3800   41.9700   44.7960 N.3   370  MET370     -0.1230
     44  CA        10.3350   43.0490   44.6720 C.3   370  MET370      0.1702
     45  C         11.1190   42.9060   43.3770 C.2   370  MET370      0.2592
     46  O         11.4130   43.9120   42.6890 O.2   370  MET370     -0.2718
     47  CB        11.2510   43.0750   45.8980 C.3   370  MET370      0.0401
     48  CG        12.2810   44.1950   45.8740 C.3   370  MET370      0.0596
     49  SD        13.7560   43.7540   44.8930 S.3   370  MET370     -0.1393
     50  CE        14.8530   44.9800   45.5770 C.3   370  MET370      0.0692
     51  N         11.5300   41.6620   43.0920 N.am  371  GLU371     -0.1979
     52  CA        12.3740   41.4250   41.9070 C.3   371  GLU371      0.1602
     53  C         11.7140   41.7940   40.5900 C.2   371  GLU371      0.2287
     54  O         12.3910   41.9720   39.5810 O.2   371  GLU371     -0.2864
     55  CB        12.8730   39.9600   41.8880 C.3   371  GLU371      0.0415
     56  CG        13.8240   39.5400   43.0760 C.3   371  GLU371      0.1163
     57  CD        15.2050   40.2260   43.1060 C.2   371  GLU371      0.3649
     58  OE1       15.4710   41.2260   42.4010 O.co2 371  GLU371     -0.2457
     59  OE2       16.0360   39.7900   43.9010 O.co2 371  GLU371     -0.2457
     60  N          9.8950   44.5890   40.2690 N.3   373  GLY373     -0.1210
     61  CA         9.7400   46.0490   40.1750 C.3   373  GLY373      0.1956
     62  C          9.2760   46.7120   41.4320 C.2   373  GLY373      0.2611
     63  O          8.5440   47.7220   41.3680 O.2   373  GLY373     -0.2717
     64  N          9.6890   46.1720   42.5630 N.am  374  LEU374     -0.1979
     65  CA         9.3120   46.7510   43.8840 C.3   374  LEU374      0.1596
     66  C          7.7760   46.7170   44.0150 C.2   374  LEU374      0.2287
     67  O          7.1830   47.5920   44.6090 O.2   374  LEU374     -0.2864
     68  CB         9.8210   48.2120   44.0520 C.3   374  LEU374      0.0297
     69  CG        11.2440   48.4850   43.4960 C.3   374  LEU374      0.0022
     70  CD1       11.6240   49.9610   43.6550 C.3   374  LEU374      0.0001
     71  CD2       12.3080   47.6000   44.1600 C.3   374  LEU374      0.0001
     72  N         17.0080   44.5090   52.6790 N.3   399  ASP399     -0.1225
     73  CA        17.3900   43.5270   51.6610 C.3   399  ASP399      0.1805
     74  C         18.7590   42.9390   52.0840 C.2   399  ASP399      0.2598
     75  O         19.0910   42.9380   53.2850 O.2   399  ASP399     -0.2718
     76  CB        17.4160   44.1160   50.2570 C.3   399  ASP399      0.1424
     77  CG        17.2890   43.0860   49.1540 C.2   399  ASP399      0.3668
     78  OD1       17.3190   41.8880   49.3900 O.co2 399  ASP399     -0.2456
     79  OD2       17.2290   43.5360   48.0100 O.co2 399  ASP399     -0.2456
     80  N         19.4970   42.3710   51.1440 N.am  400  SER400     -0.1952
     81  CA        20.7540   41.6230   51.4410 C.3   400  SER400      0.1924
     82  C         21.5670   42.2660   52.5590 C.2   400  SER400      0.2314
     83  O         21.8390   43.4890   52.5190 O.2   400  SER400     -0.2863
     84  CB        21.5910   41.5920   50.1870 C.3   400  SER400      0.2116
     85  OG        20.8120   41.0300   49.1620 O.3   400  SER400     -0.2180
     86  N         27.1900   42.0840   50.9350 N.3   403  GLU403     -0.1245
     87  CA        27.5340   42.0140   49.5130 C.3   403  GLU403      0.1567
     88  C         29.0650   41.9130   49.4610 C.2   403  GLU403      0.2260
     89  O         29.6750   42.0030   48.4100 O.2   403  GLU403     -0.2867
     90  CB        26.9790   43.2220   48.7400 C.3   403  GLU403      0.0388
     91  CG        27.5710   44.5850   49.1320 C.3   403  GLU403      0.1160
     92  CD        26.8380   45.7910   48.5150 C.2   403  GLU403      0.3649
     93  OE1       25.8630   45.6260   47.7400 O.co2 403  GLU403     -0.2457
     94  OE2       27.2480   46.9430   48.8100 O.co2 403  GLU403     -0.2457
     95  N         28.3060   49.5780   55.0350 N.3   409  ARG409     -0.1245
     96  CA        27.7990   50.5390   54.0350 C.3   409  ARG409      0.1563
     97  C         26.4770   51.0640   54.5930 C.2   409  ARG409      0.2260
     98  O         25.6340   50.2800   55.0200 O.2   409  ARG409     -0.2867
     99  CB        27.5700   49.8610   52.6920 C.3   409  ARG409      0.0307
    100  CG        26.8020   50.7390   51.7130 C.3   409  ARG409      0.0489
    101  CD        26.3720   49.9060   50.5280 C.3   409  ARG409      0.2205
    102  NE        25.3590   50.6250   49.7480 N.pl3 409  ARG409     -0.0865
    103  CZ        24.9090   50.2170   48.5660 C.cat 409  ARG409      0.5346
    104  NH1       25.3660   49.0790   48.0340 N.pl3 409  ARG409      0.1354
    105  NH2       23.9660   50.9310   47.9480 N.pl3 409  ARG409      0.1354
    106  N         17.9440   54.1500   44.2810 N.3   463  SER463     -0.1202
    107  CA        16.7150   53.3500   44.2230 C.3   463  SER463      0.2020
    108  C         17.0160   51.9320   43.8040 C.2   463  SER463      0.2619
    109  O         18.1530   51.4500   43.9970 O.2   463  SER463     -0.2717
    110  CB        15.6630   54.0200   43.3490 C.3   463  SER463      0.2103
    111  OG        14.4810   53.2500   43.3890 O.3   463  SER463     -0.2182
    112  N         16.0150   51.2200   43.2540 N.am  464  GLY464     -0.1942
    113  CA        16.1690   49.8120   42.9780 C.3   464  GLY464      0.2014
    114  C         15.9350   48.9700   44.2290 C.2   464  GLY464      0.2638
    115  O         16.3580   47.8200   44.2830 O.2   464  GLY464     -0.2714
    116  N         15.3010   49.5650   45.2700 N.am  465  ASN465     -0.1972
    117  CA        14.9340   48.7610   46.4270 C.3   465  ASN465      0.1688
    118  C         13.6860   49.2810   47.1040 C.2   465  ASN465      0.2292
    119  O         13.1940   50.3410   46.7060 O.2   465  ASN465     -0.2864
    120  CB        16.1270   48.5430   47.3970 C.3   465  ASN465      0.1181
    121  CG        16.1780   47.1040   47.8790 C.2   465  ASN465      0.2629
    122  OD1       15.2420   46.6060   48.5520 O.2   465  ASN465     -0.2716
    123  ND2       17.2190   46.3610   47.4210 N.am  465  ASN465     -0.0877
    124  N         19.2250   52.5070   54.9110 N.3   480  ARG480     -0.1245
    125  CA        19.5940   51.1150   54.6650 C.3   480  ARG480      0.1563
    126  C         21.0290   50.9190   55.1280 C.2   480  ARG480      0.2260
    127  O         21.7740   51.8690   55.1410 O.2   480  ARG480     -0.2867
    128  CB        19.4450   50.7600   53.1790 C.3   480  ARG480      0.0307
    129  CG        20.4220   51.4990   52.2640 C.3   480  ARG480      0.0489
    130  CD        20.1100   51.2980   50.7660 C.3   480  ARG480      0.2205
    131  NE        19.9830   49.8890   50.3550 N.pl3 480  ARG480     -0.0865
    132  CZ        19.9640   49.4550   49.0930 C.cat 480  ARG480      0.5346
    133  NH1       20.0820   50.3110   48.0800 N.pl3 480  ARG480      0.1354
    134  NH2       19.7880   48.1580   48.8500 N.pl3 480  ARG480      0.1354
    135  N         24.3030   47.6340   55.1660 N.3   482  ARG482     -0.1245
    136  CA        24.7110   46.2380   54.9290 C.3   482  ARG482      0.1563
    137  C         26.2030   46.1800   55.0110 C.2   482  ARG482      0.2260
    138  O         26.8500   47.2130   54.9990 O.2   482  ARG482     -0.2867
    139  CB        24.2830   45.7090   53.5350 C.3   482  ARG482      0.0307
    140  CG        24.7050   46.6000   52.3770 C.3   482  ARG482      0.0489
    141  CD        24.5140   45.8890   51.0470 C.3   482  ARG482      0.2205
    142  NE        23.0890   45.6100   50.8490 N.pl3 482  ARG482     -0.0865
    143  CZ        22.4670   45.5340   49.6680 C.cat 482  ARG482      0.5346
    144  NH1       23.1060   45.7700   48.5160 N.pl3 482  ARG482      0.1354
    145  NH2       21.1610   45.2400   49.6360 N.pl3 482  ARG482      0.1354
    146  N         30.0810   49.5060   42.7740 N.3   488  LYS488     -0.1231
    147  CA        28.9980   49.1910   43.7200 C.3   488  LYS488      0.1693
    148  C         27.6310   48.8900   43.0610 C.2   488  LYS488      0.2592
    149  O         26.8070   48.2120   43.6540 O.2   488  LYS488     -0.2718
    150  CB        28.8530   50.2940   44.8000 C.3   488  LYS488      0.0285
    151  CG        28.2760   51.6340   44.3480 C.3   488  LYS488      0.0035
    152  CD        28.2650   52.6310   45.5190 C.3   488  LYS488      0.0206
    153  CE        26.8530   53.1240   45.7980 C.3   488  LYS488      0.1093
    154  NZ        26.7590   54.0720   46.9340 N.3   488  LYS488     -0.1314
    155  N         27.4230   49.3530   41.8310 N.am  489  PHE489     -0.1976
    156  CA        26.1120   49.1470   41.1670 C.3   489  PHE489      0.1639
    157  C         26.0950   47.8810   40.3130 C.2   489  PHE489      0.2290
    158  O         25.0690   47.5050   39.7800 O.2   489  PHE489     -0.2864
    159  CB        25.7590   50.3620   40.3010 C.3   489  PHE489      0.0560
    160  CG        25.6690   51.6540   41.0660 C.ar  489  PHE489     -0.0200
    161  CD1       24.8190   51.7680   42.1620 C.ar  489  PHE489     -0.0042
    162  CD2       26.4490   52.7600   40.6950 C.ar  489  PHE489     -0.0042
    163  CE1       24.7010   52.9670   42.8540 C.ar  489  PHE489     -0.0003
    164  CE2       26.3210   53.9710   41.3760 C.ar  489  PHE489     -0.0003
    165  CZ        25.4810   54.0570   42.4770 C.ar  489  PHE489     -0.0000
    166  N         26.7410   44.7420   41.3410 N.3   491  GLY491     -0.1210
    167  CA        26.3970   43.5270   42.0890 C.3   491  GLY491      0.1956
    168  C         27.6670   42.6790   42.2980 C.2   491  GLY491      0.2611
    169  O         28.6550   42.8560   41.6000 O.2   491  GLY491     -0.2717
    170  N         27.6070   41.8030   43.2830 N.am  492  TYR492     -0.1976
    171  CA        28.6770   40.8470   43.6180 C.3   492  TYR492      0.1639
    172  C         28.6320   39.7800   42.4990 C.2   492  TYR492      0.2290
    173  O         27.6440   39.6780   41.7630 O.2   492  TYR492     -0.2864
    174  CB        28.4400   40.2360   45.0250 C.3   492  TYR492      0.0560
    175  CG        26.9740   39.8540   45.2500 C.ar  492  TYR492     -0.0198
    176  CD1       26.0780   40.8150   45.7250 C.ar  492  TYR492     -0.0009
    177  CD2       26.5040   38.5710   44.9810 C.ar  492  TYR492     -0.0009
    178  CE1       24.7450   40.4880   45.8910 C.ar  492  TYR492      0.0417
    179  CE2       25.1480   38.2280   45.1620 C.ar  492  TYR492      0.0417
    180  CZ        24.3000   39.2200   45.6020 C.ar  492  TYR492      0.1957
    181  OH        22.9540   38.9460   45.7640 O.3   492  TYR492     -0.2866
    182  N         25.4520   37.4950   41.8780 N.3   495  TYR495     -0.1227
    183  CA        24.1460   38.2110   41.9400 C.3   495  TYR495      0.1736
    184  C         23.1220   37.6780   40.9320 C.2   495  TYR495      0.2595
    185  O         23.3870   37.6540   39.7080 O.2   495  TYR495     -0.2718
    186  CB        24.4870   39.6920   41.7690 C.3   495  TYR495      0.0548
    187  CG        23.3120   40.6590   41.5480 C.ar  495  TYR495     -0.0200
    188  CD1       22.4110   40.9360   42.5650 C.ar  495  TYR495     -0.0009
    189  CD2       23.1810   41.2880   40.3060 C.ar  495  TYR495     -0.0009
    190  CE1       21.3600   41.8390   42.3320 C.ar  495  TYR495      0.0417
    191  CE2       22.1720   42.2040   40.0690 C.ar  495  TYR495      0.0417
    192  CZ        21.2800   42.4600   41.0780 C.ar  495  TYR495      0.1957
    193  OH        20.2530   43.3720   40.8020 O.3   495  TYR495     -0.2866
    194  N         21.9220   37.2930   41.4670 N.am  496  HIS496     -0.1975
    195  CA        20.7250   36.8640   40.7140 C.3   496  HIS496      0.1656
    196  C         20.9860   35.6030   39.8410 C.2   496  HIS496      0.2291
    197  O         20.3000   35.3670   38.8240 O.2   496  HIS496     -0.2864
    198  CB        20.2440   38.0190   39.8250 C.3   496  HIS496      0.0771
    199  CG        19.5190   39.1210   40.5750 C.ar  496  HIS496      0.0820
    200  ND1       18.8880   40.1380   39.8880 N.ar  496  HIS496     -0.2267
    201  CD2       19.2890   39.3300   41.8930 C.ar  496  HIS496      0.1154
    202  CE1       18.2500   40.9140   40.7550 C.ar  496  HIS496      0.1986
    203  NE2       18.4710   40.4390   41.9720 N.ar  496  HIS496     -0.2212
    204  N         18.9180   53.9750   37.5930 N.3   642  LYS642     -0.1231
    205  CA        18.0090   53.8630   38.7300 C.3   642  LYS642      0.1693
    206  C         18.6430   53.5860   40.0950 C.2   642  LYS642      0.2592
    207  O         18.1220   54.0200   41.1430 O.2   642  LYS642     -0.2718
    208  CB        16.9870   52.7500   38.4110 C.3   642  LYS642      0.0285
    209  CG        15.8280   52.6860   39.4120 C.3   642  LYS642      0.0035
    210  CD        14.8150   51.6380   38.9930 C.3   642  LYS642      0.0206
    211  CE        13.5360   51.7950   39.8270 C.3   642  LYS642      0.1093
    212  NZ        12.5870   50.6600   39.5510 N.3   642  LYS642     -0.1314
    213  N         19.7850   52.8770   40.1090 N.am  643  TYR643     -0.1976
    214  CA        20.3710   52.5710   41.4120 C.3   643  TYR643      0.1639
    215  C         20.9920   53.7610   42.0930 C.2   643  TYR643      0.2290
    216  O         21.1340   53.7370   43.3120 O.2   643  TYR643     -0.2864
    217  CB        21.5190   51.5800   41.2070 C.3   643  TYR643      0.0560
    218  CG        21.1330   50.2080   40.7210 C.ar  643  TYR643     -0.0198
    219  CD1       20.0610   49.5050   41.2700 C.ar  643  TYR643     -0.0009
    220  CD2       21.9230   49.5570   39.7680 C.ar  643  TYR643     -0.0009
    221  CE1       19.7460   48.2110   40.8250 C.ar  643  TYR643      0.0417
    222  CE2       21.6430   48.2550   39.3460 C.ar  643  TYR643      0.0417
    223  CZ        20.5540   47.5810   39.8950 C.ar  643  TYR643      0.1957
    224  OH        20.2830   46.2940   39.4390 O.3   643  TYR643     -0.2866
@<TRIPOS>BOND
     1    15    14    2
     2    14    13    1
     3    13    16    1
     4    13    12    1
     5    16    17    1
     6     4     3    2
     7    17    18    1
     8    18    19    1
     9    26    25    2
    10    29    30    2
    11    29    28    1
    12    12     3   am
    13     3     2    1
    14    28    31    1
    15    28    27    1
    16    19    20    2
    17    25    27   am
    18    25    24    1
    19    10     8   ar
    20    10    11   ar
    21    23    24    1
    22     8     6   ar
    23    31    32    1
    24    33    32    2
    25     2     1    1
    26     2     5    1
    27    11     9   ar
    28     6     5    1
    29     6     7   ar
    30    20    21    1
    31    20    22    1
    32    32    34   am
    33     9     7   ar
    34   204   205    1
    35   208   205    1
    36   208   209    1
    37   205   206    1
    38   197   196    2
    39   210   209    1
    40   210   211    1
    41   222   220   ar
    42   222   223   ar
    43   224   223    1
    44   212   211    1
    45    54    53    2
    46   185   184    2
    47   220   218   ar
    48   158   157    2
    49   198   199    1
    50   198   195    1
    51   196   195    1
    52   200   199   ar
    53   200   202   ar
    54   223   221   ar
    55   191   189   ar
    56   191   192   ar
    57   206   213   am
    58   206   207    2
    59   213   214    1
    60    61    60    1
    61    61    62    1
    62   159   160    1
    63   159   156    1
    64   189   187   ar
    65   157   156    1
    66   199   201   ar
    67    53    52    1
    68   162   160   ar
    69   162   164   ar
    70   195   194    1
    71   218   217    1
    72   218   219   ar
    73   202   203   ar
    74   193   192    1
    75   221   219   ar
    76   184   194   am
    77   184   183    1
    78   160   161   ar
    79   192   190   ar
    80   156   155    1
    81   217   214    1
    82   166   167    1
    83    63    62    2
    84   164   165   ar
    85   214   215    1
    86    62    64   am
    87   187   186    1
    88   187   188   ar
    89   169   168    2
    90   173   172    2
    91   186   183    1
    92   155   148   am
    93   182   183    1
    94    55    52    1
    95    55    56    1
    96   201   203   ar
    97    52    51    1
    98   167   168    1
    99   215   216    2
   100   161   163   ar
   101   168   170   am
   102   190   188   ar
   103    58    57   ar
   104   165   163   ar
   105   172   171    1
   106    64    65    1
   107    46    45    2
   108   146   147    1
   109   113   112    1
   110   113   114    1
   111   148   149    2
   112   148   147    1
   113    56    57    1
   114    51    45   am
   115    57    59   ar
   116   112   108   am
   117   170   171    1
   118   110   111    1
   119   110   107    1
   120    45    44    1
   121    69    70    1
   122    69    68    1
   123    69    71    1
   124   171   174    1
   125   147   150    1
   126   108   109    2
   127   108   107    1
   128    65    66    1
   129    65    68    1
   130    66    67    2
   131   107   106    1
   132   114   115    2
   133   114   116   am
   134   151   150    1
   135   151   152    1
   136    44    43    1
   137    44    47    1
   138    42    40   ar
   139    49    50    1
   140    49    48    1
   141   177   179   ar
   142   177   175   ar
   143   174   175    1
   144   179   180   ar
   145   175   176   ar
   146   116   117    1
   147   152   153    1
   148   180   181    1
   149   180   178   ar
   150   176   178   ar
   151   153   154    1
   152    48    47    1
   153    40    39    1
   154    40    41   ar
   155   117   118    1
   156   117   120    1
   157    39    36    1
   158   119   118    2
   159    38    37    2
   160   120   121    1
   161   123   121   am
   162    93    92   ar
   163    37    36    1
   164   121   122    2
   165    36    35    1
   166   105   103    1
   167    79    77   ar
   168   104   103    1
   169   133   132    1
   170    89    88    2
   171    92    94   ar
   172    92    91    1
   173   144   143    1
   174   103   102    2
   175    90    91    1
   176    90    87    1
   177   134   132    1
   178   132   131    2
   179    77    78   ar
   180    77    76    1
   181    85    84    1
   182    88    87    1
   183    87    86    1
   184   145   143    1
   185   143   142    2
   186   102   101    1
   187    84    81    1
   188    76    73    1
   189   131   130    1
   190   101   100    1
   191   130   129    1
   192   142   141    1
   193   141   140    1
   194    80    81    1
   195    80    74   am
   196    81    82    1
   197    73    74    1
   198    73    72    1
   199   100    99    1
   200    74    75    2
   201   129   128    1
   202   140   139    1
   203    83    82    2
   204    99    96    1
   205   128   125    1
   206   139   136    1
   207    96    97    1
   208    96    95    1
   209    97    98    2
   210   125   124    1
   211   125   126    1
   212   136   137    1
   213   136   135    1
   214   138   137    2
   215   126   127    2
