@<TRIPOS>MOLECULE
tmp/6ezcA01.pdb
 124 119 0 0 0
SMALL
GASTEIGER

@<TRIPOS>ATOM
      1  N         18.0280   -2.7620  -20.5760 N.3    11  ARG11      -0.1245
      2  CA        18.7410   -1.8950  -21.5380 C.3    11  ARG11       0.1563
      3  C         19.4060   -0.6900  -20.9060 C.2    11  ARG11       0.2260
      4  O         20.5570   -0.3870  -21.2270 O.2    11  ARG11      -0.2867
      5  CB        17.8760   -1.4470  -22.7230 C.3    11  ARG11       0.0307
      6  CG        17.6470   -2.4950  -23.7540 C.3    11  ARG11       0.0489
      7  CD        16.8150   -1.9240  -24.8710 C.3    11  ARG11       0.2205
      8  NE        17.6640   -1.4290  -25.9510 N.pl3  11  ARG11      -0.0865
      9  CZ        17.2060   -0.9020  -27.0780 C.cat  11  ARG11       0.5346
     10  NH1       18.0470   -0.5080  -28.0210 N.pl3  11  ARG11       0.1354
     11  NH2       15.8990   -0.7870  -27.2830 N.pl3  11  ARG11       0.1354
     12  N         23.0190   -0.9930  -18.1260 N.3    14  THR14      -0.1203
     13  CA        24.3090   -1.5140  -18.5910 C.3    14  THR14       0.1994
     14  C         25.4050   -0.7610  -17.8260 C.2    14  THR14       0.2617
     15  O         25.0850    0.1710  -17.0810 O.2    14  THR14      -0.2717
     16  CB        24.4300   -1.5080  -20.1310 C.3    14  THR14       0.1784
     17  OG1       24.2350   -0.1840  -20.6360 O.3    14  THR14      -0.2211
     18  CG2       23.4650   -2.4680  -20.7880 C.3    14  THR14       0.0376
     19  N         26.6820   -1.1870  -17.9580 N.am   15  LEU15      -0.1979
     20  CA        27.8140   -0.6040  -17.2270 C.3    15  LEU15       0.1596
     21  C         27.8780    0.9460  -17.2060 C.2    15  LEU15       0.2287
     22  O         28.0230    1.4690  -16.0910 O.2    15  LEU15      -0.2864
     23  CB        29.1620   -1.1790  -17.7070 C.3    15  LEU15       0.0297
     24  CG        30.4130   -0.8590  -16.8450 C.3    15  LEU15       0.0022
     25  CD1       30.2190   -1.2850  -15.3940 C.3    15  LEU15       0.0001
     26  CD2       31.6700   -1.5470  -17.4080 C.3    15  LEU15       0.0001
     27  N         20.5470   -4.5200  -15.3790 N.3    32  GLU32      -0.1245
     28  CA        19.3800   -4.9300  -16.1370 C.3    32  GLU32       0.1567
     29  C         19.1220   -6.4330  -15.9020 C.2    32  GLU32       0.2260
     30  O         20.0690   -7.1890  -15.6590 O.2    32  GLU32      -0.2867
     31  CB        19.6460   -4.7460  -17.6360 C.3    32  GLU32       0.0388
     32  CG        20.9560   -5.3420  -18.1470 C.3    32  GLU32       0.1160
     33  CD        21.0560   -5.3630  -19.6560 C.2    32  GLU32       0.3649
     34  OE1       20.0330   -5.1280  -20.3410 O.co2  32  GLU32      -0.2457
     35  OE2       22.1670   -5.6290  -20.1590 O.co2  32  GLU32      -0.2457
     36  N         18.8620  -10.1320  -16.7820 N.3    34  LEU34      -0.1245
     37  CA        19.5190  -10.9880  -17.7540 C.3    34  LEU34       0.1561
     38  C         18.9560  -12.3870  -17.5720 C.2    34  LEU34       0.2260
     39  O         18.8700  -12.8820  -16.4520 O.2    34  LEU34      -0.2867
     40  CB        21.0640  -10.9180  -17.6030 C.3    34  LEU34       0.0270
     41  CG        21.7080   -9.5490  -17.9720 C.3    34  LEU34       0.0019
     42  CD1       23.1760   -9.4640  -17.5310 C.3    34  LEU34       0.0001
     43  CD2       21.5720   -9.2200  -19.4750 C.3    34  LEU34       0.0001
     44  N         28.9340  -12.2550  -28.3560 N.3    61  ARG61      -0.1231
     45  CA        28.2770  -11.0980  -27.7600 C.3    61  ARG61       0.1694
     46  C         28.5670  -11.0750  -26.2510 C.2    61  ARG61       0.2592
     47  O         28.4430  -12.1000  -25.5750 O.2    61  ARG61      -0.2718
     48  CB        26.7540  -11.1250  -28.0060 C.3    61  ARG61       0.0321
     49  CG        26.0450   -9.8300  -27.5900 C.3    61  ARG61       0.0489
     50  CD        24.5630   -9.8230  -27.9190 C.3    61  ARG61       0.2205
     51  NE        23.7990  -10.7470  -27.0750 N.pl3  61  ARG61      -0.0865
     52  CZ        23.2700  -10.4330  -25.8970 C.cat  61  ARG61       0.5346
     53  NH1       23.4190   -9.2110  -25.3970 N.pl3  61  ARG61       0.1354
     54  NH2       22.5880  -11.3380  -25.2070 N.pl3  61  ARG61       0.1354
     55  N         28.9660   -9.9010  -25.7430 N.am   62  VAL62      -0.1966
     56  CA        29.2150   -9.6610  -24.3220 C.3    62  VAL62       0.1727
     57  C         27.8280   -9.3850  -23.6950 C.2    62  VAL62       0.2616
     58  O         27.1910   -8.3730  -23.9980 O.2    62  VAL62      -0.2715
     59  CB        30.2420   -8.5090  -24.1050 C.3    62  VAL62       0.0290
     60  CG1       30.4740   -8.2410  -22.6130 C.3    62  VAL62       0.0023
     61  CG2       31.5630   -8.8200  -24.8140 C.3    62  VAL62       0.0023
     62  N         27.3500  -10.3270  -22.8700 N.am   63  VAL63      -0.1963
     63  CA        26.0230  -10.2920  -22.2500 C.3    63  VAL63       0.1727
     64  C         26.0250   -9.4140  -20.9780 C.2    63  VAL63       0.2616
     65  O         25.1250   -8.5940  -20.7740 O.2    63  VAL63      -0.2715
     66  CB        25.4980  -11.7420  -22.0380 C.3    63  VAL63       0.0290
     67  CG1       24.0780  -11.7480  -21.4670 C.3    63  VAL63       0.0023
     68  CG2       25.5390  -12.5270  -23.3550 C.3    63  VAL63       0.0023
     69  N         27.0920   -9.5280  -20.1820 N.am   64  PHE64      -0.1960
     70  CA        27.3000   -8.7350  -18.9800 C.3    64  PHE64       0.1771
     71  C         28.7670   -8.2930  -18.9380 C.2    64  PHE64       0.2619
     72  O         29.6700   -9.0590  -19.3000 O.2    64  PHE64      -0.2715
     73  CB        26.8620   -9.5280  -17.7130 C.3    64  PHE64       0.0574
     74  CG        27.0800   -8.8350  -16.3840 C.ar   64  PHE64      -0.0200
     75  CD1       26.3360   -7.7110  -16.0350 C.ar   64  PHE64      -0.0042
     76  CD2       27.9940   -9.3360  -15.4610 C.ar   64  PHE64      -0.0042
     77  CE1       26.5470   -7.0650  -14.8080 C.ar   64  PHE64      -0.0003
     78  CE2       28.2050   -8.6920  -14.2360 C.ar   64  PHE64      -0.0003
     79  CZ        27.4870   -7.5520  -13.9220 C.ar   64  PHE64      -0.0000
     80  N         28.9890   -7.0350  -18.5220 N.am   65  ARG65      -0.1977
     81  CA        30.2960   -6.4030  -18.4390 C.3    65  ARG65       0.1597
     82  C         30.3560   -5.6190  -17.1490 C.2    65  ARG65       0.2287
     83  O         29.5080   -4.7740  -16.8770 O.2    65  ARG65      -0.2864
     84  CB        30.5520   -5.5020  -19.6700 C.3    65  ARG65       0.0334
     85  CG        31.7800   -4.5720  -19.5750 C.3    65  ARG65       0.0492
     86  CD        32.1500   -3.9480  -20.9130 C.3    65  ARG65       0.2205
     87  NE        32.6820   -4.9640  -21.8220 N.pl3  65  ARG65      -0.0865
     88  CZ        32.7330   -4.8550  -23.1420 C.cat  65  ARG65       0.5346
     89  NH1       33.2190   -5.8460  -23.8740 N.pl3  65  ARG65       0.1354
     90  NH2       32.3090   -3.7500  -23.7410 N.pl3  65  ARG65       0.1354
     91  N         33.4280    0.5920  -24.2960 N.3   255  ASP255     -0.1225
     92  CA        32.9950    0.0700  -25.5910 C.3   255  ASP255      0.1805
     93  C         31.5520   -0.4720  -25.5600 C.2   255  ASP255      0.2598
     94  O         31.2880   -1.6370  -25.8670 O.2   255  ASP255     -0.2718
     95  CB        34.0140   -0.9710  -26.1200 C.3   255  ASP255      0.1424
     96  CG        33.8570   -1.3590  -27.5770 C.2   255  ASP255      0.3668
     97  OD1       33.3380   -0.5330  -28.3620 O.co2 255  ASP255     -0.2456
     98  OD2       34.2650   -2.4860  -27.9370 O.co2 255  ASP255     -0.2456
     99  N         30.6250    0.3790  -25.1310 N.am  256  ASN256     -0.1960
    100  CA        29.2140    0.0250  -25.0540 C.3   256  ASN256      0.1819
    101  C         28.6670    0.0130  -26.4780 C.2   256  ASN256      0.2621
    102  O         29.0440    0.8740  -27.2670 O.2   256  ASN256     -0.2715
    103  CB        28.4740    1.0650  -24.2070 C.3   256  ASN256      0.1195
    104  CG        27.1480    0.5960  -23.6810 C.2   256  ASN256      0.2630
    105  OD1       27.0380   -0.4490  -23.0370 O.2   256  ASN256     -0.2716
    106  ND2       26.1220    1.3860  -23.9030 N.am  256  ASN256     -0.0877
    107  N         27.8140   -0.9710  -26.8210 N.am  257  HIS257     -0.1973
    108  CA        27.2060   -1.0430  -28.1470 C.3   257  HIS257      0.1656
    109  C         26.4490    0.2560  -28.3740 C.2   257  HIS257      0.2291
    110  O         25.6880    0.6810  -27.4990 O.2   257  HIS257     -0.2864
    111  CB        26.2930   -2.2700  -28.2850 C.3   257  HIS257      0.0771
    112  CG        25.8430   -2.5490  -29.6870 C.ar  257  HIS257      0.0820
    113  ND1       26.6510   -2.2710  -30.7830 N.ar  257  HIS257     -0.2267
    114  CD2       24.7050   -3.1370  -30.1240 C.ar  257  HIS257      0.1154
    115  CE1       25.9550   -2.6420  -31.8480 C.ar  257  HIS257      0.1986
    116  NE2       24.7800   -3.1750  -31.5010 N.ar  257  HIS257     -0.2212
    117  N         22.7720    0.7460  -27.6340 N.3   260  ASN260     -0.1240
    118  CA        22.4680    0.7560  -26.2130 C.3   260  ASN260      0.1653
    119  C         22.6860    2.1550  -25.6460 C.2   260  ASN260      0.2266
    120  O         21.8540    2.6420  -24.8900 O.2   260  ASN260     -0.2867
    121  CB        23.2920   -0.3020  -25.4630 C.3   260  ASN260      0.1155
    122  CG        22.9530   -0.3070  -24.0000 C.2   260  ASN260      0.2627
    123  OD1       23.6720    0.2420  -23.1870 O.2   260  ASN260     -0.2716
    124  ND2       21.8180   -0.8660  -23.6480 N.am  260  ASN260     -0.0877
@<TRIPOS>BOND
     1   115   116   ar
     2   115   113   ar
     3   116   114   ar
     4   113   112   ar
     5   114   112   ar
     6   112   111    1
     7   109   108    1
     8   109   110    2
     9    97    96   ar
    10    44    45    1
    11   111   108    1
    12   108   107    1
    13    10     9    1
    14    48    45    1
    15    48    49    1
    16    98    96   ar
    17    50    49    1
    18    50    51    1
    19    45    46    1
    20   117   118    1
    21    96    95    1
    22    11     9    1
    23   102   101    2
    24     9     8    2
    25    51    52    2
    26   107   101   am
    27   101   100    1
    28    46    55   am
    29    46    47    2
    30   118   119    1
    31   118   121    1
    32    95    92    1
    33     8     7    1
    34    52    53    1
    35    52    54    1
    36    94    93    2
    37    55    56    1
    38   119   120    2
    39    92    93    1
    40    92    91    1
    41    93    99   am
    42   121   122    1
    43    99   100    1
    44   100   103    1
    45     7     6    1
    46    61    59    1
    47    56    59    1
    48    56    57    1
    49   103   104    1
    50    59    60    1
    51   122   124   am
    52   122   123    2
    53    58    57    2
    54   106   104   am
    55    89    88    1
    56     6     5    1
    57    90    88    1
    58    57    62   am
    59   104   105    2
    60    68    66    1
    61    88    87    2
    62    62    63    1
    63     5     2    1
    64    63    66    1
    65    63    64    1
    66    66    67    1
    67    87    86    1
    68     2     3    1
    69     2     1    1
    70     4     3    2
    71    64    65    2
    72    64    69   am
    73    86    85    1
    74    18    16    1
    75    17    16    1
    76    34    33   ar
    77    69    70    1
    78    35    33   ar
    79    16    13    1
    80    84    85    1
    81    84    81    1
    82    33    32    1
    83    43    41    1
    84    72    71    2
    85    70    71    1
    86    70    73    1
    87    71    80   am
    88    13    12    1
    89    13    14    1
    90    80    81    1
    91    81    82    1
    92    32    31    1
    93    41    40    1
    94    41    42    1
    95    19    14   am
    96    19    20    1
    97    14    15    2
    98    37    40    1
    99    37    38    1
   100    37    36    1
   101    73    74    1
   102    23    20    1
   103    23    24    1
   104    31    28    1
   105    38    39    2
   106    26    24    1
   107    20    21    1
   108    21    22    2
   109    82    83    2
   110    24    25    1
   111    74    75   ar
   112    74    76   ar
   113    28    29    1
   114    28    27    1
   115    75    77   ar
   116    29    30    2
   117    76    78   ar
   118    77    79   ar
   119    78    79   ar
