@<TRIPOS>MOLECULE
tmp/6ezeA01.pdb
 90 85 0 0 0
SMALL
GASTEIGER

@<TRIPOS>ATOM
      1  N         32.9680   47.3100   15.8400 N.3   204  LEU204     -0.1245
      2  CA        31.6800   47.9310   15.5650 C.3   204  LEU204      0.1561
      3  C         30.5710   46.9310   15.8520 C.2   204  LEU204      0.2260
      4  O         30.6220   45.7940   15.3730 O.2   204  LEU204     -0.2867
      5  CB        31.5930   48.4130   14.1150 C.3   204  LEU204      0.0270
      6  CG        30.2770   49.1000   13.7510 C.3   204  LEU204      0.0019
      7  CD1       30.3130   50.5660   14.1400 C.3   204  LEU204      0.0001
      8  CD2       29.9820   48.9370   12.2750 C.3   204  LEU204      0.0001
      9  N         26.3060   47.0350   15.8370 N.3   206  PRO206     -0.2116
     10  CA        25.0000   47.7030   15.7690 C.3   206  PRO206      0.1372
     11  C         24.0950   47.1960   16.8810 C.2   206  PRO206      0.2244
     12  O         23.9330   45.9880   17.0680 O.2   206  PRO206     -0.2868
     13  CB        24.4680   47.3160   14.3820 C.3   206  PRO206      0.0268
     14  CG        25.6630   46.7770   13.6330 C.3   206  PRO206      0.0207
     15  CD        26.5370   46.1630   14.6760 C.3   206  PRO206      0.0892
     16  N         29.9550   43.1940   14.0370 N.3   225  GLU225     -0.1231
     17  CA        30.2060   43.2210   12.6010 C.3   225  GLU225      0.1699
     18  C         31.6970   43.2760   12.2950 C.2   225  GLU225      0.2592
     19  O         32.1650   42.6120   11.3640 O.2   225  GLU225     -0.2718
     20  CB        29.4790   44.4040   11.9620 C.3   225  GLU225      0.0402
     21  CG        27.9600   44.3090   12.0380 C.3   225  GLU225      0.1161
     22  CD        27.4110   43.0260   11.4370 C.2   225  GLU225      0.3649
     23  OE1       27.9620   42.5580   10.4190 O.co2 225  GLU225     -0.2457
     24  OE2       26.4240   42.4870   11.9820 O.co2 225  GLU225     -0.2457
     25  N         32.4570   44.0590   13.0600 N.am  226  ARG226     -0.1980
     26  CA        33.8880   44.1980   12.8390 C.3   226  ARG226      0.1597
     27  C         34.6150   44.1730   14.1740 C.2   226  ARG226      0.2287
     28  O         34.0650   44.5580   15.2090 O.2   226  ARG226     -0.2864
     29  CB        34.2490   45.5010   12.1080 C.3   226  ARG226      0.0334
     30  CG        33.3900   45.8420   10.9030 C.3   226  ARG226      0.0492
     31  CD        34.0460   46.9360   10.0720 C.3   226  ARG226      0.2205
     32  NE        34.4250   48.0930   10.8780 N.pl3 226  ARG226     -0.0865
     33  CZ        33.8590   49.2920   10.7790 C.cat 226  ARG226      0.5346
     34  NH1       32.8910   49.4990    9.8980 N.pl3 226  ARG226      0.1354
     35  NH2       34.2690   50.2880   11.5540 N.pl3 226  ARG226      0.1354
     36  N         34.4930   55.8910   13.9200 N.3   291  ILE291     -0.1245
     37  CA        33.3430   56.2050   13.0810 C.3   291  ILE291      0.1561
     38  C         32.6390   57.4230   13.6680 C.2   291  ILE291      0.2260
     39  O         32.6420   57.6420   14.8830 O.2   291  ILE291     -0.2867
     40  CB        32.3800   54.9990   12.9470 C.3   291  ILE291      0.0252
     41  CG1       31.4190   55.2010   11.7740 C.3   291  ILE291      0.0019
     42  CG2       31.6040   54.7740   14.2330 C.3   291  ILE291      0.0019
     43  CD1       30.5910   53.9760   11.4430 C.3   291  ILE291      0.0001
     44  N         21.0180   49.7370    9.1660 N.3   326  ARG326     -0.1245
     45  CA        21.3450   48.6300   10.0590 C.3   326  ARG326      0.1563
     46  C         20.1270   48.1210   10.8210 C.2   326  ARG326      0.2260
     47  O         19.7060   46.9750   10.6330 O.2   326  ARG326     -0.2867
     48  CB        22.4390   49.0340   11.0540 C.3   326  ARG326      0.0307
     49  CG        23.7200   49.5530   10.4250 C.3   326  ARG326      0.0489
     50  CD        24.7930   49.7300   11.4840 C.3   326  ARG326      0.2205
     51  NE        26.0090   50.3330   10.9540 N.pl3 326  ARG326     -0.0865
     52  CZ        26.2150   51.6440   10.8810 C.cat 326  ARG326      0.5346
     53  NH1       25.2810   52.4860   11.3020 N.pl3 326  ARG326      0.1354
     54  NH2       27.3530   52.1120   10.3880 N.pl3 326  ARG326      0.1354
     55  N         28.1820   56.5660   10.1630 N.3   361  MET361     -0.1230
     56  CA        28.3440   56.0930    8.7980 C.3   361  MET361      0.1702
     57  C         29.7060   56.4790    8.2440 C.2   361  MET361      0.2592
     58  O         30.3650   57.4070    8.7190 O.2   361  MET361     -0.2718
     59  CB        27.2600   56.6570    7.8740 C.3   361  MET361      0.0401
     60  CG        27.3740   58.1530    7.6310 C.3   361  MET361      0.0596
     61  SD        26.1560   58.7550    6.4480 S.3   361  MET361     -0.1393
     62  CE        24.6320   58.4200    7.3290 C.3   361  MET361      0.0692
     63  N         30.1130   55.7250    7.2260 N.am  362  ASP362     -0.1960
     64  CA        31.2020   56.0740    6.3270 C.3   362  ASP362      0.1840
     65  C         30.8080   55.5880    4.9380 C.2   362  ASP362      0.2622
     66  O         29.7660   54.9510    4.7590 O.2   362  ASP362     -0.2715
     67  CB        32.5410   55.4730    6.7710 C.3   362  ASP362      0.1450
     68  CG        33.7310   56.2120    6.1840 C.2   362  ASP362      0.3671
     69  OD1       33.5810   56.8120    5.0990 O.co2 362  ASP362     -0.2456
     70  OD2       34.8140   56.1910    6.8040 O.co2 362  ASP362     -0.2456
     71  N         31.6380   55.9110    3.9470 N.am  363  ASP363     -0.1957
     72  CA        31.3860   55.4650    2.5830 C.3   363  ASP363      0.1840
     73  C         31.2120   53.9520    2.5350 C.2   363  ASP363      0.2623
     74  O         31.9560   53.2050    3.1730 O.2   363  ASP363     -0.2715
     75  CB        32.5350   55.8820    1.6640 C.3   363  ASP363      0.1450
     76  CG        32.6950   57.3840    1.5700 C.2   363  ASP363      0.3671
     77  OD1       31.8830   58.1110    2.1780 O.co2 363  ASP363     -0.2456
     78  OD2       33.6350   57.8360    0.8830 O.co2 363  ASP363     -0.2456
     79  N         30.2140   53.5040    1.7760 N.am  364  GLY364     -0.1940
     80  CA        29.9530   52.0930    1.6030 C.3   364  GLY364      0.2014
     81  C         28.8290   51.5380    2.4510 C.2   364  GLY364      0.2638
     82  O         28.3990   50.4030    2.2080 O.2   364  GLY364     -0.2714
     83  N         28.3480   52.2920    3.4380 N.am  365  LEU365     -0.1977
     84  CA        27.2490   51.8150    4.2660 C.3   365  LEU365      0.1596
     85  C         25.9930   51.6430    3.4240 C.2   365  LEU365      0.2287
     86  O         25.5470   52.5760    2.7490 O.2   365  LEU365     -0.2864
     87  CB        26.9920   52.7900    5.4160 C.3   365  LEU365      0.0297
     88  CG        25.9080   52.3980    6.4240 C.3   365  LEU365      0.0022
     89  CD1       26.1920   51.0290    7.0090 C.3   365  LEU365      0.0001
     90  CD2       25.7890   53.4360    7.5290 C.3   365  LEU365      0.0001
@<TRIPOS>BOND
     1    78    76   ar
     2    76    75    1
     3    76    77   ar
     4    80    79    1
     5    80    81    1
     6    75    72    1
     7    79    73   am
     8    82    81    2
     9    81    83   am
    10    73    72    1
    11    73    74    2
    12    72    71    1
    13    86    85    2
    14    85    84    1
    15    83    84    1
    16    71    65   am
    17    84    87    1
    18    66    65    2
    19    65    64    1
    20    69    68   ar
    21    87    88    1
    22    68    67    1
    23    68    70   ar
    24    64    67    1
    25    64    63    1
    26    88    89    1
    27    88    90    1
    28    61    62    1
    29    61    60    1
    30    63    57   am
    31    60    59    1
    32    59    56    1
    33    57    58    2
    34    57    56    1
    35    56    55    1
    36    44    45    1
    37    34    33    1
    38    45    46    1
    39    45    48    1
    40    31    32    1
    41    31    30    1
    42    54    52    1
    43    23    22   ar
    44    49    48    1
    45    49    50    1
    46    47    46    2
    47    33    32    2
    48    33    35    1
    49    52    51    2
    50    52    53    1
    51    30    29    1
    52    51    50    1
    53    19    18    2
    54    22    24   ar
    55    22    21    1
    56    43    41    1
    57    41    40    1
    58    20    21    1
    59    20    17    1
    60    29    26    1
    61     8     6    1
    62    18    17    1
    63    18    25   am
    64    17    16    1
    65    26    25    1
    66    26    27    1
    67    40    37    1
    68    40    42    1
    69    37    38    1
    70    37    36    1
    71    14    13    1
    72    14    15    1
    73    38    39    2
    74     6     5    1
    75     6     7    1
    76     5     2    1
    77    27    28    2
    78    13    10    1
    79    15     9    1
    80     4     3    2
    81     2     1    1
    82     2     3    1
    83    10     9    1
    84    10    11    1
    85    11    12    2
