@<TRIPOS>MOLECULE
tmp/6ezfA00.pdb
 151 143 0 0 0
SMALL
GASTEIGER

@<TRIPOS>ATOM
      1  N         26.6200    5.0120  -12.9670 N.3    76  TYR76      -0.1241
      2  CA        25.5470    4.2320  -12.3320 C.3    76  TYR76       0.1605
      3  C         24.7070    3.4100  -13.3170 C.2    76  TYR76       0.2264
      4  O         24.5140    2.2050  -13.1130 O.2    76  TYR76      -0.2867
      5  CB        24.6290    5.1380  -11.4870 C.3    76  TYR76       0.0534
      6  CG        23.5640    4.3460  -10.7500 C.ar   76  TYR76      -0.0201
      7  CD1       23.9020    3.5060   -9.6870 C.ar   76  TYR76      -0.0009
      8  CD2       22.2390    4.3770  -11.1580 C.ar   76  TYR76      -0.0009
      9  CE1       22.9320    2.7490   -9.0240 C.ar   76  TYR76       0.0417
     10  CE2       21.2660    3.6320  -10.5060 C.ar   76  TYR76       0.0417
     11  CZ        21.6190    2.8270   -9.4330 C.ar   76  TYR76       0.1957
     12  OH        20.6400    2.0930   -8.7970 O.3    76  TYR76      -0.2866
     13  N         19.8340   12.7330  -17.4410 N.3   125  ASN125     -0.1240
     14  CA        18.4290   12.7330  -17.0870 C.3   125  ASN125      0.1653
     15  C         17.9280   14.1690  -17.2120 C.2   125  ASN125      0.2266
     16  O         18.2510   15.0110  -16.3770 O.2   125  ASN125     -0.2867
     17  CB        18.2620   12.1950  -15.6620 C.3   125  ASN125      0.1155
     18  CG        16.8110   12.0140  -15.2540 C.2   125  ASN125      0.2627
     19  OD1       15.8890   12.5410  -15.8940 O.2   125  ASN125     -0.2716
     20  ND2       16.6010   11.2820  -14.1620 N.am  125  ASN125     -0.0877
     21  N         12.6330   15.6480  -15.8490 N.3   128  PHE128     -0.1241
     22  CA        11.7880   16.0570  -14.7100 C.3   128  PHE128      0.1605
     23  C         10.6620   17.0300  -15.0550 C.2   128  PHE128      0.2264
     24  O          9.5830   16.9510  -14.4560 O.2   128  PHE128     -0.2867
     25  CB        12.6460   16.6160  -13.5740 C.3   128  PHE128      0.0534
     26  CG        13.6520   15.6310  -13.0510 C.ar  128  PHE128     -0.0203
     27  CD1       13.2560   14.5990  -12.2030 C.ar  128  PHE128     -0.0042
     28  CD2       14.9900   15.7110  -13.4360 C.ar  128  PHE128     -0.0042
     29  CE1       14.1840   13.6650  -11.7200 C.ar  128  PHE128     -0.0003
     30  CE2       15.9220   14.7840  -12.9660 C.ar  128  PHE128     -0.0003
     31  CZ        15.5180   13.7610  -12.1040 C.ar  128  PHE128     -0.0000
     32  N         15.3180   19.8960   -5.3140 N.3   135  VAL135     -0.1245
     33  CA        15.1430   18.4500   -5.2350 C.3   135  VAL135      0.1561
     34  C         13.6960   18.0920   -4.8790 C.2   135  VAL135      0.2260
     35  O         13.1850   17.0830   -5.3540 O.2   135  VAL135     -0.2867
     36  CB        16.1370   17.7900   -4.2460 C.3   135  VAL135      0.0252
     37  CG1       15.8730   18.2060   -2.7980 C.3   135  VAL135      0.0019
     38  CG2       16.1010   16.2580   -4.3780 C.3   135  VAL135      0.0019
     39  N         11.5870   17.7340   -7.9920 N.3   138  ALA138     -0.1231
     40  CA        11.8840   16.4160   -8.5680 C.3   138  ALA138      0.1694
     41  C         11.2400   15.2570   -7.7870 C.2   138  ALA138      0.2591
     42  O         10.7160   14.3160   -8.3930 O.2   138  ALA138     -0.2718
     43  CB        13.3980   16.2180   -8.6890 C.3   138  ALA138      0.0304
     44  N         11.2540   15.3340   -6.4510 N.am  139  LEU139     -0.1980
     45  CA        10.7290   14.2410   -5.6030 C.3   139  LEU139      0.1596
     46  C          9.2000   14.1490   -5.6100 C.2   139  LEU139      0.2287
     47  O          8.6410   13.1100   -5.2740 O.2   139  LEU139     -0.2864
     48  CB        11.2180   14.3790   -4.1480 C.3   139  LEU139      0.0297
     49  CG        12.6970   14.0790   -3.8990 C.3   139  LEU139      0.0022
     50  CD1       13.1040   14.5660   -2.5150 C.3   139  LEU139      0.0001
     51  CD2       12.9920   12.5850   -4.0650 C.3   139  LEU139      0.0001
     52  N          9.9760    7.4690  -12.2910 N.3   191  LEU191     -0.1245
     53  CA         9.5610    7.9410  -10.9690 C.3   191  LEU191      0.1561
     54  C          8.2430    8.7150  -11.0310 C.2   191  LEU191      0.2260
     55  O          7.4080    8.5790  -10.1420 O.2   191  LEU191     -0.2867
     56  CB        10.6450    8.8210  -10.3490 C.3   191  LEU191      0.0270
     57  CG        10.3460    9.2780   -8.9210 C.3   191  LEU191      0.0019
     58  CD1       10.0050    8.0710   -8.0410 C.3   191  LEU191      0.0001
     59  CD2       11.5060   10.0480   -8.3400 C.3   191  LEU191      0.0001
     60  N         15.4060    0.0900   -7.0890 N.3   230  LEU230     -0.1245
     61  CA        15.9940    0.7350   -5.9120 C.3   230  LEU230      0.1561
     62  C         16.6570   -0.2330   -4.9280 C.2   230  LEU230      0.2260
     63  O         17.0540    0.1750   -3.8270 O.2   230  LEU230     -0.2867
     64  CB        14.9140    1.5460   -5.1840 C.3   230  LEU230      0.0270
     65  CG        14.2230    2.6350   -6.0100 C.3   230  LEU230      0.0019
     66  CD1       13.2100    3.3910   -5.1400 C.3   230  LEU230      0.0001
     67  CD2       15.2220    3.6040   -6.6250 C.3   230  LEU230      0.0001
     68  N         19.5350   -0.1040   -2.1360 N.3   233  GLN233     -0.1245
     69  CA        19.3000    0.4580   -0.8080 C.3   233  GLN233      0.1566
     70  C         18.8880   -0.5540    0.2570 C.2   233  GLN233      0.2260
     71  O         18.7690   -0.1890    1.4330 O.2   233  GLN233     -0.2867
     72  CB        18.2600    1.5780   -0.9010 C.3   233  GLN233      0.0367
     73  CG        18.6290    2.6670   -1.8860 C.3   233  GLN233      0.0905
     74  CD        20.0290    3.1960   -1.6630 C.2   233  GLN233      0.2608
     75  OE1       20.4170    3.4730   -0.5310 O.2   233  GLN233     -0.2717
     76  NE2       20.7900    3.3450   -2.7430 N.am  233  GLN233     -0.0878
     77  N         25.8650    7.4640   -8.3480 N.3   247  ILE247     -0.1231
     78  CA        24.7290    8.3240   -8.7120 C.3   247  ILE247      0.1692
     79  C         25.1770    9.7800   -8.8490 C.2   247  ILE247      0.2592
     80  O         24.8720   10.4400   -9.8550 O.2   247  ILE247     -0.2718
     81  CB        23.5740    8.2020   -7.6760 C.3   247  ILE247      0.0266
     82  CG1       22.8850    6.8380   -7.8070 C.3   247  ILE247      0.0019
     83  CG2       22.5470    9.3480   -7.8260 C.3   247  ILE247      0.0020
     84  CD1       21.9050    6.5020   -6.6860 C.3   247  ILE247      0.0001
     85  N         25.9420   10.2600   -7.8680 N.am  248  TYR248     -0.1976
     86  CA        26.3430   11.6700   -7.8570 C.3   248  TYR248      0.1639
     87  C         27.4880   11.9650   -8.8220 C.2   248  TYR248      0.2290
     88  O         27.5150   13.0270   -9.4210 O.2   248  TYR248     -0.2864
     89  CB        26.5480   12.1800   -6.4190 C.3   248  TYR248      0.0560
     90  CG        25.1920   12.3590   -5.7960 C.ar  248  TYR248     -0.0198
     91  CD1       24.4220   13.4800   -6.1040 C.ar  248  TYR248     -0.0009
     92  CD2       24.6190   11.3720   -4.9990 C.ar  248  TYR248     -0.0009
     93  CE1       23.1530   13.6360   -5.6050 C.ar  248  TYR248      0.0417
     94  CE2       23.3230   11.5230   -4.4880 C.ar  248  TYR248      0.0417
     95  CZ        22.6060   12.6660   -4.8040 C.ar  248  TYR248      0.1957
     96  OH        21.3360   12.8610   -4.3380 O.3   248  TYR248     -0.2866
     97  N         25.4110   12.3300  -11.9510 N.3   251  PHE251     -0.1241
     98  CA        24.6810   13.6000  -11.8880 C.3   251  PHE251      0.1605
     99  C         25.6020   14.8030  -12.0930 C.2   251  PHE251      0.2264
    100  O         25.2760   15.7170  -12.8540 O.2   251  PHE251     -0.2867
    101  CB        23.9840   13.7560  -10.5270 C.3   251  PHE251      0.0534
    102  CG        22.6090   13.1170  -10.4140 C.ar  251  PHE251     -0.0203
    103  CD1       21.9820   12.4460  -11.4680 C.ar  251  PHE251     -0.0042
    104  CD2       21.9090   13.2680   -9.2180 C.ar  251  PHE251     -0.0042
    105  CE1       20.7090   11.9100  -11.3060 C.ar  251  PHE251     -0.0003
    106  CE2       20.6490   12.7320   -9.0560 C.ar  251  PHE251     -0.0003
    107  CZ        20.0440   12.0540  -10.1020 C.ar  251  PHE251     -0.0000
    108  N         20.3210   18.8080   -7.2320 N.3   268  MET268     -0.1245
    109  CA        20.9960   17.5490   -6.9110 C.3   268  MET268      0.1570
    110  C         22.1230   17.2160   -7.8950 C.2   268  MET268      0.2261
    111  O         22.9190   16.3180   -7.6330 O.2   268  MET268     -0.2867
    112  CB        19.9950   16.4030   -6.8600 C.3   268  MET268      0.0387
    113  CG        19.3950   16.0640   -8.1870 C.3   268  MET268      0.0595
    114  SD        17.6670   15.7450   -7.9600 S.3   268  MET268     -0.1393
    115  CE        17.1870   15.4380   -9.6500 C.3   268  MET268      0.0692
    116  N         20.5310   14.6830    0.7130 N.3   279  LEU279     -0.1231
    117  CA        19.7980   14.2580   -0.4780 C.3   279  LEU279      0.1693
    118  C         19.4040   12.7760   -0.3890 C.2   279  LEU279      0.2591
    119  O         18.2870   12.4040   -0.7470 O.2   279  LEU279     -0.2718
    120  CB        20.6190   14.5320   -1.7460 C.3   279  LEU279      0.0284
    121  CG        20.7300   16.0050   -2.1480 C.3   279  LEU279      0.0019
    122  CD1       21.8030   16.2050   -3.2070 C.3   279  LEU279      0.0001
    123  CD2       19.3970   16.5370   -2.6560 C.3   279  LEU279      0.0001
    124  N         20.3180   11.9430    0.0990 N.am  280  GLN280     -0.1979
    125  CA        20.0480   10.5140    0.2810 C.3   280  GLN280      0.1601
    126  C         18.9190   10.3080    1.2730 C.2   280  GLN280      0.2287
    127  O         18.0110    9.4990    1.0370 O.2   280  GLN280     -0.2864
    128  CB        21.2890    9.7780    0.7880 C.3   280  GLN280      0.0394
    129  CG        22.3190    9.5230   -0.2660 C.3   280  GLN280      0.0908
    130  CD        21.8680    8.4720   -1.2610 C.2   280  GLN280      0.2608
    131  OE1       21.7290    7.2940   -0.9230 O.2   280  GLN280     -0.2717
    132  NE2       21.6110    8.8960   -2.4800 N.am  280  GLN280     -0.0878
    133  N         15.6210   11.3130   -0.5220 N.3   283  PHE283     -0.1227
    134  CA        15.1760   10.2790   -1.4560 C.3   283  PHE283      0.1736
    135  C         14.6440    9.0510   -0.7150 C.2   283  PHE283      0.2595
    136  O         13.6260    8.4670   -1.1120 O.2   283  PHE283     -0.2718
    137  CB        16.2760    9.8590   -2.4260 C.3   283  PHE283      0.0547
    138  CG        15.7800    8.9510   -3.5110 C.ar  283  PHE283     -0.0202
    139  CD1       15.2480    9.4760   -4.6770 C.ar  283  PHE283     -0.0042
    140  CD2       15.7880    7.5730   -3.3410 C.ar  283  PHE283     -0.0042
    141  CE1       14.7560    8.6430   -5.6770 C.ar  283  PHE283     -0.0003
    142  CE2       15.2910    6.7240   -4.3390 C.ar  283  PHE283     -0.0003
    143  CZ        14.7800    7.2680   -5.5040 C.ar  283  PHE283     -0.0000
    144  N         15.3320    8.6470    0.3480 N.am  284  MET284     -0.1979
    145  CA        14.9100    7.4650    1.0910 C.3   284  MET284      0.1605
    146  C         13.5770    7.6830    1.8000 C.2   284  MET284      0.2287
    147  O         12.7210    6.8040    1.7780 O.2   284  MET284     -0.2864
    148  CB        16.0060    6.9900    2.0450 C.3   284  MET284      0.0413
    149  CG        17.1820    6.4010    1.2780 C.3   284  MET284      0.0598
    150  SD        18.6400    6.1540    2.2840 S.3   284  MET284     -0.1393
    151  CE        18.6370    4.3740    2.4450 C.3   284  MET284      0.0692
@<TRIPOS>BOND
     1    13    14    1
     2    15    14    1
     3    15    16    2
     4    14    17    1
     5    19    18    2
     6    21    22    1
     7    17    18    1
     8    18    20   am
     9    23    22    1
    10    23    24    2
    11    22    25    1
    12    25    26    1
    13    28    26   ar
    14    28    30   ar
    15     3     4    2
    16     3     2    1
    17    26    27   ar
    18     1     2    1
    19    30    31   ar
    20   100    99    2
    21     2     5    1
    22    52    53    1
    23    27    29   ar
    24    31    29   ar
    25    99    98    1
    26    97    98    1
    27    98   101    1
    28     5     6    1
    29   103   105   ar
    30   103   102   ar
    31   105   107   ar
    32     8     6   ar
    33     8    10   ar
    34    54    53    1
    35    54    55    2
    36    53    56    1
    37     6     7   ar
    38   101   102    1
    39    10    11   ar
    40   102   104   ar
    41    56    57    1
    42   107   106   ar
    43    80    79    2
    44     7     9   ar
    45   115   114    1
    46    11     9   ar
    47    11    12    1
    48    88    87    2
    49   104   106   ar
    50    57    59    1
    51    57    58    1
    52    79    78    1
    53    79    85   am
    54    87    86    1
    55    78    77    1
    56    78    81    1
    57    43    40    1
    58    40    39    1
    59    40    41    1
    60    42    41    2
    61   113   114    1
    62   113   112    1
    63   110   111    2
    64   110   109    1
    65    85    86    1
    66    86    89    1
    67    83    81    1
    68    82    81    1
    69    82    84    1
    70    41    44   am
    71   108   109    1
    72    60    61    1
    73   109   112    1
    74    67    65    1
    75    44    45    1
    76    89    90    1
    77    91    90   ar
    78    91    93   ar
    79    65    64    1
    80    65    66    1
    81    61    64    1
    82    61    62    1
    83    90    92   ar
    84   141   143   ar
    85   141   139   ar
    86    46    45    1
    87    46    47    2
    88    93    95   ar
    89    45    48    1
    90   143   142   ar
    91    35    34    2
    92    32    33    1
    93    33    34    1
    94    33    36    1
    95    92    94   ar
    96    62    63    2
    97    95    94   ar
    98    95    96    1
    99   139   138   ar
   100    38    36    1
   101   142   140   ar
   102    36    37    1
   103    48    49    1
   104    51    49    1
   105    49    50    1
   106   138   140   ar
   107   138   137    1
   108   122   121    1
   109    76    74   am
   110   123   121    1
   111   132   130   am
   112   137   134    1
   113   121   120    1
   114    68    69    1
   115    73    74    1
   116    73    72    1
   117   120   117    1
   118    74    75    2
   119   134   135    1
   120   134   133    1
   121   130   131    2
   122   130   129    1
   123   136   135    2
   124    72    69    1
   125    69    70    1
   126   119   118    2
   127   135   144   am
   128   117   118    1
   129   117   116    1
   130   118   124   am
   131   129   128    1
   132   124   125    1
   133    70    71    2
   134   125   128    1
   135   125   126    1
   136   144   145    1
   137   127   126    2
   138   145   146    1
   139   145   148    1
   140   149   148    1
   141   149   150    1
   142   147   146    2
   143   150   151    1
