@<TRIPOS>MOLECULE
tmp/6ezgA00.pdb
 227 225 0 0 0
SMALL
GASTEIGER

@<TRIPOS>ATOM
      1  N         -6.2060    5.2890   61.5110 N.3    67  TYR67      -0.1241
      2  CA        -7.4370    4.7490   60.9690 C.3    67  TYR67       0.1605
      3  C         -7.5300    3.2570   61.2770 C.2    67  TYR67       0.2264
      4  O         -6.5560    2.5180   61.1120 O.2    67  TYR67      -0.2867
      5  CB        -7.4890    4.9890   59.4600 C.3    67  TYR67       0.0534
      6  CG        -8.7270    4.4680   58.7910 C.ar   67  TYR67      -0.0201
      7  CD1       -9.8690    5.2520   58.6980 C.ar   67  TYR67      -0.0009
      8  CD2       -8.7520    3.1920   58.2370 C.ar   67  TYR67      -0.0009
      9  CE1      -10.9990    4.7750   58.0770 C.ar   67  TYR67       0.0417
     10  CE2       -9.8700    2.7110   57.6160 C.ar   67  TYR67       0.0417
     11  CZ       -10.9890    3.5060   57.5330 C.ar   67  TYR67       0.1957
     12  OH       -12.1130    3.0230   56.9280 O.3    67  TYR67      -0.2866
     13  N         -9.6170   -0.3310   60.4770 N.3    69  ASP69      -0.1239
     14  CA       -10.4650   -0.9140   59.4340 C.3    69  ASP69       0.1674
     15  C        -11.6510   -1.6900   60.0080 C.2    69  ASP69       0.2266
     16  O        -11.4770   -2.7340   60.6310 O.2    69  ASP69      -0.2867
     17  CB        -9.6340   -1.8250   58.5300 C.3    69  ASP69       0.1410
     18  CG       -10.4860   -2.5810   57.5130 C.2    69  ASP69       0.3668
     19  OD1      -11.6020   -2.1210   57.1870 O.co2  69  ASP69      -0.2456
     20  OD2      -10.0350   -3.6430   57.0380 O.co2  69  ASP69      -0.2456
     21  N        -14.3310   -2.5930   58.0060 N.3    71  GLN71      -0.1245
     22  CA       -15.0250   -3.1180   56.8390 C.3    71  GLN71       0.1566
     23  C        -15.6620   -4.4760   57.0930 C.2    71  GLN71       0.2260
     24  O        -16.8170   -4.7020   56.7350 O.2    71  GLN71      -0.2867
     25  CB       -14.0500   -3.2190   55.6610 C.3    71  GLN71       0.0367
     26  CG       -14.2870   -2.1750   54.6120 C.3    71  GLN71       0.0905
     27  CD       -15.6550   -2.3160   54.0390 C.2    71  GLN71       0.2608
     28  OE1      -16.1710   -3.4300   53.9390 O.2    71  GLN71      -0.2717
     29  NE2      -16.2760   -1.1950   53.6810 N.am   71  GLN71      -0.0878
     30  N         -8.9620   -9.1610   57.7860 N.3    78  SER78      -0.1217
     31  CA        -8.7540   -7.7250   57.8780 C.3    78  SER78       0.1889
     32  C         -8.2870   -7.3170   59.2750 C.2    78  SER78       0.2288
     33  O         -7.4290   -6.4470   59.4180 O.2    78  SER78      -0.2866
     34  CB       -10.0290   -6.9720   57.5120 C.3    78  SER78       0.2089
     35  OG       -11.1660   -7.5190   58.1610 O.3    78  SER78      -0.2183
     36  N         -4.6310   -7.0910   60.7840 N.3    81  TRP81      -0.1241
     37  CA        -3.8100   -5.9290   60.4440 C.3    81  TRP81       0.1605
     38  C         -4.1150   -4.7110   61.3150 C.2    81  TRP81       0.2264
     39  O         -3.3650   -3.7400   61.2910 O.2    81  TRP81      -0.2867
     40  CB        -3.9910   -5.5480   58.9600 C.3    81  TRP81       0.0550
     41  CG        -3.6930   -6.6690   58.0270 C.ar   81  TRP81       0.0003
     42  CD1       -4.5970   -7.4120   57.3230 C.ar   81  TRP81       0.0946
     43  CD2       -2.4010   -7.2040   57.7150 C.ar   81  TRP81       0.0152
     44  NE1       -3.9440   -8.3670   56.5780 N.ar   81  TRP81      -0.2442
     45  CE2       -2.5950   -8.2630   56.8090 C.ar   81  TRP81       0.0810
     46  CE3       -1.0980   -6.8880   58.1110 C.ar   81  TRP81       0.0012
     47  CZ2       -1.5350   -9.0050   56.2940 C.ar   81  TRP81       0.0191
     48  CZ3       -0.0460   -7.6260   57.5940 C.ar   81  TRP81       0.0001
     49  CH2       -0.2730   -8.6710   56.6980 C.ar   81  TRP81       0.0015
     50  N          4.5700   -2.1350   57.3980 N.3   114  GLY114     -0.1210
     51  CA         3.8980   -1.4240   56.3250 C.3   114  GLY114      0.1956
     52  C          2.5570   -0.9020   56.7920 C.2   114  GLY114      0.2612
     53  O          2.2830   -0.8620   58.0010 O.2   114  GLY114     -0.2717
     54  N          1.7130   -0.5050   55.8510 N.am  115  GLY115     -0.1956
     55  CA         0.4020    0.0290   56.1840 C.3   115  GLY115      0.1869
     56  C          0.1370    1.3730   55.5310 C.2   115  GLY115      0.2309
     57  O         -0.6020    2.1990   56.0720 O.2   115  GLY115     -0.2863
     58  N         -0.2420    5.1940   56.7020 N.3   118  TYR118     -0.1227
     59  CA        -1.3830    5.7420   57.4430 C.3   118  TYR118      0.1736
     60  C         -1.7480    4.8330   58.6200 C.2   118  TYR118      0.2596
     61  O         -2.6260    5.1550   59.4230 O.2   118  TYR118     -0.2718
     62  CB        -2.6030    5.9360   56.5140 C.3   118  TYR118      0.0548
     63  CG        -3.3060    4.6430   56.1430 C.ar  118  TYR118     -0.0200
     64  CD1       -4.2890    4.1170   56.9670 C.ar  118  TYR118     -0.0009
     65  CD2       -2.9950    3.9530   54.9590 C.ar  118  TYR118     -0.0009
     66  CE1       -4.9320    2.9420   56.6590 C.ar  118  TYR118      0.0417
     67  CE2       -3.6400    2.7640   54.6350 C.ar  118  TYR118      0.0417
     68  CZ        -4.6160    2.2680   55.4980 C.ar  118  TYR118      0.1957
     69  OH        -5.2800    1.0950   55.2260 O.3   118  TYR118     -0.2866
     70  N         -1.0640    3.6990   58.7210 N.am  119  SER119     -0.1938
     71  CA        -1.4080    2.6870   59.7070 C.3   119  SER119      0.2055
     72  C         -0.2730    1.6790   59.9010 C.2   119  SER119      0.2643
     73  O          0.7690    1.7660   59.2560 O.2   119  SER119     -0.2714
     74  CB        -2.6750    1.9580   59.2770 C.3   119  SER119      0.2130
     75  OG        -2.4220    1.1590   58.1300 O.3   119  SER119     -0.2179
     76  N         -0.4930    0.7140   60.7870 N.am  120  GLY120     -0.1954
     77  CA         0.5000   -0.3060   61.0600 C.3   120  GLY120      0.1869
     78  C          0.8870   -0.3280   62.5290 C.2   120  GLY120      0.2309
     79  O          0.8890    0.7060   63.1840 O.2   120  GLY120     -0.2863
     80  N          3.9540  -10.2310   63.1290 N.3   127  TYR127     -0.1241
     81  CA         5.2710   -9.6140   63.2850 C.3   127  TYR127      0.1605
     82  C          5.9630  -10.1370   64.5520 C.2   127  TYR127      0.2264
     83  O          6.9980   -9.6150   64.9630 O.2   127  TYR127     -0.2867
     84  CB         5.1690   -8.0840   63.3390 C.3   127  TYR127      0.0534
     85  CG         4.4840   -7.4090   62.1600 C.ar  127  TYR127     -0.0201
     86  CD1        4.3800   -8.0310   60.9170 C.ar  127  TYR127     -0.0009
     87  CD2        3.9360   -6.1380   62.3020 C.ar  127  TYR127     -0.0009
     88  CE1        3.7550   -7.3990   59.8550 C.ar  127  TYR127      0.0417
     89  CE2        3.3200   -5.5050   61.2610 C.ar  127  TYR127      0.0417
     90  CZ         3.2300   -6.1320   60.0330 C.ar  127  TYR127      0.1957
     91  OH         2.5980   -5.4830   59.0010 O.3   127  TYR127     -0.2866
     92  N          7.8110   -4.4360   54.7470 N.3   196  GLU196     -0.1231
     93  CA         6.8780   -4.7700   53.6960 C.3   196  GLU196      0.1699
     94  C          6.0040   -3.5680   53.3590 C.2   196  GLU196      0.2592
     95  O          5.6480   -2.7790   54.2440 O.2   196  GLU196     -0.2718
     96  CB         6.0430   -5.9720   54.1270 C.3   196  GLU196      0.0402
     97  CG         5.1270   -6.5280   53.0750 C.3   196  GLU196      0.1161
     98  CD         3.7830   -5.8230   53.0670 C.2   196  GLU196      0.3649
     99  OE1        3.5080   -5.0490   54.0130 O.co2 196  GLU196     -0.2457
    100  OE2        3.0050   -6.0380   52.1140 O.co2 196  GLU196     -0.2457
    101  N          5.6860   -3.4280   52.0750 N.am  197  SER197     -0.1952
    102  CA         4.8260   -2.3540   51.5770 C.3   197  SER197      0.1924
    103  C          5.3920   -0.9940   51.9630 C.2   197  SER197      0.2314
    104  O          6.5170   -0.6760   51.6070 O.2   197  SER197     -0.2863
    105  CB         3.4000   -2.5180   52.1010 C.3   197  SER197      0.2116
    106  OG         2.5000   -1.7040   51.3790 O.3   197  SER197     -0.2180
    107  N         -8.8540   11.0130   54.9990 N.3   276  TRP276     -0.1241
    108  CA        -9.0330   10.6210   53.6100 C.3   276  TRP276      0.1605
    109  C         -9.6510   11.7210   52.7540 C.2   276  TRP276      0.2264
    110  O         -9.6470   11.6290   51.5360 O.2   276  TRP276     -0.2867
    111  CB        -9.8940    9.3590   53.5230 C.3   276  TRP276      0.0550
    112  CG        -9.3230    8.1830   54.2850 C.ar  276  TRP276      0.0003
    113  CD1       -9.6760    7.7660   55.5430 C.ar  276  TRP276      0.0946
    114  CD2       -8.3130    7.2750   53.8310 C.ar  276  TRP276      0.0152
    115  NE1       -8.9450    6.6590   55.8930 N.ar  276  TRP276     -0.2442
    116  CE2       -8.1000    6.3400   54.8620 C.ar  276  TRP276      0.0810
    117  CE3       -7.5690    7.1600   52.6500 C.ar  276  TRP276      0.0012
    118  CZ2       -7.1740    5.3060   54.7500 C.ar  276  TRP276      0.0191
    119  CZ3       -6.6510    6.1370   52.5420 C.ar  276  TRP276      0.0001
    120  CH2       -6.4610    5.2210   53.5870 C.ar  276  TRP276      0.0015
    121  N         -7.3160   13.7730   49.8780 N.3   279  LEU279     -0.1245
    122  CA        -6.7850   13.2240   48.6310 C.3   279  LEU279      0.1561
    123  C         -7.3120   14.0420   47.4580 C.2   279  LEU279      0.2260
    124  O         -8.4630   14.4790   47.4830 O.2   279  LEU279     -0.2867
    125  CB        -7.1670   11.7570   48.4640 C.3   279  LEU279      0.0270
    126  CG        -6.4840   10.7410   49.3750 C.3   279  LEU279      0.0019
    127  CD1       -7.1260    9.3700   49.1950 C.3   279  LEU279      0.0001
    128  CD2       -4.9800   10.6900   49.0780 C.3   279  LEU279      0.0001
    129  N         -9.7240    7.4770   44.4220 N.3   283  SER283     -0.1202
    130  CA        -8.6110    6.6120   44.0680 C.3   283  SER283      0.2020
    131  C         -8.5030    5.3780   44.9220 C.2   283  SER283      0.2619
    132  O         -9.0730    5.2970   45.9990 O.2   283  SER283     -0.2717
    133  CB        -7.2980    7.3920   44.1530 C.3   283  SER283      0.2103
    134  OG        -7.1870    8.0560   45.4000 O.3   283  SER283     -0.2182
    135  N         -7.7580    4.4010   44.4320 N.am  284  ILE284     -0.1965
    136  CA        -7.3380    3.3230   45.3020 C.3   284  ILE284      0.1727
    137  C         -5.8180    3.2270   45.3020 C.2   284  ILE284      0.2616
    138  O         -5.1480    3.6320   44.3350 O.2   284  ILE284     -0.2715
    139  CB        -7.9620    1.9880   44.9120 C.3   284  ILE284      0.0290
    140  CG1       -7.6470    1.6410   43.4600 C.3   284  ILE284      0.0022
    141  CG2       -9.4780    2.0280   45.1600 C.3   284  ILE284      0.0023
    142  CD1       -7.9140    0.1840   43.1360 C.3   284  ILE284      0.0001
    143  N         -5.2830    2.7180   46.4060 N.am  285  PHE285     -0.1960
    144  CA        -3.8360    2.6560   46.6120 C.3   285  PHE285      0.1771
    145  C         -3.2390    4.0590   46.6180 C.2   285  PHE285      0.2619
    146  O         -2.1620    4.2950   46.0590 O.2   285  PHE285     -0.2715
    147  CB        -3.1580    1.7960   45.5370 C.3   285  PHE285      0.0574
    148  CG        -2.0820    0.9050   46.0810 C.ar  285  PHE285     -0.0200
    149  CD1       -1.1820    1.3940   47.0270 C.ar  285  PHE285     -0.0042
    150  CD2       -1.9880   -0.4210   45.6900 C.ar  285  PHE285     -0.0042
    151  CE1       -0.1890    0.5920   47.5420 C.ar  285  PHE285     -0.0003
    152  CE2       -1.0030   -1.2350   46.2100 C.ar  285  PHE285     -0.0003
    153  CZ        -0.1010   -0.7250   47.1460 C.ar  285  PHE285     -0.0000
    154  N         -3.9730    4.9910   47.2180 N.am  286  ARG286     -0.1963
    155  CA        -3.4760    6.3340   47.4750 C.3   286  ARG286      0.1729
    156  C         -3.7390    6.6890   48.9380 C.2   286  ARG286      0.2616
    157  O         -4.8130    6.4120   49.4530 O.2   286  ARG286     -0.2715
    158  CB        -4.1340    7.3520   46.5470 C.3   286  ARG286      0.0348
    159  CG        -3.7490    7.2040   45.0790 C.3   286  ARG286      0.0492
    160  CD        -2.2540    7.4080   44.8750 C.3   286  ARG286      0.2205
    161  NE        -1.9100    7.5020   43.4560 N.pl3 286  ARG286     -0.0865
    162  CZ        -1.5590    6.4630   42.7020 C.cat 286  ARG286      0.5346
    163  NH1       -1.5050    5.2440   43.2320 N.pl3 286  ARG286      0.1354
    164  NH2       -1.2640    6.6420   41.4180 N.pl3 286  ARG286      0.1354
    165  N         -2.7570    7.3110   49.5890 N.am  287  PHE287     -0.1974
    166  CA        -2.8310    7.6010   51.0230 C.3   287  PHE287      0.1639
    167  C         -2.4920    9.0710   51.2960 C.2   287  PHE287      0.2290
    168  O         -1.6720    9.6720   50.6050 O.2   287  PHE287     -0.2864
    169  CB        -1.9110    6.6580   51.7850 C.3   287  PHE287      0.0560
    170  CG        -1.9980    5.2340   51.3150 C.ar  287  PHE287     -0.0200
    171  CD1       -3.1730    4.5110   51.4540 C.ar  287  PHE287     -0.0042
    172  CD2       -0.9110    4.6160   50.7160 C.ar  287  PHE287     -0.0042
    173  CE1       -3.2640    3.1990   51.0140 C.ar  287  PHE287     -0.0003
    174  CE2       -1.0010    3.2970   50.2680 C.ar  287  PHE287     -0.0003
    175  CZ        -2.1850    2.5890   50.4250 C.ar  287  PHE287     -0.0000
    176  N         -6.2850   -6.8420   47.1620 N.3   327  PHE327     -0.1227
    177  CA        -6.7190   -6.2430   48.4170 C.3   327  PHE327      0.1736
    178  C         -7.3610   -4.8750   48.2110 C.2   327  PHE327      0.2595
    179  O         -8.3930   -4.5670   48.8120 O.2   327  PHE327     -0.2718
    180  CB        -5.5240   -6.1210   49.3710 C.3   327  PHE327      0.0547
    181  CG        -5.8460   -6.4240   50.8070 C.ar  327  PHE327     -0.0202
    182  CD1       -7.0010   -5.9410   51.3960 C.ar  327  PHE327     -0.0042
    183  CD2       -4.9700   -7.1860   51.5760 C.ar  327  PHE327     -0.0042
    184  CE1       -7.2910   -6.2150   52.7170 C.ar  327  PHE327     -0.0003
    185  CE2       -5.2440   -7.4660   52.9030 C.ar  327  PHE327     -0.0003
    186  CZ        -6.4150   -6.9800   53.4740 C.ar  327  PHE327     -0.0000
    187  N         -6.7590   -4.0640   47.3500 N.am  328  PHE328     -0.1976
    188  CA        -7.1990   -2.6870   47.1730 C.3   328  PHE328      0.1639
    189  C         -8.4270   -2.5580   46.2670 C.2   328  PHE328      0.2290
    190  O         -9.1950   -1.6070   46.4010 O.2   328  PHE328     -0.2864
    191  CB        -6.0420   -1.8360   46.6400 C.3   328  PHE328      0.0560
    192  CG        -4.8300   -1.8580   47.5400 C.ar  328  PHE328     -0.0200
    193  CD1       -3.8910   -2.8760   47.4400 C.ar  328  PHE328     -0.0042
    194  CD2       -4.6560   -0.8810   48.5180 C.ar  328  PHE328     -0.0042
    195  CE1       -2.7850   -2.9080   48.3030 C.ar  328  PHE328     -0.0003
    196  CE2       -3.5600   -0.9040   49.3690 C.ar  328  PHE328     -0.0003
    197  CZ        -2.6230   -1.9160   49.2630 C.ar  328  PHE328     -0.0000
    198  N        -11.5120   -3.1000   48.4080 N.3   331  TYR331     -0.1227
    199  CA       -11.9080   -2.0000   49.2860 C.3   331  TYR331      0.1736
    200  C        -12.4260   -0.7630   48.5670 C.2   331  TYR331      0.2596
    201  O        -13.1900    0.0120   49.1390 O.2   331  TYR331     -0.2718
    202  CB       -10.7350   -1.5980   50.1890 C.3   331  TYR331      0.0548
    203  CG       -10.6540   -2.4360   51.4340 C.ar  331  TYR331     -0.0200
    204  CD1      -10.3620   -3.7900   51.3570 C.ar  331  TYR331     -0.0009
    205  CD2      -10.8880   -1.8820   52.6860 C.ar  331  TYR331     -0.0009
    206  CE1      -10.2930   -4.5700   52.4880 C.ar  331  TYR331      0.0417
    207  CE2      -10.8270   -2.6610   53.8280 C.ar  331  TYR331      0.0417
    208  CZ       -10.5280   -4.0020   53.7190 C.ar  331  TYR331      0.1957
    209  OH       -10.4590   -4.7980   54.8320 O.3   331  TYR331     -0.2866
    210  N        -12.0240   -0.5560   47.3280 N.am  332  GLY332     -0.1957
    211  CA       -12.4200    0.6670   46.6670 C.3   332  GLY332      0.1869
    212  C        -12.9920    0.5980   45.2610 C.2   332  GLY332      0.2309
    213  O        -13.3660    1.6340   44.7420 O.2   332  GLY332     -0.2863
    214  N         -1.3420   -9.1310   48.7860 N.3   437  HIS437     -0.1226
    215  CA        -0.4550   -8.1440   49.3820 C.3   437  HIS437      0.1752
    216  C         -0.3440   -8.3800   50.8980 C.2   437  HIS437      0.2596
    217  O         -1.3430   -8.2710   51.6250 O.2   437  HIS437     -0.2718
    218  CB        -0.9990   -6.7480   49.0880 C.3   437  HIS437      0.0759
    219  CG        -0.0910   -5.6250   49.4870 C.ar  437  HIS437      0.0818
    220  ND1        1.1190   -5.3870   48.8710 N.ar  437  HIS437     -0.2268
    221  CD2       -0.2420   -4.6450   50.4100 C.ar  437  HIS437      0.1154
    222  CE1        1.6840   -4.3200   49.4080 C.ar  437  HIS437      0.1986
    223  NE2        0.8770   -3.8500   50.3430 N.ar  437  HIS437     -0.2212
    224  N          0.8590   -8.7370   51.3540 N.am  438  GLY438     -0.1957
    225  CA         1.1400   -8.8790   52.7750 C.3   438  GLY438      0.1869
    226  C          1.2690  -10.3130   53.2560 C.2   438  GLY438      0.2309
    227  O          1.6750  -10.5740   54.3930 O.2   438  GLY438     -0.2863
@<TRIPOS>BOND
     1   164   162    1
     2   162   163    1
     3   162   161    2
     4   142   140    1
     5   161   160    1
     6   140   139    1
     7   130   133    1
     8   130   129    1
     9   130   131    1
    10   133   134    1
    11   138   137    2
    12   135   131   am
    13   135   136    1
    14   213   212    2
    15   160   159    1
    16   139   141    1
    17   139   136    1
    18   131   132    2
    19   159   158    1
    20   212   211    1
    21   137   136    1
    22   137   143   am
    23   147   148    1
    24   147   144    1
    25   150   148   ar
    26   150   152   ar
    27   146   145    2
    28   148   149   ar
    29   152   153   ar
    30   189   190    2
    31   189   188    1
    32   143   144    1
    33   158   155    1
    34   144   145    1
    35   145   154   am
    36   191   188    1
    37   191   192    1
    38   211   210    1
    39   149   151   ar
    40   153   151   ar
    41   176   177    1
    42   188   187    1
    43   154   155    1
    44   210   200   am
    45   187   178   am
    46   193   192   ar
    47   193   195   ar
    48   123   124    2
    49   123   122    1
    50   155   156    1
    51   192   194   ar
    52   178   177    1
    53   178   179    2
    54   195   197   ar
    55   198   199    1
    56   177   180    1
    57   125   122    1
    58   125   126    1
    59   194   196   ar
    60   200   201    2
    61   200   199    1
    62   122   121    1
    63   214   215    1
    64   220   222   ar
    65   220   219   ar
    66   156   157    2
    67   156   165   am
    68   128   126    1
    69   218   215    1
    70   218   219    1
    71   127   126    1
    72   197   196   ar
    73   199   202    1
    74   180   181    1
    75   215   216    1
    76   222   223   ar
    77   219   221   ar
    78   165   166    1
    79   202   203    1
    80   174   175   ar
    81   174   172   ar
    82   223   221   ar
    83   175   173   ar
    84   168   167    2
    85   172   170   ar
    86   181   182   ar
    87   181   183   ar
    88   216   224   am
    89   216   217    2
    90   173   171   ar
    91   166   167    1
    92   166   169    1
    93   170   171   ar
    94   170   169    1
    95   224   225    1
    96   204   203   ar
    97   204   206   ar
    98   106   105    1
    99   182   184   ar
   100   203   205   ar
   101   110   109    2
   102   183   185   ar
   103   102   103    1
   104   102   101    1
   105   102   105    1
   106   104   103    2
   107   101    94   am
   108   100    98   ar
   109   206   208   ar
   110   119   117   ar
   111   119   120   ar
   112   117   114   ar
   113   205   207   ar
   114   184   186   ar
   115   109   108    1
   116   225   226    1
   117   185   186   ar
   118    98    97    1
   119    98    99   ar
   120    97    96    1
   121   226   227    2
   122    94    93    1
   123    94    95    2
   124   111   108    1
   125   111   112    1
   126   120   118   ar
   127   108   107    1
   128    29    27   am
   129    93    96    1
   130    93    92    1
   131   208   207   ar
   132   208   209    1
   133   114   112   ar
   134   114   116   ar
   135    28    27    2
   136    27    26    1
   137   112   113   ar
   138    26    25    1
   139    67    65   ar
   140    67    68   ar
   141   118   116   ar
   142   116   115   ar
   143    65    63   ar
   144    69    68    1
   145    68    66   ar
   146    56    57    2
   147    56    55    1
   148   113   115   ar
   149    25    22    1
   150    54    55    1
   151    54    52   am
   152    63    62    1
   153    63    64   ar
   154    47    49   ar
   155    47    45   ar
   156    51    52    1
   157    51    50    1
   158    62    59    1
   159    44    45   ar
   160    44    42   ar
   161    66    64   ar
   162    49    48   ar
   163    58    59    1
   164    24    23    2
   165    52    53    2
   166    45    43   ar
   167    22    23    1
   168    22    21    1
   169    12    11    1
   170    20    18   ar
   171    19    18   ar
   172    42    41   ar
   173    59    60    1
   174    34    31    1
   175    34    35    1
   176    18    17    1
   177    11    10   ar
   178    11     9   ar
   179    48    46   ar
   180    10     8   ar
   181    43    41   ar
   182    43    46   ar
   183    30    31    1
   184    31    32    1
   185    41    40    1
   186     9     7   ar
   187    75    74    1
   188     8     6   ar
   189    17    14    1
   190    60    70   am
   191    60    61    2
   192     7     6   ar
   193    70    71    1
   194     6     5    1
   195    40    37    1
   196    91    90    1
   197    73    72    2
   198    32    33    2
   199    74    71    1
   200    14    15    1
   201    14    13    1
   202     5     2    1
   203    71    72    1
   204    88    90   ar
   205    88    86   ar
   206    72    76   am
   207    15    16    2
   208    90    89   ar
   209    37    36    1
   210    37    38    1
   211    76    77    1
   212    86    85   ar
   213     2     3    1
   214     2     1    1
   215    77    78    1
   216     4     3    2
   217    89    87   ar
   218    39    38    2
   219    85    87   ar
   220    85    84    1
   221    78    79    2
   222    80    81    1
   223    81    84    1
   224    81    82    1
   225    82    83    2
