@<TRIPOS>MOLECULE
tmp/6ezlB00.pdb
 139 132 0 0 0
SMALL
GASTEIGER

@<TRIPOS>ATOM
      1  N        -17.7690   35.9860   14.0600 N.3    40  GLU40      -0.1245
      2  CA       -18.7880   35.4640   14.9380 C.3    40  GLU40       0.1567
      3  C        -20.1970   35.8250   14.4720 C.2    40  GLU40       0.2260
      4  O        -21.1600   35.2900   15.0100 O.2    40  GLU40      -0.2867
      5  CB       -18.5090   36.0010   16.3300 C.3    40  GLU40       0.0388
      6  CG       -17.2890   35.3830   16.9970 C.3    40  GLU40       0.1160
      7  CD       -17.5780   33.9610   17.4800 C.2    40  GLU40       0.3649
      8  OE1      -18.7730   33.6580   17.6780 O.co2  40  GLU40      -0.2457
      9  OE2      -16.6340   33.1690   17.6480 O.co2  40  GLU40      -0.2457
     10  N        -21.5230   39.0280   14.6350 N.3    42  HIS42      -0.1241
     11  CA       -22.0690   40.1470   15.4210 C.3    42  HIS42       0.1621
     12  C        -22.6050   41.2250   14.4990 C.2    42  HIS42       0.2264
     13  O        -21.8270   41.8020   13.7210 O.2    42  HIS42      -0.2867
     14  CB       -21.0170   40.7790   16.3290 C.3    42  HIS42       0.0745
     15  CG       -20.5230   39.8750   17.4020 C.ar   42  HIS42       0.0817
     16  ND1      -19.1840   39.5950   17.5790 N.ar   42  HIS42      -0.2268
     17  CD2      -21.1770   39.2060   18.3760 C.ar   42  HIS42       0.1154
     18  CE1      -19.0330   38.7450   18.5760 C.ar   42  HIS42       0.1986
     19  NE2      -20.2260   38.5030   19.0910 N.ar   42  HIS42      -0.2212
     20  N        -20.6820   39.9840   27.8560 N.3    92  SER92      -0.1202
     21  CA       -21.2220   39.4010   26.6430 C.3    92  SER92       0.2020
     22  C        -21.5050   37.9270   26.8840 C.2    92  SER92       0.2619
     23  O        -21.4880   37.4570   28.0280 O.2    92  SER92      -0.2717
     24  CB       -20.2530   39.5950   25.4590 C.3    92  SER92       0.2103
     25  OG       -20.9460   39.9670   24.2840 O.3    92  SER92      -0.2182
     26  N        -21.8060   37.2010   25.8090 N.am   93  GLY93      -0.1942
     27  CA       -22.0530   35.7670   25.9280 C.3    93  GLY93       0.2014
     28  C        -20.8700   35.0210   26.5020 C.2    93  GLY93       0.2639
     29  O        -20.9970   34.2420   27.4580 O.2    93  GLY93      -0.2714
     30  N        -19.6900   35.2670   25.9410 N.am   94  THR94      -0.1950
     31  CA       -18.5000   34.5290   26.3720 C.3    94  THR94       0.1897
     32  C        -18.2460   34.7140   27.8700 C.2    94  THR94       0.2313
     33  O        -17.9930   33.7510   28.6160 O.2    94  THR94      -0.2863
     34  CB       -17.3040   35.0150   25.5410 C.3    94  THR94       0.1794
     35  OG1      -17.5740   34.7880   24.1330 O.3    94  THR94      -0.2208
     36  CG2      -16.0500   34.3060   25.9280 C.3    94  THR94       0.0378
     37  N        -20.7600   32.8900   29.9850 N.3    97  LEU97      -0.1245
     38  CA       -20.4630   31.4560   29.9490 C.3    97  LEU97       0.1561
     39  C        -19.2990   31.1160   30.8740 C.2    97  LEU97       0.2260
     40  O        -19.3270   30.1110   31.5900 O.2    97  LEU97      -0.2867
     41  CB       -20.1210   31.0650   28.4920 C.3    97  LEU97       0.0270
     42  CG       -20.8100   30.0880   27.5560 C.3    97  LEU97       0.0019
     43  CD1      -22.1770   29.7150   27.9720 C.3    97  LEU97       0.0001
     44  CD2      -20.8360   30.7270   26.1610 C.3    97  LEU97       0.0001
     45  N        -20.5140   25.7250   18.8630 N.3   121  TRP121     -0.1241
     46  CA       -19.7920   26.9540   18.8360 C.3   121  TRP121      0.1605
     47  C        -18.3880   26.6630   19.3680 C.2   121  TRP121      0.2264
     48  O        -18.2410   26.2490   20.5300 O.2   121  TRP121     -0.2867
     49  CB       -20.5490   27.9650   19.6910 C.3   121  TRP121      0.0550
     50  CG       -19.9570   29.3280   19.7660 C.ar  121  TRP121      0.0003
     51  CD1      -19.8730   30.2350   18.7850 C.ar  121  TRP121      0.0946
     52  CD2      -19.4200   29.9340   20.9430 C.ar  121  TRP121      0.0152
     53  NE1      -19.3040   31.3860   19.2630 N.ar  121  TRP121     -0.2442
     54  CE2      -18.9900   31.2110   20.5880 C.ar  121  TRP121      0.0810
     55  CE3      -19.2240   29.4850   22.2630 C.ar  121  TRP121      0.0012
     56  CZ2      -18.4130   32.0840   21.5080 C.ar  121  TRP121      0.0191
     57  CZ3      -18.6320   30.3320   23.1660 C.ar  121  TRP121      0.0001
     58  CH2      -18.2490   31.6230   22.7920 C.ar  121  TRP121      0.0015
     59  N        -27.4370   24.5620   23.5090 N.3   170  HIS170     -0.1241
     60  CA       -27.8060   25.7640   22.7570 C.3   170  HIS170      0.1621
     61  C        -29.3090   25.9930   22.8940 C.2   170  HIS170      0.2264
     62  O        -30.1050   25.1340   22.5030 O.2   170  HIS170     -0.2867
     63  CB       -27.4630   25.6210   21.2770 C.3   170  HIS170      0.0745
     64  CG       -26.0170   25.3890   20.9690 C.ar  170  HIS170      0.0817
     65  ND1      -25.3090   26.1980   20.1020 N.ar  170  HIS170     -0.2268
     66  CD2      -25.1980   24.3600   21.2750 C.ar  170  HIS170      0.1154
     67  CE1      -24.0910   25.7120   19.9500 C.ar  170  HIS170      0.1986
     68  NE2      -23.9930   24.6090   20.6720 N.ar  170  HIS170     -0.2212
     69  N        -31.3340   28.3500   17.8980 N.3   173  ALA173     -0.1245
     70  CA       -30.4350   28.6650   16.7690 C.3   173  ALA173      0.1562
     71  C        -29.0440   28.0840   16.9950 C.2   173  ALA173      0.2260
     72  O        -28.0300   28.7830   17.0650 O.2   173  ALA173     -0.2867
     73  CB       -30.3430   30.1580   16.5200 C.3   173  ALA173      0.0290
     74  N        -25.5920   26.8050   16.8610 N.3   175  ASN175     -0.1240
     75  CA       -24.4780   27.3350   16.1110 C.3   175  ASN175      0.1653
     76  C        -23.4310   26.2400   16.0470 C.2   175  ASN175      0.2266
     77  O        -23.0440   25.7020   17.1040 O.2   175  ASN175     -0.2867
     78  CB       -23.9550   28.6000   16.8130 C.3   175  ASN175      0.1155
     79  CG       -22.7640   29.2460   16.1100 C.2   175  ASN175      0.2627
     80  OD1      -22.0180   28.6030   15.3970 O.2   175  ASN175     -0.2716
     81  ND2      -22.5420   30.5220   16.3920 N.am  175  ASN175     -0.0877
     82  N        -26.9060   27.9070   26.7870 N.3   203  ASP203     -0.1239
     83  CA       -26.2270   29.0040   26.1250 C.3   203  ASP203      0.1674
     84  C        -27.2470   29.6480   25.2150 C.2   203  ASP203      0.2266
     85  O        -27.6150   29.0650   24.1970 O.2   203  ASP203     -0.2867
     86  CB       -25.0420   28.4880   25.3240 C.3   203  ASP203      0.1410
     87  CG       -24.2140   29.5960   24.6880 C.2   203  ASP203      0.3668
     88  OD1      -24.6160   30.7860   24.7300 O.co2 203  ASP203     -0.2456
     89  OD2      -23.1710   29.2510   24.0700 O.co2 203  ASP203     -0.2456
     90  N        -27.6580   32.7840   22.9680 N.3   205  ALA205     -0.1231
     91  CA       -27.0360   33.8910   22.2530 C.3   205  ALA205      0.1694
     92  C        -27.9390   34.4340   21.1450 C.2   205  ALA205      0.2592
     93  O        -27.6280   35.4660   20.5400 O.2   205  ALA205     -0.2718
     94  CB       -25.6950   33.4130   21.6680 C.3   205  ALA205      0.0304
     95  N        -29.0770   33.7980   20.9030 N.am  206  TYR206     -0.1976
     96  CA       -29.9070   34.1270   19.7520 C.3   206  TYR206      0.1639
     97  C        -31.3710   34.2130   20.1170 C.2   206  TYR206      0.2290
     98  O        -32.2390   33.9860   19.2580 O.2   206  TYR206     -0.2864
     99  CB       -29.7470   33.0970   18.6330 C.3   206  TYR206      0.0560
    100  CG       -28.3780   33.0760   18.0750 C.ar  206  TYR206     -0.0198
    101  CD1      -27.9240   34.1390   17.3120 C.ar  206  TYR206     -0.0009
    102  CD2      -27.5360   32.0030   18.3190 C.ar  206  TYR206     -0.0009
    103  CE1      -26.6690   34.1640   16.7910 C.ar  206  TYR206      0.0417
    104  CE2      -26.2640   31.9770   17.8040 C.ar  206  TYR206      0.0417
    105  CZ       -25.8150   33.0880   17.0360 C.ar  206  TYR206      0.1957
    106  OH       -24.5580   33.1160   16.4970 O.3   206  TYR206     -0.2866
    107  N        -26.4520   36.1970   25.9890 N.3   236  SER236     -0.1217
    108  CA       -25.7810   37.2730   25.2790 C.3   236  SER236      0.1889
    109  C        -26.8100   38.2060   24.6590 C.2   236  SER236      0.2288
    110  O        -27.8760   37.7750   24.2150 O.2   236  SER236     -0.2866
    111  CB       -24.8770   36.7570   24.1700 C.3   236  SER236      0.2089
    112  OG       -24.1930   37.8570   23.5660 O.3   236  SER236     -0.2183
    113  N        -25.3250   40.2510   22.2750 N.3   238  SER238     -0.1202
    114  CA       -24.3830   40.7910   21.2950 C.3   238  SER238      0.2020
    115  C        -24.9900   40.5660   19.9370 C.2   238  SER238      0.2618
    116  O        -24.8340   41.3800   19.0390 O.2   238  SER238     -0.2717
    117  CB       -22.9990   40.1280   21.4090 C.3   238  SER238      0.2103
    118  OG       -23.0660   38.7910   20.9940 O.3   238  SER238     -0.2182
    119  N        -25.7540   39.4910   19.8270 N.am  239  LYS239     -0.1979
    120  CA       -26.3290   39.1120   18.5280 C.3   239  LYS239      0.1596
    121  C        -27.7330   39.5950   18.3950 C.2   239  LYS239      0.2287
    122  O        -28.0560   40.0880   17.3450 O.2   239  LYS239     -0.2864
    123  CB       -26.2270   37.6040   18.3540 C.3   239  LYS239      0.0298
    124  CG       -24.7680   37.2780   18.0430 C.3   239  LYS239      0.0038
    125  CD       -24.2110   36.0890   18.7690 C.3   239  LYS239      0.0206
    126  CE       -22.7510   35.8620   18.3740 C.3   239  LYS239      0.1093
    127  NZ       -22.3160   35.1360   19.5590 N.3   239  LYS239     -0.1314
    128  N        -22.3760   44.0250   20.8410 N.3   244  TYR244     -0.1241
    129  CA       -21.1210   43.3750   21.1950 C.3   244  TYR244      0.1605
    130  C        -20.1150   44.3480   21.7910 C.2   244  TYR244      0.2264
    131  O        -19.3960   43.9900   22.7290 O.2   244  TYR244     -0.2867
    132  CB       -20.4830   42.7030   19.9890 C.3   244  TYR244      0.0534
    133  CG       -19.2450   41.9610   20.4150 C.ar  244  TYR244     -0.0201
    134  CD1      -19.3490   40.8190   21.2010 C.ar  244  TYR244     -0.0009
    135  CD2      -17.9760   42.4140   20.0910 C.ar  244  TYR244     -0.0009
    136  CE1      -18.2480   40.1360   21.6220 C.ar  244  TYR244      0.0417
    137  CE2      -16.8470   41.7210   20.5190 C.ar  244  TYR244      0.0417
    138  CZ       -17.0020   40.5800   21.2870 C.ar  244  TYR244      0.1957
    139  OH       -15.9370   39.8320   21.7430 O.3   244  TYR244     -0.2866
@<TRIPOS>BOND
     1    13    12    2
     2     1     2    1
     3     3     2    1
     4     3     4    2
     5    12    11    1
     6    10    11    1
     7     2     5    1
     8    80    79    2
     9    11    14    1
    10    76    75    1
    11    76    77    2
    12    79    81   am
    13    79    78    1
    14    75    78    1
    15    75    74    1
    16    14    15    1
    17     5     6    1
    18   106   105    1
    19    73    70    1
    20    70    71    1
    21    70    69    1
    22   103   105   ar
    23   103   101   ar
    24    71    72    2
    25     6     7    1
    26   105   104   ar
    27   101   100   ar
    28   122   121    2
    29    15    16   ar
    30    15    17   ar
    31     7     9   ar
    32     7     8   ar
    33    16    18   ar
    34   104   102   ar
    35   124   123    1
    36   124   125    1
    37   100   102   ar
    38   100    99    1
    39   123   120    1
    40   126   125    1
    41   126   127    1
    42    17    19   ar
    43   121   120    1
    44   120   119    1
    45    18    19   ar
    46    99    96    1
    47    51    53   ar
    48    51    50   ar
    49    46    45    1
    50    46    47    1
    51    46    49    1
    52   116   115    2
    53    98    97    2
    54    53    54   ar
    55    47    48    2
    56    49    50    1
    57    96    97    1
    58    96    95    1
    59    50    52   ar
    60   119   115   am
    61   115   114    1
    62    67    65   ar
    63    67    68   ar
    64   132   133    1
    65   132   129    1
    66   135   133   ar
    67   135   137   ar
    68    65    64   ar
    69   133   134   ar
    70   137   138   ar
    71    93    92    2
    72    54    52   ar
    73    54    56   ar
    74    68    66   ar
    75   128   129    1
    76    95    92   am
    77    52    55   ar
    78    64    66   ar
    79    64    63    1
    80   118   117    1
    81    92    91    1
    82   129   130    1
    83   134   136   ar
    84    63    60    1
    85   138   136   ar
    86   138   139    1
    87   114   117    1
    88   114   113    1
    89    56    58   ar
    90    94    91    1
    91   130   131    2
    92    91    90    1
    93    55    57   ar
    94    62    61    2
    95    60    61    1
    96    60    59    1
    97    58    57   ar
    98   112   111    1
    99    89    87   ar
   100    35    34    1
   101   111   108    1
   102    85    84    2
   103   110   109    2
   104    25    24    1
   105   109   108    1
   106    87    88   ar
   107    87    86    1
   108    84    83    1
   109   108   107    1
   110    86    83    1
   111    24    21    1
   112    34    36    1
   113    34    31    1
   114    26    27    1
   115    26    22   am
   116    27    28    1
   117    30    31    1
   118    30    28   am
   119    83    82    1
   120    44    42    1
   121    31    32    1
   122    28    29    2
   123    21    22    1
   124    21    20    1
   125    22    23    2
   126    42    43    1
   127    42    41    1
   128    32    33    2
   129    41    38    1
   130    38    37    1
   131    38    39    1
   132    39    40    2
