@<TRIPOS>MOLECULE
tmp/6eznF04.pdb
 129 129 0 0 0
SMALL
GASTEIGER

@<TRIPOS>ATOM
      1  N        156.7480  168.4780  142.1030 N.3    53  LEU53      -0.1231
      2  CA       156.6710  169.3940  143.2370 C.3    53  LEU53       0.1693
      3  C        157.5530  170.6120  143.0120 C.2    53  LEU53       0.2591
      4  O        157.1720  171.7290  143.3690 O.2    53  LEU53      -0.2718
      5  CB       157.0900  168.6920  144.5270 C.3    53  LEU53       0.0284
      6  CG       156.6130  169.1720  145.9080 C.3    53  LEU53       0.0019
      7  CD1      156.9120  168.0830  146.9010 C.3    53  LEU53       0.0001
      8  CD2      157.1540  170.4900  146.4290 C.3    53  LEU53       0.0001
      9  N        158.7460  170.4200  142.4530 N.am   54  VAL54      -0.1980
     10  CA       159.6820  171.5320  142.3600 C.3    54  VAL54       0.1595
     11  C        159.4450  172.4120  141.1400 C.2    54  VAL54       0.2287
     12  O        159.8470  173.5830  141.1540 O.2    54  VAL54      -0.2864
     13  CB       161.1390  171.0400  142.3840 C.3    54  VAL54       0.0276
     14  CG1      161.4020  170.2880  143.6620 C.3    54  VAL54       0.0022
     15  CG2      161.4490  170.1850  141.1860 C.3    54  VAL54       0.0022
     16  N        156.1900  172.8930  139.8180 N.3    56  ASN56      -0.1225
     17  CA       154.8770  173.4430  140.0970 C.3    56  ASN56       0.1785
     18  C        154.7690  173.8310  141.5680 C.2    56  ASN56       0.2598
     19  O        155.7670  173.9420  142.2780 O.2    56  ASN56      -0.2718
     20  CB       153.8240  172.4380  139.6610 C.3    56  ASN56       0.1169
     21  CG       153.7000  172.3770  138.1660 C.2    56  ASN56       0.2627
     22  OD1      153.5960  173.4040  137.5030 O.2    56  ASN56      -0.2716
     23  ND2      153.7750  171.1840  137.6160 N.am   56  ASN56      -0.0877
     24  N        153.5570  174.1150  142.0220 N.am   57  SER57      -0.1938
     25  CA       153.3850  174.5040  143.4100 C.3    57  SER57       0.2055
     26  C        153.2230  173.2800  144.3080 C.2    57  SER57       0.2643
     27  O        153.0330  172.1520  143.8520 O.2    57  SER57      -0.2714
     28  CB       152.1810  175.4280  143.5590 C.3    57  SER57       0.2130
     29  OG       151.9810  175.7780  144.9160 O.3    57  SER57      -0.2179
     30  N        153.3120  173.5270  145.6160 N.am   58  PHE58      -0.1973
     31  CA       153.0420  172.4940  146.6100 C.3    58  PHE58       0.1639
     32  C        151.5540  172.2000  146.7090 C.2    58  PHE58       0.2290
     33  O        151.1610  171.0500  146.9470 O.2    58  PHE58      -0.2864
     34  CB       153.6090  172.9430  147.9530 C.3    58  PHE58       0.0560
     35  CG       153.3630  171.9910  149.0820 C.ar   58  PHE58      -0.0200
     36  CD1      153.9790  170.7550  149.1110 C.ar   58  PHE58      -0.0042
     37  CD2      152.5780  172.3700  150.1570 C.ar   58  PHE58      -0.0042
     38  CE1      153.7730  169.8910  150.1630 C.ar   58  PHE58      -0.0003
     39  CE2      152.3740  171.5160  151.2150 C.ar   58  PHE58      -0.0003
     40  CZ       152.9700  170.2720  151.2170 C.ar   58  PHE58      -0.0000
     41  N        158.3640  166.1100  149.7170 N.3    87  THR87      -0.1218
     42  CA       158.4500  167.4210  150.3420 C.3    87  THR87       0.1862
     43  C        159.7270  167.5910  151.1570 C.2    87  THR87       0.2287
     44  O        160.1480  168.7300  151.3900 O.2    87  THR87      -0.2866
     45  CB       157.2150  167.6910  151.2090 C.3    87  THR87       0.1770
     46  OG1      157.2040  169.0650  151.6010 O.3    87  THR87      -0.2211
     47  CG2      157.2160  166.8570  152.4570 C.3    87  THR87       0.0375
     48  N        162.3540  168.1810  148.3070 N.3    90  ALA90      -0.1231
     49  CA       162.0630  169.4970  147.7570 C.3    90  ALA90       0.1694
     50  C        162.3670  170.5990  148.7600 C.2    90  ALA90       0.2592
     51  O        162.6930  171.7210  148.3620 O.2    90  ALA90      -0.2718
     52  CB       160.6120  169.5660  147.3050 C.3    90  ALA90       0.0304
     53  N        162.2660  170.3080  150.0590 N.am   91  PHE91      -0.1976
     54  CA       162.7020  171.2840  151.0490 C.3    91  PHE91       0.1639
     55  C        164.2170  171.4300  151.0670 C.2    91  PHE91       0.2290
     56  O        164.7240  172.5290  151.3090 O.2    91  PHE91      -0.2864
     57  CB       162.1940  170.9050  152.4360 C.3    91  PHE91       0.0560
     58  CG       162.6590  171.8310  153.5160 C.ar   91  PHE91      -0.0200
     59  CD1      162.1420  173.1090  153.6160 C.ar   91  PHE91      -0.0042
     60  CD2      163.6200  171.4270  154.4260 C.ar   91  PHE91      -0.0042
     61  CE1      162.5760  173.9660  154.6000 C.ar   91  PHE91      -0.0003
     62  CE2      164.0550  172.2800  155.4100 C.ar   91  PHE91      -0.0003
     63  CZ       163.5310  173.5510  155.4960 C.ar   91  PHE91      -0.0000
     64  N        164.9700  173.4360  147.7040 N.3    94  HIS94      -0.1241
     65  CA       164.6640  174.8490  147.8790 C.3    94  HIS94       0.1621
     66  C        165.5710  175.4940  148.9160 C.2    94  HIS94       0.2264
     67  O        165.9110  176.6770  148.7920 O.2    94  HIS94      -0.2867
     68  CB       163.2020  175.0030  148.2810 C.3    94  HIS94       0.0745
     69  CG       162.7410  176.4210  148.3750 C.ar   94  HIS94       0.0817
     70  ND1      162.8790  177.1720  149.5200 N.ar   94  HIS94      -0.2268
     71  CD2      162.1250  177.2190  147.4720 C.ar   94  HIS94       0.1154
     72  CE1      162.3740  178.3760  149.3180 C.ar   94  HIS94       0.1986
     73  NE2      161.9070  178.4290  148.0840 N.ar   94  HIS94      -0.2212
     74  N        168.5760  179.6680  150.1550 N.3    99  TRP99      -0.1241
     75  CA       169.1160  180.1530  151.4170 C.3    99  TRP99       0.1605
     76  C        170.6150  179.9630  151.5490 C.2    99  TRP99       0.2264
     77  O        171.2350  180.6170  152.3900 O.2    99  TRP99      -0.2867
     78  CB       168.4340  179.4430  152.5880 C.3    99  TRP99       0.0550
     79  CG       166.9860  179.7290  152.7000 C.ar   99  TRP99       0.0003
     80  CD1      166.3090  180.7560  152.1250 C.ar   99  TRP99       0.0946
     81  CD2      166.0120  178.9320  153.3730 C.ar   99  TRP99       0.0152
     82  NE1      164.9750  180.6730  152.4290 N.ar   99  TRP99      -0.2442
     83  CE2      164.7660  179.5570  153.1930 C.ar   99  TRP99       0.0810
     84  CE3      166.0750  177.7580  154.1260 C.ar   99  TRP99       0.0012
     85  CZ2      163.5930  179.0510  153.7390 C.ar   99  TRP99       0.0191
     86  CZ3      164.9100  177.2560  154.6670 C.ar   99  TRP99       0.0001
     87  CH2      163.6850  177.9010  154.4710 C.ar   99  TRP99       0.0015
     88  N        155.4080  164.2540  166.7740 N.3   194  LEU194     -0.1231
     89  CA       155.6560  164.9970  165.5460 C.3   194  LEU194      0.1693
     90  C        156.5250  164.1980  164.5890 C.2   194  LEU194      0.2592
     91  O        156.2760  164.1900  163.3810 O.2   194  LEU194     -0.2718
     92  CB       156.3060  166.3370  165.8610 C.3   194  LEU194      0.0284
     93  CG       155.4310  167.2860  166.6680 C.3   194  LEU194      0.0019
     94  CD1      156.1790  168.5630  166.9850 C.3   194  LEU194      0.0001
     95  CD2      154.1600  167.5710  165.9190 C.3   194  LEU194      0.0001
     96  N        157.5460  163.5190  165.1030 N.am  195  PHE195     -0.1976
     97  CA       158.3120  162.6100  164.2660 C.3   195  PHE195      0.1639
     98  C        157.5960  161.2940  164.0270 C.2   195  PHE195      0.2290
     99  O        157.9560  160.5770  163.0900 O.2   195  PHE195     -0.2864
    100  CB       159.6900  162.3550  164.8660 C.3   195  PHE195      0.0560
    101  CG       160.6260  163.5070  164.7110 C.ar  195  PHE195     -0.0200
    102  CD1      161.2560  163.7320  163.5050 C.ar  195  PHE195     -0.0042
    103  CD2      160.8750  164.3680  165.7610 C.ar  195  PHE195     -0.0042
    104  CE1      162.1120  164.7940  163.3480 C.ar  195  PHE195     -0.0003
    105  CE2      161.7330  165.4330  165.6090 C.ar  195  PHE195     -0.0003
    106  CZ       162.3510  165.6430  164.4020 C.ar  195  PHE195     -0.0000
    107  N        154.2810  161.4600  163.2720 N.3   197  PHE197     -0.1227
    108  CA       153.5350  161.9700  162.1240 C.3   197  PHE197      0.1736
    109  C        154.4060  162.0840  160.8880 C.2   197  PHE197      0.2595
    110  O        154.0030  161.6680  159.7980 O.2   197  PHE197     -0.2718
    111  CB       152.9250  163.3280  162.4470 C.3   197  PHE197      0.0547
    112  CG       152.5010  164.0920  161.2350 C.ar  197  PHE197     -0.0202
    113  CD1      151.4500  163.6570  160.4490 C.ar  197  PHE197     -0.0042
    114  CD2      153.1510  165.2580  160.8890 C.ar  197  PHE197     -0.0042
    115  CE1      151.0690  164.3590  159.3360 C.ar  197  PHE197     -0.0003
    116  CE2      152.7720  165.9660  159.7770 C.ar  197  PHE197     -0.0003
    117  CZ       151.7290  165.5170  159.0010 C.ar  197  PHE197     -0.0000
    118  N        155.6020  162.6440  161.0360 N.am  198  TYR198     -0.1976
    119  CA       156.5040  162.7690  159.9040 C.3   198  TYR198      0.1639
    120  C        157.0530  161.4190  159.4710 C.2   198  TYR198      0.2290
    121  O        157.4840  161.2770  158.3260 O.2   198  TYR198     -0.2864
    122  CB       157.5900  163.7810  160.2620 C.3   198  TYR198      0.0560
    123  CG       158.6450  164.0110  159.2170 C.ar  198  TYR198     -0.0198
    124  CD1      158.3040  164.3120  157.9100 C.ar  198  TYR198     -0.0009
    125  CD2      159.9780  164.0710  159.5680 C.ar  198  TYR198     -0.0009
    126  CE1      159.2700  164.5440  156.9640 C.ar  198  TYR198      0.0417
    127  CE2      160.9490  164.3160  158.6290 C.ar  198  TYR198      0.0417
    128  CZ       160.5850  164.5580  157.3370 C.ar  198  TYR198      0.1957
    129  OH       161.5440  164.8040  156.4020 O.3   198  TYR198     -0.2866
@<TRIPOS>BOND
     1    22    21    2
     2    23    21   am
     3    21    20    1
     4    20    17    1
     5    16    17    1
     6    17    18    1
     7    11    12    2
     8    11    10    1
     9    15    13    1
    10    18    24   am
    11    18    19    2
    12    24    25    1
    13     1     2    1
    14    10    13    1
    15    10     9    1
    16    13    14    1
    17     9     3   am
    18     3     2    1
    19     3     4    2
    20     2     5    1
    21    25    28    1
    22    25    26    1
    23    28    29    1
    24    27    26    2
    25    26    30   am
    26     5     6    1
    27    30    31    1
    28     6     8    1
    29     6     7    1
    30    31    32    1
    31    31    34    1
    32    32    33    2
    33    52    49    1
    34    71    73   ar
    35    71    69   ar
    36    64    65    1
    37    49    48    1
    38    49    50    1
    39    65    68    1
    40    65    66    1
    41    34    35    1
    42    73    72   ar
    43    68    69    1
    44    51    50    2
    45    69    70   ar
    46    50    53   am
    47    67    66    2
    48    35    36   ar
    49    35    37   ar
    50    36    38   ar
    51    72    70   ar
    52    41    42    1
    53    53    54    1
    54    74    75    1
    55    37    39   ar
    56    38    40   ar
    57    42    43    1
    58    42    45    1
    59    54    55    1
    60    54    57    1
    61    55    56    2
    62    43    44    2
    63    45    46    1
    64    45    47    1
    65    39    40   ar
    66    75    76    1
    67    75    78    1
    68    76    77    2
    69    80    82   ar
    70    80    79   ar
    71    82    83   ar
    72    57    58    1
    73    78    79    1
    74    79    81   ar
    75    83    81   ar
    76    83    85   ar
    77    81    84   ar
    78    58    59   ar
    79    58    60   ar
    80    59    61   ar
    81    85    87   ar
    82    84    86   ar
    83    60    62   ar
    84    87    86   ar
    85    61    63   ar
    86    62    63   ar
    87   129   128    1
    88   126   128   ar
    89   126   124   ar
    90   128   127   ar
    91   124   123   ar
    92   121   120    2
    93   127   125   ar
    94   117   115   ar
    95   117   116   ar
    96   123   125   ar
    97   123   122    1
    98   115   113   ar
    99   120   119    1
   100   116   114   ar
   101   110   109    2
   102   119   122    1
   103   119   118    1
   104   113   112   ar
   105   109   118   am
   106   109   108    1
   107   114   112   ar
   108   112   111    1
   109   108   111    1
   110   108   107    1
   111    99    98    2
   112   104   102   ar
   113   104   106   ar
   114    91    90    2
   115   102   101   ar
   116    98    97    1
   117    97   100    1
   118    97    96    1
   119   106   105   ar
   120    90    96   am
   121    90    89    1
   122   101   100    1
   123   101   103   ar
   124    89    92    1
   125    89    88    1
   126   105   103   ar
   127    92    93    1
   128    95    93    1
   129    93    94    1
