@<TRIPOS>MOLECULE
tmp/6ezpA00.pdb
 147 141 0 0 0
SMALL
GASTEIGER

@<TRIPOS>ATOM
      1  N         -8.8320   -7.9410  -11.7720 N.3    19  GLN19      -0.1245
      2  CA        -8.8280   -6.6540  -11.1020 C.3    19  GLN19       0.1566
      3  C        -10.2350   -6.1220  -10.8070 C.2    19  GLN19       0.2260
      4  O        -10.3870   -5.2190  -10.0160 O.2    19  GLN19      -0.2867
      5  CB        -8.0360   -5.6380  -11.9410 C.3    19  GLN19       0.0367
      6  CG        -8.7300   -5.2070  -13.2160 C.3    19  GLN19       0.0905
      7  CD        -7.8380   -4.3100  -14.0530 C.2    19  GLN19       0.2608
      8  OE1       -6.8940   -4.7670  -14.6760 O.2    19  GLN19      -0.2717
      9  NE2       -8.1320   -3.0290  -14.0600 N.am   19  GLN19      -0.0878
     10  N         -9.2900    0.4400  -11.1160 N.3    23  GLY23      -0.1225
     11  CA        -8.2170    0.7730  -12.0810 C.3    23  GLY23       0.1811
     12  C         -6.8350    0.3900  -11.5540 C.2    23  GLY23       0.2280
     13  O         -5.9560    1.2570  -11.3820 O.2    23  GLY23      -0.2866
     14  N         -4.7350   -2.1320  -12.8300 N.3    25  CYS25      -0.1221
     15  CA        -3.9100   -2.8960  -13.7730 C.3    25  CYS25       0.1808
     16  C         -2.4180   -2.8340  -13.4510 C.2    25  CYS25       0.2601
     17  O         -1.7240   -3.8730  -13.4810 O.2    25  CYS25      -0.2717
     18  CB        -4.1520   -2.4440  -15.2170 C.3    25  CYS25       0.0970
     19  SG        -3.7480   -0.6800  -15.5020 S.3    25  CYS25      -0.0800
     20  N         -1.9450   -1.6340  -13.1170 N.am   26  TRP26      -0.1976
     21  CA        -0.5320   -1.3810  -12.7920 C.3    26  TRP26       0.1640
     22  C         -0.0990   -2.2210  -11.5750 C.2    26  TRP26       0.2290
     23  O          1.0420   -2.6690  -11.5110 O.2    26  TRP26      -0.2864
     24  CB        -0.3430    0.1080  -12.4910 C.3    26  TRP26       0.0576
     25  CG        -1.2830    0.5920  -11.4030 C.ar   26  TRP26       0.0006
     26  CD1       -2.6000    1.0670  -11.5510 C.ar   26  TRP26       0.0946
     27  CD2       -0.9980    0.6590   -9.9890 C.ar   26  TRP26       0.0152
     28  NE1       -3.1190    1.3830  -10.3010 N.ar   26  TRP26      -0.2442
     29  CE2       -2.1640    1.1610   -9.3370 C.ar   26  TRP26       0.0810
     30  CE3        0.1280    0.3260   -9.2050 C.ar   26  TRP26       0.0012
     31  CZ2       -2.2350    1.3530   -7.9330 C.ar   26  TRP26       0.0191
     32  CZ3        0.0560    0.5190   -7.8090 C.ar   26  TRP26       0.0001
     33  CH2       -1.1220    1.0420   -7.1990 C.ar   26  TRP26       0.0015
     34  N          3.4410    8.0950   -6.0440 N.3    61  GLY61      -0.1225
     35  CA         2.8270    8.6600   -7.2630 C.3    61  GLY61       0.1811
     36  C          1.6380    7.8650   -7.7920 C.2    61  GLY61       0.2280
     37  O          1.0180    8.2560   -8.7810 O.2    61  GLY61      -0.2866
     38  N         -2.2820    6.3460   -7.8750 N.3    63  GLU63      -0.1245
     39  CA        -3.6150    6.9470   -7.6750 C.3    63  GLU63       0.1567
     40  C         -4.6660    5.8680   -7.3570 C.2    63  GLU63       0.2260
     41  O         -5.8350    6.0100   -7.6750 O.2    63  GLU63      -0.2867
     42  CB        -4.0340    7.8080   -8.8860 C.3    63  GLU63       0.0388
     43  CG        -3.1350    9.0060   -9.1360 C.3    63  GLU63       0.1160
     44  CD        -3.1150   10.0030   -7.9900 C.2    63  GLU63       0.3649
     45  OE1       -4.1390   10.1650   -7.2930 O.co2  63  GLU63      -0.2457
     46  OE2       -2.0710   10.6500   -7.7850 O.co2  63  GLU63      -0.2457
     47  N         -7.7910    4.6960   -9.4170 N.3    66  ASN66      -0.1225
     48  CA        -7.7930    5.5540  -10.6070 C.3    66  ASN66       0.1785
     49  C         -6.6490    5.2160  -11.5630 C.2    66  ASN66       0.2598
     50  O         -6.7230    5.5100  -12.7590 O.2    66  ASN66      -0.2718
     51  CB        -7.7280    7.0360  -10.2550 C.3    66  ASN66       0.1169
     52  CG        -9.0000    7.5380   -9.6150 C.2    66  ASN66       0.2627
     53  OD1      -10.0440    6.8970   -9.7260 O.2    66  ASN66      -0.2716
     54  ND2       -8.9330    8.7130   -8.9730 N.am   66  ASN66      -0.0877
     55  N         -5.6040    4.5570  -11.0480 N.am   67  GLY67      -0.1942
     56  CA        -4.4710    4.1770  -11.9040 C.3    67  GLY67       0.2014
     57  C         -3.1300    4.4020  -11.2450 C.2    67  GLY67       0.2639
     58  O         -3.0390    4.8340  -10.0930 O.2    67  GLY67      -0.2714
     59  N         -2.0640    4.0740  -11.9760 N.am   68  GLY68      -0.1939
     60  CA        -0.7400    4.0690  -11.3540 C.3    68  GLY68       0.2014
     61  C          0.2890    3.5850  -12.3520 C.2    68  GLY68       0.2639
     62  O         -0.0570    3.2780  -13.4900 O.2    68  GLY68      -0.2714
     63  N          1.5460    3.5310  -11.9060 N.am   69  LEU69      -0.1963
     64  CA         2.6340    3.0240  -12.7160 C.3    69  LEU69       0.1728
     65  C          3.3430    1.8690  -12.0250 C.2    69  LEU69       0.2616
     66  O          3.5230    1.8670  -10.7990 O.2    69  LEU69      -0.2715
     67  CB         3.6480    4.1060  -13.0130 C.3    69  LEU69       0.0311
     68  CG         3.1200    5.3140  -13.7870 C.3    69  LEU69       0.0022
     69  CD1        4.2960    6.2930  -13.9070 C.3    69  LEU69       0.0001
     70  CD2        2.5740    4.9640  -15.1620 C.3    69  LEU69       0.0001
     71  N          3.7850    0.8970  -12.8230 N.am   70  MET70      -0.1963
     72  CA         4.5240   -0.2310  -12.2480 C.3    70  MET70       0.1736
     73  C          5.8130    0.2090  -11.5530 C.2    70  MET70       0.2616
     74  O          6.1110   -0.2910  -10.4530 O.2    70  MET70      -0.2715
     75  CB         4.7980   -1.3050  -13.3170 C.3    70  MET70       0.0427
     76  CG         3.5010   -1.9830  -13.8120 C.3    70  MET70       0.0599
     77  SD         2.5280   -1.0130  -15.0050 S.3    70  MET70      -0.1393
     78  CE         3.4440   -1.3320  -16.5030 C.3    70  MET70       0.0692
     79  N          6.5420    1.1810  -12.1320 N.am   71  ASP71      -0.1957
     80  CA         7.7720    1.6490  -11.4970 C.3    71  ASP71       0.1840
     81  C          7.4960    2.3000  -10.1430 C.2    71  ASP71       0.2622
     82  O          8.3030    2.1750   -9.2210 O.2    71  ASP71      -0.2715
     83  CB         8.5500    2.6060  -12.3890 C.3    71  ASP71       0.1450
     84  CG         9.2620    1.9010  -13.5220 C.2    71  ASP71       0.3671
     85  OD1        9.2910    0.6560  -13.5380 O.co2  71  ASP71      -0.2456
     86  OD2        9.8330    2.6110  -14.3880 O.co2  71  ASP71      -0.2456
     87  N          6.3650    2.9930  -10.0030 N.am   72  TYR72      -0.1974
     88  CA         6.0270    3.5860   -8.7090 C.3    72  TYR72       0.1639
     89  C          5.7180    2.4840   -7.6890 C.2    72  TYR72       0.2290
     90  O          6.0810    2.6060   -6.5200 O.2    72  TYR72      -0.2864
     91  CB         4.8070    4.5000   -8.8080 C.3    72  TYR72       0.0560
     92  CG         4.9860    5.7650   -9.6140 C.ar   72  TYR72      -0.0198
     93  CD1        6.2470    6.2210   -9.9810 C.ar   72  TYR72      -0.0009
     94  CD2        3.8730    6.5280   -9.9630 C.ar   72  TYR72      -0.0009
     95  CE1        6.3960    7.3960  -10.7090 C.ar   72  TYR72       0.0417
     96  CE2        4.0010    7.7140  -10.6740 C.ar   72  TYR72       0.0417
     97  CZ         5.2640    8.1330  -11.0560 C.ar   72  TYR72       0.1957
     98  OH         5.3870    9.3090  -11.7730 O.3    72  TYR72      -0.2866
     99  N          3.3770   -1.6290  -20.5950 N.3   135  ALA135     -0.1245
    100  CA         2.1190   -0.9260  -20.8340 C.3   135  ALA135      0.1562
    101  C          1.7760   -1.0000  -22.2950 C.2   135  ALA135      0.2260
    102  O          2.6590   -0.9250  -23.1840 O.2   135  ALA135     -0.2867
    103  CB         2.1910    0.5270  -20.3740 C.3   135  ALA135      0.0290
    104  N          2.6430    5.1120  -28.6980 N.3   159  GLU159     -0.1245
    105  CA         3.1170    6.1360  -27.7570 C.3   159  GLU159      0.1567
    106  C          2.1410    6.4080  -26.6280 C.2   159  GLU159      0.2260
    107  O          2.5550    6.8440  -25.5660 O.2   159  GLU159     -0.2867
    108  CB         3.4260    7.4660  -28.4710 C.3   159  GLU159      0.0388
    109  CG         4.6170    7.4070  -29.4140 C.3   159  GLU159      0.1160
    110  CD         4.2670    6.7850  -30.7530 C.2   159  GLU159      0.3649
    111  OE1        3.1270    6.9830  -31.2290 O.co2 159  GLU159     -0.2457
    112  OE2        5.1300    6.0920  -31.3270 O.co2 159  GLU159     -0.2457
    113  N         -0.1710    4.6770  -24.2360 N.3   161  MET161     -0.1230
    114  CA        -0.5650    3.4170  -23.5950 C.3   161  MET161      0.1702
    115  C         -1.4540    3.6990  -22.3960 C.2   161  MET161      0.2592
    116  O         -1.3620    4.7590  -21.7870 O.2   161  MET161     -0.2718
    117  CB         0.6630    2.6490  -23.1310 C.3   161  MET161      0.0401
    118  CG         1.5250    2.1210  -24.2700 C.3   161  MET161      0.0596
    119  SD         2.7850    3.3090  -24.8090 S.3   161  MET161     -0.1393
    120  CE         3.8110    3.3570  -23.3350 C.3   161  MET161      0.0692
    121  N         -2.3430    2.7670  -22.0670 N.am  162  ASP162     -0.1960
    122  CA        -3.2880    3.0290  -20.9750 C.3   162  ASP162      0.1840
    123  C         -3.4740    1.8370  -20.0270 C.2   162  ASP162      0.2622
    124  O         -4.2910    1.9120  -19.0960 O.2   162  ASP162     -0.2715
    125  CB        -4.6470    3.4590  -21.5560 C.3   162  ASP162      0.1450
    126  CG        -5.2850    2.3880  -22.4620 C.2   162  ASP162      0.3671
    127  OD1       -4.7890    1.2490  -22.5530 O.co2 162  ASP162     -0.2456
    128  OD2       -6.3260    2.6950  -23.0800 O.co2 162  ASP162     -0.2456
    129  N         -2.7110    0.7580  -20.2310 N.am  163  HIS163     -0.1959
    130  CA        -3.0170   -0.5010  -19.5360 C.3   163  HIS163      0.1787
    131  C         -1.7360   -1.2810  -19.2170 C.2   163  HIS163      0.2620
    132  O         -0.9990   -1.6620  -20.1330 O.2   163  HIS163     -0.2715
    133  CB        -4.0130   -1.3130  -20.3870 C.3   163  HIS163      0.0785
    134  CG        -4.5350   -2.5420  -19.7060 C.ar  163  HIS163      0.0821
    135  ND1       -5.1460   -2.5060  -18.4710 N.ar  163  HIS163     -0.2267
    136  CD2       -4.5440   -3.8380  -20.0950 C.ar  163  HIS163      0.1154
    137  CE1       -5.4960   -3.7330  -18.1190 C.ar  163  HIS163      0.1986
    138  NE2       -5.1480   -4.5580  -19.0900 N.ar  163  HIS163     -0.2212
    139  N         -1.4630   -1.4920  -17.9300 N.am  164  GLY164     -0.1954
    140  CA        -0.3120   -2.3000  -17.5020 C.3   164  GLY164      0.1869
    141  C         -0.6360   -3.7790  -17.4990 C.2   164  GLY164      0.2309
    142  O         -1.6780   -4.1720  -16.9990 O.2   164  GLY164     -0.2863
    143  N          7.1890    1.1540  -22.4640 N.3   211  ALA211     -0.1245
    144  CA         7.2380    1.3780  -21.0110 C.3   211  ALA211      0.1562
    145  C          7.4270    0.0300  -20.3160 C.2   211  ALA211      0.2260
    146  O          6.5880   -0.3990  -19.5090 O.2   211  ALA211     -0.2867
    147  CB         5.9600    2.0920  -20.5380 C.3   211  ALA211      0.0290
@<TRIPOS>BOND
     1   112   110   ar
     2   111   110   ar
     3   110   109    1
     4   109   108    1
     5   104   105    1
     6   108   105    1
     7   105   106    1
     8   106   107    2
     9   119   118    1
    10   119   120    1
    11   118   117    1
    12   113   114    1
    13   114   117    1
    14   114   115    1
    15   102   101    2
    16   128   126   ar
    17   127   126   ar
    18   143   144    1
    19   126   125    1
    20   115   121   am
    21   115   116    2
    22   101   100    1
    23   121   122    1
    24   125   122    1
    25   144   147    1
    26   144   145    1
    27   122   123    1
    28   100    99    1
    29   100   103    1
    30   133   134    1
    31   133   130    1
    32   145   146    2
    33   129   123   am
    34   129   130    1
    35   132   131    2
    36   136   134   ar
    37   136   138   ar
    38   123   124    2
    39   134   135   ar
    40   130   131    1
    41   131   139   am
    42   138   137   ar
    43   135   137   ar
    44   139   140    1
    45   140   141    1
    46   141   142    2
    47    78    77    1
    48    19    18    1
    49    18    15    1
    50    70    68    1
    51    77    76    1
    52     8     7    2
    53    86    84   ar
    54     9     7   am
    55     7     6    1
    56    69    68    1
    57    76    75    1
    58    68    67    1
    59    15    16    1
    60    15    14    1
    61    85    84   ar
    62    84    83    1
    63    62    61    2
    64    17    16    2
    65    16    20   am
    66    75    72    1
    67     6     5    1
    68    20    21    1
    69    67    64    1
    70    71    72    1
    71    71    65   am
    72    21    24    1
    73    21    22    1
    74    50    49    2
    75    64    65    1
    76    64    63    1
    77    24    25    1
    78    83    80    1
    79    61    63   am
    80    61    60    1
    81    72    73    1
    82    79    73   am
    83    79    80    1
    84    11    12    1
    85    11    10    1
    86    65    66    2
    87    59    60    1
    88    59    57   am
    89     5     2    1
    90    56    57    1
    91    56    55    1
    92    98    97    1
    93     1     2    1
    94    22    23    2
    95    49    55   am
    96    49    48    1
    97    12    13    2
    98    73    74    2
    99    26    25   ar
   100    26    28   ar
   101    80    81    1
   102    25    27   ar
   103    57    58    2
   104     2     3    1
   105    97    95   ar
   106    97    96   ar
   107     3     4    2
   108    95    93   ar
   109    96    94   ar
   110    48    51    1
   111    48    47    1
   112    28    29   ar
   113    51    52    1
   114    81    87   am
   115    81    82    2
   116    87    88    1
   117    27    29   ar
   118    27    30   ar
   119    93    92   ar
   120    94    92   ar
   121    53    52    2
   122    52    54   am
   123    92    91    1
   124    29    31   ar
   125    30    32   ar
   126    43    42    1
   127    43    44    1
   128    42    39    1
   129    91    88    1
   130    37    36    2
   131    88    89    1
   132    44    46   ar
   133    44    45   ar
   134    31    33   ar
   135    38    39    1
   136    32    33   ar
   137    36    35    1
   138    89    90    2
   139    39    40    1
   140    41    40    2
   141    35    34    1
