@<TRIPOS>MOLECULE
tmp/6ezqA00.pdb
 208 197 0 0 0
SMALL
GASTEIGER

@<TRIPOS>ATOM
      1  N        -34.0390   19.0430   21.8860 N.3   144  TYR144     -0.1241
      2  CA       -32.8590   18.7040   21.0850 C.3   144  TYR144      0.1605
      3  C        -33.2980   18.7570   19.6540 C.2   144  TYR144      0.2264
      4  O        -34.0230   17.8670   19.2200 O.2   144  TYR144     -0.2867
      5  CB       -32.4410   17.2670   21.4580 C.3   144  TYR144      0.0534
      6  CG       -30.9880   16.8970   21.2720 C.ar  144  TYR144     -0.0201
      7  CD1      -30.0350   17.8610   20.9420 C.ar  144  TYR144     -0.0009
      8  CD2      -30.5490   15.5960   21.4960 C.ar  144  TYR144     -0.0009
      9  CE1      -28.6920   17.5260   20.7910 C.ar  144  TYR144      0.0417
     10  CE2      -29.2090   15.2530   21.3490 C.ar  144  TYR144      0.0417
     11  CZ       -28.2890   16.2230   20.9950 C.ar  144  TYR144      0.1957
     12  OH       -26.9700   15.9050   20.8910 O.3   144  TYR144     -0.2866
     13  N        -32.5130   15.8940   17.4460 N.3   147  GLU147     -0.1245
     14  CA       -33.3470   14.7570   17.8520 C.3   147  GLU147      0.1567
     15  C        -34.7660   14.9210   17.2970 C.2   147  GLU147      0.2260
     16  O        -35.3840   13.9370   16.8770 O.2   147  GLU147     -0.2867
     17  CB       -33.3850   14.6080   19.3900 C.3   147  GLU147      0.0388
     18  CG       -33.6090   13.1930   19.8970 C.3   147  GLU147      0.1160
     19  CD       -32.4200   12.2790   19.6890 C.2   147  GLU147      0.3649
     20  OE1      -32.3400   11.6570   18.6060 O.co2 147  GLU147     -0.2457
     21  OE2      -31.5350   12.2370   20.5740 O.co2 147  GLU147     -0.2457
     22  N        -35.0440   15.1210   29.4070 N.3   189  LYS189     -0.1245
     23  CA       -33.6860   14.5490   29.4100 C.3   189  LYS189      0.1561
     24  C        -32.6310   15.5470   28.8980 C.2   189  LYS189      0.2260
     25  O        -31.4880   15.5120   29.3650 O.2   189  LYS189     -0.2867
     26  CB       -33.6780   13.2730   28.5460 C.3   189  LYS189      0.0271
     27  CG       -32.5510   12.2930   28.8480 C.3   189  LYS189      0.0035
     28  CD       -32.2320   11.3780   27.6500 C.3   189  LYS189      0.0206
     29  CE       -30.7950   10.8880   27.6130 C.3   189  LYS189      0.1093
     30  NZ       -30.5040    9.8620   28.6610 N.3   189  LYS189     -0.1314
     31  N        -32.3990   18.9390   31.1860 N.3   192  LEU192     -0.1231
     32  CA       -31.5040   18.6600   32.3110 C.3   192  LEU192      0.1693
     33  C        -30.0820   18.8820   31.8450 C.2   192  LEU192      0.2591
     34  O        -29.3430   19.5570   32.5540 O.2   192  LEU192     -0.2718
     35  CB       -31.6830   17.2350   32.8820 C.3   192  LEU192      0.0284
     36  CG       -30.5360   16.6670   33.7630 C.3   192  LEU192      0.0019
     37  CD1      -30.6700   17.1420   35.1910 C.3   192  LEU192      0.0001
     38  CD2      -30.5020   15.1460   33.7250 C.3   192  LEU192      0.0001
     39  N        -29.7010   18.3540   30.6570 N.am  193  LYS193     -0.1980
     40  CA       -28.3560   18.5450   30.0590 C.3   193  LYS193      0.1596
     41  C        -28.0360   20.0420   29.9730 C.2   193  LYS193      0.2287
     42  O        -26.9220   20.4510   30.2810 O.2   193  LYS193     -0.2864
     43  CB       -28.2480   17.9180   28.6470 C.3   193  LYS193      0.0298
     44  CG       -28.4670   16.4230   28.5940 C.3   193  LYS193      0.0038
     45  CD       -27.7100   15.7790   27.4420 C.3   193  LYS193      0.0206
     46  CE       -28.4070   14.5440   26.9250 C.3   193  LYS193      0.1093
     47  NZ       -29.4100   14.8880   25.8730 N.3   193  LYS193     -0.1314
     48  N        -27.6680   21.5210   33.5620 N.3   196  SER196     -0.1217
     49  CA       -26.3400   21.1040   34.0060 C.3   196  SER196      0.1889
     50  C        -25.2160   22.0350   33.5370 C.2   196  SER196      0.2288
     51  O        -24.2110   22.1260   34.2340 O.2   196  SER196     -0.2866
     52  CB       -26.0460   19.6810   33.5590 C.3   196  SER196      0.2089
     53  OG       -26.4710   18.7560   34.5450 O.3   196  SER196     -0.2183
     54  N        -19.0120   20.6630   35.5120 N.3   204  ALA204     -0.1231
     55  CA       -19.9610   19.6760   36.0470 C.3   204  ALA204      0.1694
     56  C        -20.4680   18.8260   34.8990 C.2   204  ALA204      0.2592
     57  O        -20.3370   17.6090   34.9390 O.2   204  ALA204     -0.2718
     58  CB       -21.1320   20.3710   36.7170 C.3   204  ALA204      0.0304
     59  N        -20.9820   19.4770   33.8430 N.am  205  PHE205     -0.1976
     60  CA       -21.4660   18.8270   32.6390 C.3   205  PHE205      0.1639
     61  C        -20.3870   17.8820   32.1030 C.2   205  PHE205      0.2290
     62  O        -20.6550   16.6930   31.9380 O.2   205  PHE205     -0.2864
     63  CB       -21.8730   19.8790   31.5850 C.3   205  PHE205      0.0560
     64  CG       -22.3650   19.2670   30.3020 C.ar  205  PHE205     -0.0200
     65  CD1      -23.6900   18.8880   30.1590 C.ar  205  PHE205     -0.0042
     66  CD2      -21.4950   19.0210   29.2540 C.ar  205  PHE205     -0.0042
     67  CE1      -24.1390   18.2950   28.9780 C.ar  205  PHE205     -0.0003
     68  CE2      -21.9290   18.3700   28.1010 C.ar  205  PHE205     -0.0003
     69  CZ       -23.2510   18.0270   27.9630 C.ar  205  PHE205     -0.0000
     70  N        -19.9590   14.8360   34.3570 N.3   208  TRP208     -0.1227
     71  CA       -21.0540   13.8950   34.0910 C.3   208  TRP208      0.1737
     72  C        -20.7130   13.0860   32.8330 C.2   208  TRP208      0.2595
     73  O        -20.7430   11.8470   32.8680 O.2   208  TRP208     -0.2718
     74  CB       -22.3780   14.6540   33.8980 C.3   208  TRP208      0.0564
     75  CG       -23.6170   13.9080   34.3170 C.ar  208  TRP208      0.0003
     76  CD1      -24.3760   14.1400   35.4270 C.ar  208  TRP208      0.0946
     77  CD2      -24.2710   12.8510   33.5980 C.ar  208  TRP208      0.0152
     78  NE1      -25.4750   13.3160   35.4310 N.ar  208  TRP208     -0.2442
     79  CE2      -25.4210   12.4920   34.3350 C.ar  208  TRP208      0.0810
     80  CE3      -23.9890   12.1560   32.4000 C.ar  208  TRP208      0.0012
     81  CZ2      -26.3000   11.4840   33.9110 C.ar  208  TRP208      0.0191
     82  CZ3      -24.8760   11.1760   31.9690 C.ar  208  TRP208      0.0001
     83  CH2      -26.0060   10.8370   32.7280 C.ar  208  TRP208      0.0015
     84  N        -20.3050   13.8090   31.7550 N.am  209  ALA209     -0.1980
     85  CA       -19.8980   13.2840   30.4670 C.3   209  ALA209      0.1597
     86  C        -18.7350   12.2800   30.5780 C.2   209  ALA209      0.2287
     87  O        -18.8790   11.1700   30.0660 O.2   209  ALA209     -0.2864
     88  CB       -19.5490   14.4310   29.5260 C.3   209  ALA209      0.0319
     89  N        -20.0020    9.0630   32.3580 N.3   212  ARG212     -0.1231
     90  CA       -20.9190    8.3340   31.4900 C.3   212  ARG212      0.1694
     91  C        -20.2350    7.6860   30.3030 C.2   212  ARG212      0.2591
     92  O        -20.3980    6.4850   30.0960 O.2   212  ARG212     -0.2718
     93  CB       -22.0770    9.2430   31.0580 C.3   212  ARG212      0.0321
     94  CG       -23.1690    8.5320   30.2570 C.3   212  ARG212      0.0489
     95  CD       -24.1510    7.7950   31.1530 C.3   212  ARG212      0.2205
     96  NE       -24.9150    6.7940   30.4150 N.pl3 212  ARG212     -0.0865
     97  CZ       -24.4990    5.5540   30.1990 C.cat 212  ARG212      0.5346
     98  NH1      -23.3170    5.1550   30.6470 N.pl3 212  ARG212      0.1354
     99  NH2      -25.2530    4.7070   29.5140 N.pl3 212  ARG212      0.1354
    100  N        -19.4790    8.4710   29.5120 N.am  213  LEU213     -0.1980
    101  CA       -18.7470    7.9550   28.3670 C.3   213  LEU213      0.1596
    102  C        -17.7060    6.9030   28.7850 C.2   213  LEU213      0.2287
    103  O        -17.4490    6.0030   28.0070 O.2   213  LEU213     -0.2864
    104  CB       -18.1230    9.0940   27.5710 C.3   213  LEU213      0.0297
    105  CG       -19.0560    9.8130   26.5730 C.3   213  LEU213      0.0022
    106  CD1      -18.4460   11.1280   26.1130 C.3   213  LEU213      0.0001
    107  CD2      -19.3010    8.9830   25.3140 C.3   213  LEU213      0.0001
    108  N        -19.7100    3.6250   29.3670 N.3   216  ARG216     -0.1231
    109  CA       -20.1040    3.1430   28.0510 C.3   216  ARG216      0.1694
    110  C        -18.9720    2.5650   27.2170 C.2   216  ARG216      0.2592
    111  O        -19.1810    1.5960   26.4900 O.2   216  ARG216     -0.2718
    112  CB       -20.8120    4.2590   27.2760 C.3   216  ARG216      0.0321
    113  CG       -21.8960    3.7380   26.3400 C.3   216  ARG216      0.0489
    114  CD       -22.4310    4.7980   25.4010 C.3   216  ARG216      0.2205
    115  NE       -23.1110    5.8930   26.0920 N.pl3 216  ARG216     -0.0865
    116  CZ       -24.3730    5.8620   26.5050 C.cat 216  ARG216      0.5346
    117  NH1      -25.1110    4.7750   26.3280 N.pl3 216  ARG216      0.1354
    118  NH2      -24.9050    6.9160   27.1090 N.pl3 216  ARG216      0.1354
    119  N        -17.7970    3.1830   27.2690 N.am  217  PHE217     -0.1976
    120  CA       -16.6530    2.7760   26.4670 C.3   217  PHE217      0.1639
    121  C        -15.4700    2.5020   27.3950 C.2   217  PHE217      0.2290
    122  O        -14.5120    3.2810   27.4490 O.2   217  PHE217     -0.2864
    123  CB       -16.3510    3.8930   25.4690 C.3   217  PHE217      0.0560
    124  CG       -17.5190    4.3420   24.6200 C.ar  217  PHE217     -0.0200
    125  CD1      -18.3250    3.4140   23.9690 C.ar  217  PHE217     -0.0042
    126  CD2      -17.7460    5.6930   24.3830 C.ar  217  PHE217     -0.0042
    127  CE1      -19.3650    3.8270   23.1370 C.ar  217  PHE217     -0.0003
    128  CE2      -18.7730    6.1050   23.5290 C.ar  217  PHE217     -0.0003
    129  CZ       -19.5840    5.1690   22.9220 C.ar  217  PHE217     -0.0000
    130  N        -18.8390   16.5390   22.4840 N.3   232  LEU232     -0.1245
    131  CA       -20.1640   16.3900   23.0910 C.3   232  LEU232      0.1561
    132  C        -20.6020   17.6560   23.8340 C.2   232  LEU232      0.2260
    133  O        -21.7360   18.0880   23.6770 O.2   232  LEU232     -0.2867
    134  CB       -20.0970   15.2380   24.0820 C.3   232  LEU232      0.0270
    135  CG       -21.3310   14.4130   24.2240 C.3   232  LEU232      0.0019
    136  CD1      -21.3450   13.3220   23.1700 C.3   232  LEU232      0.0001
    137  CD2      -21.4210   13.8260   25.6600 C.3   232  LEU232      0.0001
    138  N        -21.4830   20.4160   21.2160 N.3   235  VAL235     -0.1231
    139  CA       -22.8080   20.1550   20.6390 C.3   235  VAL235      0.1692
    140  C        -23.8900   20.6390   21.5900 C.2   235  VAL235      0.2592
    141  O        -24.7660   21.3840   21.1710 O.2   235  VAL235     -0.2718
    142  CB       -22.9960   18.6600   20.3090 C.3   235  VAL235      0.0266
    143  CG1      -24.3450   18.4100   19.6590 C.3   235  VAL235      0.0020
    144  CG2      -21.8800   18.1590   19.4120 C.3   235  VAL235      0.0020
    145  N        -23.8020   20.2720   22.8730 N.am  236  HIS236     -0.1976
    146  CA       -24.8180   20.6760   23.8190 C.3   236  HIS236      0.1656
    147  C        -24.7440   22.1380   24.1770 C.2   236  HIS236      0.2291
    148  O        -25.8170   22.7190   24.2600 O.2   236  HIS236     -0.2864
    149  CB       -24.8550   19.7780   25.0410 C.3   236  HIS236      0.0771
    150  CG       -25.4040   18.4430   24.6760 C.ar  236  HIS236      0.0820
    151  ND1      -26.7600   18.2310   24.5900 N.ar  236  HIS236     -0.2267
    152  CD2      -24.7580   17.3330   24.2470 C.ar  236  HIS236      0.1154
    153  CE1      -26.8970   16.9840   24.1730 C.ar  236  HIS236      0.1986
    154  NE2      -25.7170   16.4050   23.9520 N.ar  236  HIS236     -0.2212
    155  N        -22.8350   17.3370   15.7960 N.3   251  ARG251     -0.1245
    156  CA       -23.3960   16.0650   16.2480 C.3   251  ARG251      0.1563
    157  C        -23.2990   15.0860   15.1000 C.2   251  ARG251      0.2260
    158  O        -23.2690   13.8750   15.3100 O.2   251  ARG251     -0.2867
    159  CB       -24.8660   16.2530   16.6470 C.3   251  ARG251      0.0307
    160  CG       -25.5870   14.9730   17.0630 C.3   251  ARG251      0.0489
    161  CD       -26.7210   15.2940   17.9900 C.3   251  ARG251      0.2205
    162  NE       -27.9570   14.5970   17.6440 N.pl3 251  ARG251     -0.0865
    163  CZ       -28.3560   13.4510   18.1840 C.cat 251  ARG251      0.5346
    164  NH1      -27.5950   12.8270   19.0760 N.pl3 251  ARG251      0.1354
    165  NH2      -29.5100   12.9080   17.8220 N.pl3 251  ARG251      0.1354
    166  N        -19.4840   14.1590   14.7950 N.3   254  LEU254     -0.1245
    167  CA       -19.1660   13.3110   15.9630 C.3   254  LEU254      0.1561
    168  C        -19.6400   11.8770   15.7720 C.2   254  LEU254      0.2260
    169  O        -18.9440   10.9470   16.1970 O.2   254  LEU254     -0.2867
    170  CB       -19.8120   13.9050   17.2310 C.3   254  LEU254      0.0270
    171  CG       -19.6510   13.1650   18.5710 C.3   254  LEU254      0.0019
    172  CD1      -18.1740   12.9090   18.9180 C.3   254  LEU254      0.0001
    173  CD2      -20.3550   13.9250   19.6820 C.3   254  LEU254      0.0001
    174  N        -17.0310    8.7640   15.4670 N.3   258  ILE258     -0.1245
    175  CA       -17.1880    7.5630   16.3020 C.3   258  ILE258      0.1561
    176  C        -17.1370    6.3150   15.4150 C.2   258  ILE258      0.2260
    177  O        -16.4200    5.3580   15.7100 O.2   258  ILE258     -0.2867
    178  CB       -18.4550    7.6720   17.2280 C.3   258  ILE258      0.0252
    179  CG1      -18.1620    8.6180   18.4340 C.3   258  ILE258      0.0019
    180  CG2      -18.9100    6.3050   17.7530 C.3   258  ILE258      0.0019
    181  CD1      -19.3460    9.2320   19.1500 C.3   258  ILE258      0.0001
    182  N        -26.8600    8.9980   15.0870 N.3   281  SER281     -0.1217
    183  CA       -26.5890    9.7870   16.2930 C.3   281  SER281      0.1889
    184  C        -27.4750    9.3580   17.4690 C.2   281  SER281      0.2288
    185  O        -26.9770    9.2350   18.5820 O.2   281  SER281     -0.2866
    186  CB       -26.7320   11.2720   15.9950 C.3   281  SER281      0.2089
    187  OG       -26.0650   11.5840   14.7830 O.3   281  SER281     -0.2183
    188  N        -26.2010    5.6650   18.7130 N.3   284  ILE284     -0.1231
    189  CA       -24.9600    5.8310   19.4790 C.3   284  ILE284      0.1692
    190  C        -25.2570    6.3550   20.8950 C.2   284  ILE284      0.2591
    191  O        -24.5940    5.9370   21.8390 O.2   284  ILE284     -0.2718
    192  CB       -23.9410    6.6930   18.6650 C.3   284  ILE284      0.0266
    193  CG1      -23.4400    5.9130   17.4140 C.3   284  ILE284      0.0019
    194  CG2      -22.7570    7.1710   19.5100 C.3   284  ILE284      0.0020
    195  CD1      -22.9020    6.7830   16.2710 C.3   284  ILE284      0.0001
    196  N        -26.2770    7.2220   21.0400 N.am  285  ALA285     -0.1980
    197  CA       -26.6970    7.7910   22.3150 C.3   285  ALA285      0.1597
    198  C        -27.3820    6.7220   23.1970 C.2   285  ALA285      0.2287
    199  O        -27.0050    6.5650   24.3600 O.2   285  ALA285     -0.2864
    200  CB       -27.6200    8.9790   22.0860 C.3   285  ALA285      0.0319
    201  N        -32.0460    7.9660   35.6690 N.3   445  ASP445     -0.1239
    202  CA       -32.5480    8.5100   34.4000 C.3   445  ASP445      0.1674
    203  C        -33.9750    9.0550   34.4290 C.2   445  ASP445      0.2266
    204  O        -34.3660    9.7760   33.5040 O.2   445  ASP445     -0.2867
    205  CB       -32.3920    7.4890   33.2760 C.3   445  ASP445      0.1410
    206  CG       -31.0840    7.7000   32.5530 C.2   445  ASP445      0.3668
    207  OD1      -30.9730    8.7030   31.8110 O.co2 445  ASP445     -0.2456
    208  OD2      -30.1300    6.9410   32.8220 O.co2 445  ASP445     -0.2456
@<TRIPOS>BOND
     1   187   186    1
     2   166   167    1
     3   182   183    1
     4   157   158    2
     5   157   156    1
     6   176   177    2
     7   176   175    1
     8   174   175    1
     9   168   167    1
    10   168   169    2
    11   155   156    1
    12   167   170    1
    13   186   183    1
    14   156   159    1
    15   195   193    1
    16   183   184    1
    17   175   178    1
    18   159   160    1
    19    16    15    2
    20   160   161    1
    21   178   180    1
    22   178   179    1
    23   170   171    1
    24    15    14    1
    25   193   192    1
    26    13    14    1
    27   184   185    2
    28   162   161    1
    29   162   163    2
    30   165   163    1
    31    14    17    1
    32   163   164    1
    33   179   181    1
    34   171   172    1
    35   171   173    1
    36    20    19   ar
    37   192   189    1
    38   192   194    1
    39   188   189    1
    40     4     3    2
    41    17    18    1
    42   144   142    1
    43   189   190    1
    44     3     2    1
    45   143   142    1
    46    19    18    1
    47    19    21   ar
    48   142   139    1
    49   139   138    1
    50   139   140    1
    51     9     7   ar
    52     9    11   ar
    53    12    11    1
    54   190   196   am
    55   190   191    2
    56     7     6   ar
    57    11    10   ar
    58   196   197    1
    59     2     5    1
    60     2     1    1
    61   141   140    2
    62     6     5    1
    63     6     8   ar
    64    10     8   ar
    65   140   145   am
    66   200   197    1
    67   197   198    1
    68   130   131    1
    69   145   146    1
    70   129   127   ar
    71   129   128   ar
    72   131   132    1
    73   131   134    1
    74   127   125   ar
    75   136   135    1
    76   198   199    2
    77   128   126   ar
    78   133   132    2
    79   146   147    1
    80   146   149    1
    81   154   153   ar
    82   154   152   ar
    83   125   124   ar
    84   134   135    1
    85   153   151   ar
    86   147   148    2
    87   135   137    1
    88   152   150   ar
    89   126   124   ar
    90   151   150   ar
    91   124   123    1
    92   150   149    1
    93   107   105    1
    94   114   115    1
    95   114   113    1
    96   123   120    1
    97    47    46    1
    98   115   116    2
    99   106   105    1
   100   117   116    1
   101   113   112    1
   102   120   119    1
   103   120   121    1
   104   111   110    2
   105   116   118    1
   106   105   104    1
   107    46    45    1
   108   110   119   am
   109   110   109    1
   110   112   109    1
   111   121   122    2
   112    45    44    1
   113   104   101    1
   114    29    28    1
   115    29    30    1
   116    28    27    1
   117    69    68   ar
   118    69    67   ar
   119   103   102    2
   120   109   108    1
   121    68    66   ar
   122   101   102    1
   123   101   100    1
   124    26    27    1
   125    26    23    1
   126    44    43    1
   127    43    40    1
   128    24    25    2
   129    24    23    1
   130    67    65   ar
   131    66    64   ar
   132    22    23    1
   133   100    91   am
   134    99    97    1
   135    88    85    1
   136    41    40    1
   137    41    42    2
   138    40    39    1
   139    87    86    2
   140    92    91    2
   141    65    64   ar
   142    97    96    2
   143    97    98    1
   144    94    93    1
   145    94    95    1
   146    64    63    1
   147    91    90    1
   148    96    95    1
   149    85    86    1
   150    85    84    1
   151    39    33   am
   152    93    90    1
   153    31    32    1
   154    90    89    1
   155    63    60    1
   156    84    72   am
   157   207   206   ar
   158    33    32    1
   159    33    34    2
   160    62    61    2
   161    82    80   ar
   162    82    83   ar
   163    61    60    1
   164    32    35    1
   165    80    77   ar
   166   206   208   ar
   167   206   205    1
   168    60    59    1
   169    83    81   ar
   170    72    73    2
   171    72    71    1
   172    35    36    1
   173   205   202    1
   174   204   203    2
   175    50    49    1
   176    50    51    2
   177    52    49    1
   178    52    53    1
   179    48    49    1
   180    77    75   ar
   181    77    79   ar
   182    38    36    1
   183    36    37    1
   184    59    56   am
   185    74    71    1
   186    74    75    1
   187    81    79   ar
   188    71    70    1
   189    75    76   ar
   190    79    78   ar
   191   202   203    1
   192   202   201    1
   193    56    57    2
   194    56    55    1
   195    76    78   ar
   196    54    55    1
   197    55    58    1
