@<TRIPOS>MOLECULE
tmp/6ezqA01.pdb
 216 199 0 0 0
SMALL
GASTEIGER

@<TRIPOS>ATOM
      1  N        -24.6170    4.6460   39.3290 N.3   336  SER336     -0.1217
      2  CA       -25.2100    5.7770   38.6160 C.3   336  SER336      0.1889
      3  C        -24.1350    6.8780   38.4070 C.2   336  SER336      0.2288
      4  O        -23.1440    6.9090   39.1500 O.2   336  SER336     -0.2866
      5  CB       -26.3680    6.3260   39.4320 C.3   336  SER336      0.2089
      6  OG       -25.9490    6.4700   40.7770 O.3   336  SER336     -0.2183
      7  N        -24.2710   10.2870   38.8200 N.3   338  VAL338     -0.1231
      8  CA       -24.4310   11.1170   40.0240 C.3   338  VAL338      0.1692
      9  C        -23.6330   10.5130   41.2090 C.2   338  VAL338      0.2591
     10  O        -22.7970   11.2240   41.7930 O.2   338  VAL338     -0.2718
     11  CB       -25.9420   11.3350   40.3270 C.3   338  VAL338      0.0266
     12  CG1      -26.1440   12.0630   41.6240 C.3   338  VAL338      0.0020
     13  CG2      -26.6250   12.1130   39.2120 C.3   338  VAL338      0.0020
     14  N        -23.8350    9.1910   41.5060 N.am  339  LEU339     -0.1980
     15  CA       -23.0750    8.4820   42.5420 C.3   339  LEU339      0.1596
     16  C        -21.5610    8.5860   42.2850 C.2   339  LEU339      0.2287
     17  O        -20.8730    9.1350   43.1360 O.2   339  LEU339     -0.2864
     18  CB       -23.5280    7.0140   42.7140 C.3   339  LEU339      0.0297
     19  CG       -22.5960    6.0410   43.4960 C.3   339  LEU339      0.0022
     20  CD1      -22.2990    6.5150   44.9290 C.3   339  LEU339      0.0001
     21  CD2      -23.1630    4.6560   43.5310 C.3   339  LEU339      0.0001
     22  N        -20.1500   11.8150   43.1810 N.3   342  ARG342     -0.1245
     23  CA       -20.0450   12.0550   44.6150 C.3   342  ARG342      0.1563
     24  C        -18.6810   11.5270   45.0790 C.2   342  ARG342      0.2260
     25  O        -17.9040   12.3090   45.6230 O.2   342  ARG342     -0.2867
     26  CB       -21.2040   11.4210   45.3980 C.3   342  ARG342      0.0307
     27  CG       -22.5540   12.0570   45.0990 C.3   342  ARG342      0.0489
     28  CD       -23.6610   11.5070   45.9710 C.3   342  ARG342      0.2205
     29  NE       -24.9700   11.8130   45.3950 N.pl3 342  ARG342     -0.0865
     30  CZ       -25.8240   10.8990   44.9470 C.cat 342  ARG342      0.5346
     31  NH1      -25.5320    9.6060   45.0370 N.pl3 342  ARG342      0.1354
     32  NH2      -26.9920   11.2700   44.4350 N.pl3 342  ARG342      0.1354
     33  N        -27.6190    4.4580   47.9370 N.3   378  PRO378     -0.2116
     34  CA       -28.5980    4.1720   46.8830 C.3   378  PRO378      0.1372
     35  C        -28.8210    2.6760   46.6120 C.2   378  PRO378      0.2244
     36  O        -29.9530    2.2910   46.3010 O.2   378  PRO378     -0.2868
     37  CB       -28.0010    4.8720   45.6730 C.3   378  PRO378      0.0268
     38  CG       -26.5600    4.8310   45.8950 C.3   378  PRO378      0.0207
     39  CD       -26.3900    5.0340   47.3450 C.3   378  PRO378      0.0892
     40  N        -31.5030    1.7330   48.6770 N.3   381  LEU381     -0.1231
     41  CA       -32.7330    2.4310   48.2950 C.3   381  LEU381      0.1693
     42  C        -33.4700    1.7520   47.1470 C.2   381  LEU381      0.2591
     43  O        -34.6930    1.6400   47.2130 O.2   381  LEU381     -0.2718
     44  CB       -32.4420    3.8940   47.9590 C.3   381  LEU381      0.0284
     45  CG       -32.8710    4.9290   48.9830 C.3   381  LEU381      0.0019
     46  CD1      -31.9040    4.9870   50.1510 C.3   381  LEU381      0.0001
     47  CD2      -32.9890    6.3100   48.3410 C.3   381  LEU381      0.0001
     48  N        -32.7340    1.2910   46.1060 N.am  382  ILE382     -0.1980
     49  CA       -33.3110    0.5950   44.9440 C.3   382  ILE382      0.1595
     50  C        -33.9640   -0.7040   45.4220 C.2   382  ILE382      0.2287
     51  O        -35.1850   -0.8240   45.3260 O.2   382  ILE382     -0.2864
     52  CB       -32.3030    0.4300   43.7470 C.3   382  ILE382      0.0276
     53  CG1      -32.2040    1.7240   42.9320 C.3   382  ILE382      0.0022
     54  CG2      -32.6560   -0.7340   42.8100 C.3   382  ILE382      0.0022
     55  CD1      -31.0710    2.5190   43.2320 C.3   382  ILE382      0.0001
     56  N        -37.3950    0.0420   47.3900 N.3   385  ASN385     -0.1240
     57  CA       -38.5160    0.5010   46.5830 C.3   385  ASN385      0.1653
     58  C        -38.9320   -0.5820   45.6070 C.2   385  ASN385      0.2266
     59  O        -40.1230   -0.6910   45.3310 O.2   385  ASN385     -0.2867
     60  CB       -38.1950    1.8000   45.8710 C.3   385  ASN385      0.1155
     61  CG       -38.2060    2.9760   46.8020 C.2   385  ASN385      0.2627
     62  OD1      -37.2280    3.2540   47.5000 O.2   385  ASN385     -0.2716
     63  ND2      -39.3150    3.6890   46.8390 N.am  385  ASN385     -0.0877
     64  N        -48.0730    1.8490   45.3070 N.3   397  PHE397     -0.1241
     65  CA       -46.6860    2.2980   45.4830 C.3   397  PHE397      0.1605
     66  C        -46.6120    3.8050   45.2600 C.2   397  PHE397      0.2264
     67  O        -46.0660    4.4970   46.1160 O.2   397  PHE397     -0.2867
     68  CB       -45.7430    1.5580   44.5100 C.3   397  PHE397      0.0534
     69  CG       -44.3130    2.0460   44.4870 C.ar  397  PHE397     -0.0203
     70  CD1      -43.3860    1.5750   45.4080 C.ar  397  PHE397     -0.0042
     71  CD2      -43.8820    2.9440   43.5180 C.ar  397  PHE397     -0.0042
     72  CE1      -42.0510    2.0050   45.3670 C.ar  397  PHE397     -0.0003
     73  CE2      -42.5480    3.3740   43.4790 C.ar  397  PHE397     -0.0003
     74  CZ       -41.6430    2.9070   44.4080 C.ar  397  PHE397     -0.0000
     75  N        -45.5440    7.0860   48.0090 N.3   401  LEU401     -0.1245
     76  CA       -44.5990    8.1620   47.7470 C.3   401  LEU401      0.1561
     77  C        -45.2920    9.5050   47.6970 C.2   401  LEU401      0.2260
     78  O        -44.6850   10.4780   48.1180 O.2   401  LEU401     -0.2867
     79  CB       -43.8520    7.9430   46.4080 C.3   401  LEU401      0.0270
     80  CG       -43.1480    6.6080   46.1060 C.3   401  LEU401      0.0019
     81  CD1      -42.2980    6.7390   44.8720 C.3   401  LEU401      0.0001
     82  CD2      -42.2670    6.1470   47.2470 C.3   401  LEU401      0.0001
     83  N        -46.0010   10.4260   51.2920 N.3   404  ARG404     -0.1231
     84  CA       -44.7100   10.6860   51.9170 C.3   404  ARG404      0.1694
     85  C        -44.1860   12.0520   51.5460 C.2   404  ARG404      0.2592
     86  O        -43.9410   12.8660   52.4410 O.2   404  ARG404     -0.2718
     87  CB       -43.6700    9.5980   51.5840 C.3   404  ARG404      0.0321
     88  CG       -42.3340    9.8170   52.2910 C.3   404  ARG404      0.0489
     89  CD       -41.7420    8.5310   52.8160 C.3   404  ARG404      0.2205
     90  NE       -41.1840    7.7080   51.7410 N.pl3 404  ARG404     -0.0865
     91  CZ       -41.6920    6.5470   51.3340 C.cat 404  ARG404      0.5346
     92  NH1      -42.7800    6.0480   51.9140 N.pl3 404  ARG404      0.1354
     93  NH2      -41.1100    5.8690   50.3570 N.pl3 404  ARG404      0.1354
     94  N        -44.0600   12.3030   50.2330 N.am  405  TYR405     -0.1976
     95  CA       -43.4910   13.5120   49.6680 C.3   405  TYR405      0.1639
     96  C        -44.4170   14.7050   49.7200 C.2   405  TYR405      0.2290
     97  O        -43.8860   15.8080   49.7950 O.2   405  TYR405     -0.2864
     98  CB       -42.9010   13.2710   48.2710 C.3   405  TYR405      0.0560
     99  CG       -41.5550   12.6020   48.4290 C.ar  405  TYR405     -0.0198
    100  CD1      -40.4090   13.3540   48.6890 C.ar  405  TYR405     -0.0009
    101  CD2      -41.4530   11.2160   48.5140 C.ar  405  TYR405     -0.0009
    102  CE1      -39.1870   12.7440   48.9650 C.ar  405  TYR405      0.0417
    103  CE2      -40.2400   10.5950   48.8080 C.ar  405  TYR405      0.0417
    104  CZ       -39.1040   11.3630   49.0120 C.ar  405  TYR405      0.1957
    105  OH       -37.9050   10.7520   49.2990 O.3   405  TYR405     -0.2866
    106  N        -42.9280   18.0540   51.1650 N.3   409  VAL409     -0.1245
    107  CA       -42.9830   19.3080   50.3870 C.3   409  VAL409      0.1561
    108  C        -44.4340   19.7150   49.9530 C.2   409  VAL409      0.2260
    109  O        -44.7610   19.5920   48.7770 O.2   409  VAL409     -0.2867
    110  CB       -42.0030   19.3300   49.1660 C.3   409  VAL409      0.0252
    111  CG1      -40.5720   19.6300   49.5930 C.3   409  VAL409      0.0019
    112  CG2      -42.0580   18.0430   48.3510 C.3   409  VAL409      0.0019
    113  N        -46.0630   16.9000   41.8110 N.3   417  LEU417     -0.1245
    114  CA       -45.9970   15.7600   42.7270 C.3   417  LEU417      0.1561
    115  C        -46.6140   14.5220   42.0720 C.2   417  LEU417      0.2260
    116  O        -45.9630   13.4740   42.0630 O.2   417  LEU417     -0.2867
    117  CB       -46.7100   16.1060   44.0510 C.3   417  LEU417      0.0270
    118  CG       -46.0510   17.1590   44.9410 C.3   417  LEU417      0.0019
    119  CD1      -47.0150   17.6770   45.9740 C.3   417  LEU417      0.0001
    120  CD2      -44.8250   16.6100   45.6260 C.3   417  LEU417      0.0001
    121  N        -44.3340   13.5040   39.4160 N.3   420  VAL420     -0.1245
    122  CA       -43.1070   12.9860   40.0260 C.3   420  VAL420      0.1561
    123  C        -43.3070   11.5070   40.3380 C.2   420  VAL420      0.2260
    124  O        -42.6110   10.6670   39.7720 O.2   420  VAL420     -0.2867
    125  CB       -42.5950   13.8060   41.2520 C.3   420  VAL420      0.0252
    126  CG1      -41.5560   13.0320   42.0510 C.3   420  VAL420      0.0019
    127  CG2      -42.0010   15.1330   40.8150 C.3   420  VAL420      0.0019
    128  N        -41.4790    7.7570   39.0120 N.3   424  LEU424     -0.1245
    129  CA       -40.9100    6.8200   39.9860 C.3   424  LEU424      0.1561
    130  C        -41.6630    5.4900   39.9020 C.2   424  LEU424      0.2260
    131  O        -41.1090    4.4490   40.2380 O.2   424  LEU424     -0.2867
    132  CB       -40.9840    7.4020   41.4050 C.3   424  LEU424      0.0270
    133  CG       -40.5770    8.8710   41.5480 C.3   424  LEU424      0.0019
    134  CD1      -41.2430    9.4820   42.7000 C.3   424  LEU424      0.0001
    135  CD2      -39.0820    9.0450   41.6910 C.3   424  LEU424      0.0001
    136  N        -39.8440    3.5730   37.4830 N.3   427  VAL427     -0.1245
    137  CA       -38.6140    3.0320   38.0660 C.3   427  VAL427      0.1561
    138  C        -38.9970    1.6490   38.6040 C.2   427  VAL427      0.2260
    139  O        -38.2990    0.6770   38.3390 O.2   427  VAL427     -0.2867
    140  CB       -37.9960    3.9570   39.1560 C.3   427  VAL427      0.0252
    141  CG1      -36.7570    3.3320   39.7960 C.3   427  VAL427      0.0019
    142  CG2      -37.6550    5.3240   38.5830 C.3   427  VAL427      0.0019
    143  N        -29.5050    0.6160   39.1420 N.3   440  MET440     -0.1245
    144  CA       -29.1070    1.9680   39.6360 C.3   440  MET440      0.1570
    145  C        -28.9550    3.0640   38.5350 C.2   440  MET440      0.2261
    146  O        -29.5480    4.1350   38.7080 O.2   440  MET440     -0.2867
    147  CB       -27.8450    1.9360   40.5130 C.3   440  MET440      0.0387
    148  CG       -27.8740    2.9250   41.6790 C.3   440  MET440      0.0595
    149  SD       -26.2920    3.2230   42.5530 S.3   440  MET440     -0.1393
    150  CE       -25.6720    1.5840   42.7620 C.3   440  MET440      0.0692
    151  N        -32.3630    3.8900   37.3400 N.3   443  ALA443     -0.1231
    152  CA       -33.0840    4.6900   38.3240 C.3   443  ALA443      0.1694
    153  C        -32.8380    6.1980   38.2230 C.2   443  ALA443      0.2591
    154  O        -33.8080    6.9630   38.2060 O.2   443  ALA443     -0.2718
    155  CB       -32.7870    4.1870   39.7260 C.3   443  ALA443      0.0304
    156  N        -31.5630    6.6320   38.1390 N.am  444  GLU444     -0.1979
    157  CA       -31.2310    8.0600   38.0150 C.3   444  GLU444      0.1602
    158  C        -31.8290    8.7230   36.7460 C.2   444  GLU444      0.2287
    159  O        -32.1210    9.9070   36.7730 O.2   444  GLU444     -0.2864
    160  CB       -29.7060    8.3220   38.1170 C.3   444  GLU444      0.0415
    161  CG       -28.9270    7.9340   36.8680 C.3   444  GLU444      0.1163
    162  CD       -27.4910    8.4000   36.7100 C.2   444  GLU444      0.3649
    163  OE1      -27.1160    9.4440   37.2910 O.co2 444  GLU444     -0.2457
    164  OE2      -26.7460    7.7260   35.9620 O.co2 444  GLU444     -0.2457
    165  N        -35.1520    9.8680   37.8770 N.3   447  LEU447     -0.1245
    166  CA       -35.0190   10.7270   39.0510 C.3   447  LEU447      0.1561
    167  C        -34.4000   12.0720   38.7020 C.2   447  LEU447      0.2260
    168  O        -35.0090   13.0990   38.9880 O.2   447  LEU447     -0.2867
    169  CB       -34.2540   10.0370   40.1760 C.3   447  LEU447      0.0270
    170  CG       -35.0870    9.5420   41.3610 C.3   447  LEU447      0.0019
    171  CD1      -34.1880    8.8590   42.3790 C.3   447  LEU447      0.0001
    172  CD2      -35.8580   10.6960   42.0450 C.3   447  LEU447      0.0001
    173  N        -36.6600   15.3460   39.1890 N.3   451  LEU451     -0.1245
    174  CA       -36.2660   16.3070   40.2200 C.3   451  LEU451      0.1561
    175  C        -35.9150   17.6000   39.5260 C.2   451  LEU451      0.2260
    176  O        -36.3020   18.6490   40.0190 O.2   451  LEU451     -0.2867
    177  CB       -35.0970   15.8300   41.1130 C.3   451  LEU451      0.0270
    178  CG       -35.3080   14.6010   42.0200 C.3   451  LEU451      0.0019
    179  CD1      -33.9640   14.1050   42.5900 C.3   451  LEU451      0.0001
    180  CD2      -36.3530   14.8680   43.1300 C.3   451  LEU451      0.0001
    181  N        -39.1510   19.3320   38.2720 N.3   454  LEU454     -0.1245
    182  CA       -39.7190   19.9420   39.4730 C.3   454  LEU454      0.1561
    183  C        -38.9620   21.2300   39.8300 C.2   454  LEU454      0.2260
    184  O        -39.5810   22.1920   40.2990 O.2   454  LEU454     -0.2867
    185  CB       -39.6140   18.9220   40.6090 C.3   454  LEU454      0.0270
    186  CG       -40.2130   19.2470   41.9630 C.3   454  LEU454      0.0019
    187  CD1      -40.6560   17.9720   42.6530 C.3   454  LEU454      0.0001
    188  CD2      -39.2070   19.9640   42.8710 C.3   454  LEU454      0.0001
    189  N        -30.6860   14.5030   45.0530 N.3   479  ARG479     -0.1245
    190  CA       -31.5070   13.3590   45.4970 C.3   479  ARG479      0.1563
    191  C        -31.4930   13.2160   47.0430 C.2   479  ARG479      0.2260
    192  O        -32.5890   13.1660   47.6120 O.2   479  ARG479     -0.2867
    193  CB       -31.0970   12.0460   44.7790 C.3   479  ARG479      0.0307
    194  CG       -32.1620   10.9440   44.7900 C.3   479  ARG479      0.0489
    195  CD       -32.2210   10.1480   46.0940 C.3   479  ARG479      0.2205
    196  NE       -31.3500    8.9730   46.0840 N.pl3 479  ARG479     -0.0865
    197  CZ       -30.2060    8.8730   46.7510 C.cat 479  ARG479      0.5346
    198  NH1      -29.7710    9.8810   47.4930 N.pl3 479  ARG479      0.1354
    199  NH2      -29.4880    7.7630   46.6820 N.pl3 479  ARG479      0.1354
    200  N        -33.3750   16.0570   48.7170 N.3   482  PHE482     -0.1227
    201  CA       -34.8310   15.9030   48.6790 C.3   482  PHE482      0.1736
    202  C        -35.2810   14.7720   49.6130 C.2   482  PHE482      0.2596
    203  O        -36.3870   14.8220   50.1610 O.2   482  PHE482     -0.2718
    204  CB       -35.3240   15.6350   47.2630 C.3   482  PHE482      0.0547
    205  CG       -35.6320   16.8640   46.4620 C.ar  482  PHE482     -0.0202
    206  CD1      -36.8970   17.4250   46.4840 C.ar  482  PHE482     -0.0042
    207  CD2      -34.6740   17.4270   45.6320 C.ar  482  PHE482     -0.0042
    208  CE1      -37.1950   18.5520   45.7110 C.ar  482  PHE482     -0.0003
    209  CE2      -34.9700   18.5590   44.8650 C.ar  482  PHE482     -0.0003
    210  CZ       -36.2310   19.1190   44.9150 C.ar  482  PHE482     -0.0000
    211  N        -34.4270   13.7560   49.7870 N.am  483  SER483     -0.1952
    212  CA       -34.7340   12.6300   50.6500 C.3   483  SER483      0.1924
    213  C        -34.6390   13.0580   52.1150 C.2   483  SER483      0.2314
    214  O        -35.4880   12.6650   52.9160 O.2   483  SER483     -0.2863
    215  CB       -33.8100   11.4510   50.3530 C.3   483  SER483      0.2116
    216  OG       -33.7720   11.1290   48.9690 O.3   483  SER483     -0.2180
@<TRIPOS>BOND
     1   164   162   ar
     2   162   161    1
     3   162   163   ar
     4   158   159    2
     5   158   157    1
     6   161   160    1
     7   151   152    1
     8   136   137    1
     9   165   166    1
    10   157   160    1
    11   157   156    1
    12   137   138    1
    13   137   140    1
    14   156   153   am
    15   154   153    2
    16   153   152    1
    17   181   182    1
    18   152   155    1
    19   139   138    2
    20     3     2    1
    21     3     4    2
    22   145   146    2
    23   145   144    1
    24   142   140    1
    25     2     1    1
    26     2     5    1
    27   167   168    2
    28   167   166    1
    29     7     8    1
    30   128   129    1
    31   166   169    1
    32   143   144    1
    33   140   141    1
    34   173   174    1
    35    13    11    1
    36   121   122    1
    37     5     6    1
    38   182   183    1
    39   182   185    1
    40   175   176    2
    41   175   174    1
    42   144   147    1
    43   124   123    2
    44   183   184    2
    45   130   129    1
    46   130   131    2
    47   129   132    1
    48     8    11    1
    49     8     9    1
    50   122   123    1
    51   122   125    1
    52   169   170    1
    53   174   177    1
    54    11    12    1
    55   147   148    1
    56   185   186    1
    57   127   125    1
    58   177   178    1
    59     9    14   am
    60     9    10    2
    61   125   126    1
    62   170   172    1
    63   170   171    1
    64   132   133    1
    65    14    15    1
    66   133   135    1
    67   133   134    1
    68   148   149    1
    69   113   114    1
    70   186   187    1
    71   186   188    1
    72   178   179    1
    73   178   180    1
    74   116   115    2
    75   115   114    1
    76    16    15    1
    77    16    17    2
    78    15    18    1
    79   149   150    1
    80    18    19    1
    81   114   117    1
    82    54    52    1
    83    53    55    1
    84    53    52    1
    85    22    23    1
    86    73    71   ar
    87    73    74   ar
    88    19    21    1
    89    19    20    1
    90    71    69   ar
    91    52    49    1
    92   117   118    1
    93    74    72   ar
    94    32    30    1
    95    69    68    1
    96    69    70   ar
    97    68    65    1
    98    23    24    1
    99    23    26    1
   100   193   194    1
   101   193   190    1
   102   194   195    1
   103   209   210   ar
   104   209   207   ar
   105    81    80    1
   106   210   208   ar
   107   118   120    1
   108   118   119    1
   109    49    50    1
   110    49    48    1
   111    30    31    1
   112    30    29    2
   113   189   190    1
   114    24    25    2
   115    27    26    1
   116    27    28    1
   117    66    65    1
   118    66    67    2
   119    64    65    1
   120    51    50    2
   121    59    58    2
   122    72    70   ar
   123    29    28    1
   124   190   191    1
   125    58    57    1
   126   207   205   ar
   127    37    38    1
   128    37    34    1
   129   208   206   ar
   130    60    57    1
   131    60    61    1
   132    38    39    1
   133   196   195    1
   134   196   197    2
   135    80    79    1
   136    80    82    1
   137    48    42   am
   138    36    35    2
   139    79    76    1
   140   205   206   ar
   141   205   204    1
   142    57    56    1
   143    35    34    1
   144   199   197    1
   145   197   198    1
   146    61    63   am
   147    61    62    2
   148    34    33    1
   149   191   192    2
   150    42    43    2
   151    42    41    1
   152   204   201    1
   153    39    33    1
   154    77    76    1
   155    77    78    2
   156    76    75    1
   157    44    41    1
   158    44    45    1
   159    98    99    1
   160    98    95    1
   161    41    40    1
   162    47    45    1
   163   112   110    1
   164    99   101   ar
   165    99   100   ar
   166   101   103   ar
   167   201   200    1
   168   201   202    1
   169   100   102   ar
   170   109   108    2
   171   103   104   ar
   172   102   104   ar
   173   216   215    1
   174    45    46    1
   175   104   105    1
   176   110   111    1
   177   110   107    1
   178   202   211   am
   179   202   203    2
   180    95    96    1
   181    95    94    1
   182    96    97    2
   183   211   212    1
   184   108   107    1
   185    94    85   am
   186   215   212    1
   187    93    91    1
   188   107   106    1
   189   212   213    1
   190    83    84    1
   191    91    90    2
   192    91    92    1
   193    85    84    1
   194    85    86    2
   195    87    84    1
   196    87    88    1
   197    90    89    1
   198   213   214    2
   199    88    89    1
