@<TRIPOS>MOLECULE
tmp/6ezsB00.pdb
 156 153 0 0 0
SMALL
GASTEIGER

@<TRIPOS>ATOM
      1  N         18.5160   -1.1790   -3.7960 N.3   271  ARG271     -0.1245
      2  CA        18.6670   -2.6490   -3.7150 C.3   271  ARG271      0.1563
      3  C         17.6880   -3.3630   -4.6260 C.2   271  ARG271      0.2260
      4  O         18.0320   -4.3680   -5.2420 O.2   271  ARG271     -0.2867
      5  CB        18.4850   -3.1500   -2.2900 C.3   271  ARG271      0.0307
      6  CG        19.7280   -3.0940   -1.4290 C.3   271  ARG271      0.0489
      7  CD        20.5090   -1.7940   -1.5550 C.3   271  ARG271      0.2205
      8  NE        21.6980   -1.8110   -0.6980 N.pl3 271  ARG271     -0.0865
      9  CZ        21.7530   -1.4260    0.5710 C.cat 271  ARG271      0.5346
     10  NH1       20.6760   -0.9500    1.1870 N.pl3 271  ARG271      0.1354
     11  NH2       22.9120   -1.5160    1.2270 N.pl3 271  ARG271      0.1354
     12  N         16.0890    6.7990   -0.7270 N.3   297  HIS297     -0.1241
     13  CA        17.4220    6.2280   -0.7970 C.3   297  HIS297      0.1621
     14  C         17.6340    5.7690   -2.2420 C.2   297  HIS297      0.2264
     15  O         17.2870    4.6390   -2.6230 O.2   297  HIS297     -0.2867
     16  CB        17.5650    5.0900    0.1990 C.3   297  HIS297      0.0745
     17  CG        18.9320    4.4990    0.2480 C.ar  297  HIS297      0.0817
     18  ND1       19.9560    5.0640    0.9730 N.ar  297  HIS297     -0.2268
     19  CD2       19.4530    3.3970   -0.3320 C.ar  297  HIS297      0.1154
     20  CE1       21.0530    4.3410    0.8400 C.ar  297  HIS297      0.1986
     21  NE2       20.7780    3.3290    0.0410 N.ar  297  HIS297     -0.2212
     22  N         23.0260    3.2210   -4.2560 N.3   300  ASP300     -0.1239
     23  CA        23.8120    2.3240   -3.4150 C.3   300  ASP300      0.1674
     24  C         24.7660    1.5330   -4.3130 C.2   300  ASP300      0.2266
     25  O         25.0140    1.9340   -5.4580 O.2   300  ASP300     -0.2867
     26  CB        22.8880    1.4260   -2.5650 C.3   300  ASP300      0.1410
     27  CG        23.4000    1.2330   -1.1250 C.2   300  ASP300      0.3668
     28  OD1       24.5440    0.7270   -0.9510 O.co2 300  ASP300     -0.2456
     29  OD2       22.6600    1.5860   -0.1750 O.co2 300  ASP300     -0.2456
     30  N         29.5870    3.1120   -0.5040 N.3   370  HIS370     -0.1241
     31  CA        28.3470    2.6430   -1.1310 C.3   370  HIS370      0.1621
     32  C         28.1650    3.1890   -2.5700 C.2   370  HIS370      0.2264
     33  O         27.0540    3.5120   -2.9960 O.2   370  HIS370     -0.2867
     34  CB        27.1280    2.9720   -0.2470 C.3   370  HIS370      0.0745
     35  CG        27.0150    2.1120    0.9690 C.ar  370  HIS370      0.0817
     36  ND1       26.2790    0.9450    0.9880 N.ar  370  HIS370     -0.2268
     37  CD2       27.5390    2.2450    2.2090 C.ar  370  HIS370      0.1154
     38  CE1       26.3520    0.3990    2.1890 C.ar  370  HIS370      0.1986
     39  NE2       27.1140    1.1670    2.9480 N.ar  370  HIS370     -0.2212
     40  N         29.2940   -5.0400    3.0980 N.3   395  GLN395     -0.1245
     41  CA        28.4380   -5.7680    2.1520 C.3   395  GLN395      0.1566
     42  C         29.2310   -6.6660    1.1810 C.2   395  GLN395      0.2260
     43  O         28.6870   -7.0840    0.1750 O.2   395  GLN395     -0.2867
     44  CB        27.5350   -4.7880    1.3720 C.3   395  GLN395      0.0367
     45  CG        26.3900   -4.1720    2.1860 C.3   395  GLN395      0.0905
     46  CD        26.8220   -3.1100    3.2140 C.2   395  GLN395      0.2608
     47  OE1       27.8690   -2.4520    3.0740 O.2   395  GLN395     -0.2717
     48  NE2       26.0020   -2.9390    4.2670 N.am  395  GLN395     -0.0878
     49  N         28.6780    7.2030    5.1450 N.3   434  ASP434     -0.1239
     50  CA        28.9310    5.9550    5.8500 C.3   434  ASP434      0.1674
     51  C         30.4240    5.7660    6.0620 C.2   434  ASP434      0.2266
     52  O         31.2300    6.2840    5.2950 O.2   434  ASP434     -0.2867
     53  CB        28.4370    4.7410    5.0500 C.3   434  ASP434      0.1410
     54  CG        26.9470    4.7590    4.7870 C.2   434  ASP434      0.3668
     55  OD1       26.5320    5.4400    3.8190 O.co2 434  ASP434     -0.2456
     56  OD2       26.2000    4.0720    5.5300 O.co2 434  ASP434     -0.2456
     57  N         24.6760   10.1620    7.6470 N.3   484  TRP484     -0.1241
     58  CA        24.5560    9.0500    8.5830 C.3   484  TRP484      0.1605
     59  C         25.5230    9.2640    9.7320 C.2   484  TRP484      0.2264
     60  O         26.4600   10.0550    9.6480 O.2   484  TRP484     -0.2867
     61  CB        24.8640    7.7150    7.9080 C.3   484  TRP484      0.0550
     62  CG        23.8840    7.2840    6.8680 C.ar  484  TRP484      0.0003
     63  CD1       24.1580    6.9870    5.5620 C.ar  484  TRP484      0.0946
     64  CD2       22.4810    7.0830    7.0390 C.ar  484  TRP484      0.0152
     65  NE1       23.0100    6.6350    4.9050 N.ar  484  TRP484     -0.2442
     66  CE2       21.9630    6.6830    5.7870 C.ar  484  TRP484      0.0810
     67  CE3       21.6040    7.1990    8.1310 C.ar  484  TRP484      0.0012
     68  CZ2       20.6150    6.3970    5.5910 C.ar  484  TRP484      0.0191
     69  CZ3       20.2370    6.9330    7.9320 C.ar  484  TRP484      0.0001
     70  CH2       19.7660    6.5300    6.6680 C.ar  484  TRP484      0.0015
     71  N         21.4620    5.8430   14.0950 N.3   502  TRP502     -0.1241
     72  CA        20.8940    4.4910   14.2830 C.3   502  TRP502      0.1605
     73  C         21.4840    3.6430   15.4130 C.2   502  TRP502      0.2264
     74  O         20.9330    2.5880   15.7030 O.2   502  TRP502     -0.2867
     75  CB        20.9560    3.6810   12.9840 C.3   502  TRP502      0.0550
     76  CG        22.2950    3.1350   12.6940 C.ar  502  TRP502      0.0003
     77  CD1       22.9480    2.1230   13.3550 C.ar  502  TRP502      0.0946
     78  CD2       23.1710    3.5670   11.6600 C.ar  502  TRP502      0.0152
     79  NE1       24.1870    1.9220   12.7990 N.ar  502  TRP502     -0.2442
     80  CE2       24.3450    2.7900   11.7520 C.ar  502  TRP502      0.0810
     81  CE3       23.0830    4.5380   10.6720 C.ar  502  TRP502      0.0012
     82  CZ2       25.4040    2.9510   10.8900 C.ar  502  TRP502      0.0191
     83  CZ3       24.1310    4.6950    9.8210 C.ar  502  TRP502      0.0001
     84  CH2       25.2800    3.9050    9.9260 C.ar  502  TRP502      0.0015
     85  N         13.9010   -0.4800   12.0060 N.3   527  TYR527     -0.1241
     86  CA        14.2620   -1.1330   10.7500 C.3   527  TYR527      0.1605
     87  C         13.1810   -2.1250   10.3830 C.2   527  TYR527      0.2264
     88  O         13.0980   -3.2190   10.9370 O.2   527  TYR527     -0.2867
     89  CB        15.6340   -1.7950   10.8580 C.3   527  TYR527      0.0534
     90  CG        16.8370   -0.8590   10.6500 C.ar  527  TYR527     -0.0201
     91  CD1       16.7280    0.5260   10.7780 C.ar  527  TYR527     -0.0009
     92  CD2       18.0950   -1.3820   10.3540 C.ar  527  TYR527     -0.0009
     93  CE1       17.8140    1.3430   10.5990 C.ar  527  TYR527      0.0417
     94  CE2       19.1840   -0.5710   10.1910 C.ar  527  TYR527      0.0417
     95  CZ        19.0450    0.7930   10.3100 C.ar  527  TYR527      0.1957
     96  OH        20.1400    1.6280   10.1200 O.3   527  TYR527     -0.2866
     97  N         12.8060   -3.8210    7.7490 N.3   529  ASP529     -0.1225
     98  CA        13.3100   -5.0190    7.0770 C.3   529  ASP529      0.1805
     99  C         13.5200   -6.1980    8.0270 C.2   529  ASP529      0.2597
    100  O         13.6820   -7.3530    7.5820 O.2   529  ASP529     -0.2718
    101  CB        14.5770   -4.7300    6.2410 C.3   529  ASP529      0.1424
    102  CG        15.7190   -4.1540    7.0540 C.2   529  ASP529      0.3668
    103  OD1       15.4610   -3.2880    7.9190 O.co2 529  ASP529     -0.2456
    104  OD2       16.8770   -4.5460    6.8000 O.co2 529  ASP529     -0.2456
    105  N         13.5100   -5.9090    9.3240 N.am  530  MET530     -0.1979
    106  CA        13.6140   -6.9410   10.3330 C.3   530  MET530      0.1605
    107  C         12.3360   -7.7910   10.4040 C.2   530  MET530      0.2287
    108  O         11.2260   -7.2600   10.2900 O.2   530  MET530     -0.2864
    109  CB        13.8820   -6.3060   11.6990 C.3   530  MET530      0.0413
    110  CG        15.2000   -5.5570   11.7870 C.3   530  MET530      0.0598
    111  SD        16.5990   -6.6790   11.6050 S.3   530  MET530     -0.1393
    112  CE        17.6260   -5.6700   10.5370 C.3   530  MET530      0.0692
    113  N         15.0780  -10.0450    7.7460 N.3   541  VAL541     -0.1245
    114  CA        16.3850  -10.2650    8.3390 C.3   541  VAL541      0.1561
    115  C         16.2830  -10.0880    9.8660 C.2   541  VAL541      0.2260
    116  O         15.2630   -9.6220   10.4060 O.2   541  VAL541     -0.2867
    117  CB        17.4640   -9.3580    7.6800 C.3   541  VAL541      0.0252
    118  CG1       17.3330   -9.4000    6.1570 C.3   541  VAL541      0.0019
    119  CG2       17.3570   -7.9100    8.1350 C.3   541  VAL541      0.0019
    120  N         19.5780   -9.3970   11.9510 N.3   543  TRP543     -0.1241
    121  CA        20.8940   -9.0250   12.5390 C.3   543  TRP543      0.1605
    122  C         20.7460   -8.0560   13.7170 C.2   543  TRP543      0.2264
    123  O         21.4350   -8.1900   14.7290 O.2   543  TRP543     -0.2867
    124  CB        21.8850   -8.4930   11.4770 C.3   543  TRP543      0.0550
    125  CG        21.6330   -7.0990   10.9630 C.ar  543  TRP543      0.0003
    126  CD1       20.9490   -6.7490    9.8230 C.ar  543  TRP543      0.0946
    127  CD2       22.0610   -5.8670   11.5670 C.ar  543  TRP543      0.0152
    128  NE1       20.9240   -5.3810    9.6920 N.ar  543  TRP543     -0.2442
    129  CE2       21.5930   -4.8140   10.7460 C.ar  543  TRP543      0.0810
    130  CE3       22.7780   -5.5510   12.7330 C.ar  543  TRP543      0.0012
    131  CZ2       21.8280   -3.4640   11.0500 C.ar  543  TRP543      0.0191
    132  CZ3       23.0190   -4.2110   13.0350 C.ar  543  TRP543      0.0001
    133  CH2       22.5440   -3.1830   12.1970 C.ar  543  TRP543      0.0015
    134  N         14.9170   -1.2320    4.2770 N.3   579  TRP579     -0.1241
    135  CA        16.0460   -1.6500    3.4550 C.3   579  TRP579      0.1605
    136  C         15.5880   -2.8560    2.6200 C.2   579  TRP579      0.2264
    137  O         14.9430   -3.7770    3.1390 O.2   579  TRP579     -0.2867
    138  CB        17.2370   -1.9950    4.3500 C.3   579  TRP579      0.0550
    139  CG        17.6060   -0.8710    5.2500 C.ar  579  TRP579      0.0003
    140  CD1       17.3180   -0.7430    6.5820 C.ar  579  TRP579      0.0946
    141  CD2       18.3140    0.3210    4.8840 C.ar  579  TRP579      0.0152
    142  NE1       17.8230    0.4360    7.0700 N.ar  579  TRP579     -0.2442
    143  CE2       18.4250    1.1160    6.0490 C.ar  579  TRP579      0.0810
    144  CE3       18.8720    0.7910    3.6800 C.ar  579  TRP579      0.0012
    145  CZ2       19.0690    2.3430    6.0490 C.ar  579  TRP579      0.0191
    146  CZ3       19.5170    2.0020    3.6820 C.ar  579  TRP579      0.0001
    147  CH2       19.6160    2.7700    4.8580 C.ar  579  TRP579      0.0015
    148  N         17.0520   -5.3070    0.4640 N.3   581  GLU581     -0.1245
    149  CA        17.8500   -6.4970    0.0680 C.3   581  GLU581      0.1567
    150  C         17.0120   -7.7180   -0.3250 C.2   581  GLU581      0.2260
    151  O         17.3650   -8.4380   -1.2520 O.2   581  GLU581     -0.2867
    152  CB        18.8260   -6.9320    1.1850 C.3   581  GLU581      0.0388
    153  CG        20.1220   -6.1400    1.2620 C.3   581  GLU581      0.1160
    154  CD        20.0870   -5.0190    2.2710 C.2   581  GLU581      0.3649
    155  OE1       18.9870   -4.4750    2.5120 O.co2 581  GLU581     -0.2457
    156  OE2       21.1570   -4.6780    2.8270 O.co2 581  GLU581     -0.2457
@<TRIPOS>BOND
     1    25    24    2
     2     4     3    2
     3     3     2    1
     4    24    23    1
     5    22    23    1
     6     1     2    1
     7     2     5    1
     8    23    26    1
     9    33    32    2
    10    15    14    2
    11    32    31    1
    12    26    27    1
    13     5     6    1
    14    14    13    1
    15     7     6    1
    16     7     8    1
    17   151   150    2
    18    31    30    1
    19    31    34    1
    20    27    28   ar
    21    27    29   ar
    22    13    12    1
    23    13    16    1
    24     8     9    2
    25    19    21   ar
    26    19    17   ar
    27   150   149    1
    28    34    35    1
    29    21    20   ar
    30   149   148    1
    31   149   152    1
    32    43    42    2
    33    16    17    1
    34    17    18   ar
    35     9    10    1
    36     9    11    1
    37    20    18   ar
    38    35    36   ar
    39    35    37   ar
    40    36    38   ar
    41    42    41    1
    42   152   153    1
    43   153   154    1
    44    44    41    1
    45    44    45    1
    46    41    40    1
    47    45    46    1
    48    38    39   ar
    49    37    39   ar
    50   154   155   ar
    51   154   156   ar
    52   136   137    2
    53   136   135    1
    54    47    46    2
    55    46    48   am
    56   135   134    1
    57   135   138    1
    58   144   146   ar
    59   144   141   ar
    60   146   147   ar
    61    55    54   ar
    62   138   139    1
    63    54    53    1
    64    54    56   ar
    65   147   145   ar
    66   141   139   ar
    67   141   143   ar
    68    65    63   ar
    69    65    66   ar
    70    53    50    1
    71    49    50    1
    72   139   140   ar
    73    52    51    2
    74    63    62   ar
    75    68    66   ar
    76    68    70   ar
    77    66    64   ar
    78    50    51    1
    79   145   143   ar
    80   143   142   ar
    81   118   117    1
    82   101   102    1
    83   101    98    1
    84   140   142   ar
    85    70    69   ar
    86   104   102   ar
    87    62    64   ar
    88    62    61    1
    89    64    67   ar
    90   102   103   ar
    91    98    97    1
    92    98    99    1
    93   100    99    2
    94    57    58    1
    95   117   119    1
    96   117   114    1
    97   113   114    1
    98    61    58    1
    99    69    67   ar
   100    99   105   am
   101   114   115    1
   102    58    59    1
   103   105   106    1
   104    60    59    2
   105   128   126   ar
   106   128   129   ar
   107    83    84   ar
   108    83    81   ar
   109   126   125   ar
   110   115   116    2
   111    84    82   ar
   112    96    95    1
   113    94    95   ar
   114    94    92   ar
   115   108   107    2
   116    95    93   ar
   117   106   107    1
   118   106   109    1
   119    92    90   ar
   120    87    86    1
   121    87    88    2
   122   112   111    1
   123    93    91   ar
   124    90    91   ar
   125    90    89    1
   126    81    78   ar
   127   129   131   ar
   128   129   127   ar
   129    86    89    1
   130    86    85    1
   131    82    80   ar
   132   125   124    1
   133   125   127   ar
   134   131   133   ar
   135   124   121    1
   136   127   130   ar
   137   111   110    1
   138    78    80   ar
   139    78    76   ar
   140   109   110    1
   141    80    79   ar
   142   120   121    1
   143   133   132   ar
   144   121   122    1
   145    76    75    1
   146    76    77   ar
   147   130   132   ar
   148    79    77   ar
   149    75    72    1
   150   122   123    2
   151    71    72    1
   152    72    73    1
   153    73    74    2
