@<TRIPOS>MOLECULE
tmp/6eztB00.pdb
 95 90 0 0 0
SMALL
GASTEIGER

@<TRIPOS>ATOM
      1  N         14.7040  -25.9890    7.1630 N.3   204  ASP204     -0.1225
      2  CA        13.6120  -25.8200    8.1590 C.3   204  ASP204      0.1805
      3  C         12.4490  -24.9940    7.6190 C.2   204  ASP204      0.2598
      4  O         12.5460  -24.4070    6.5450 O.2   204  ASP204     -0.2718
      5  CB        14.1190  -25.0960    9.4210 C.3   204  ASP204      0.1424
      6  CG        15.2050  -25.8590   10.1650 C.2   204  ASP204      0.3668
      7  OD1       15.1960  -27.1140   10.1530 O.co2 204  ASP204     -0.2456
      8  OD2       16.0660  -25.1830   10.7830 O.co2 204  ASP204     -0.2456
      9  N         11.3610  -24.9170    8.3830 N.am  205  GLU205     -0.1965
     10  CA        10.1990  -24.1090    7.9930 C.3   205  GLU205      0.1733
     11  C         10.6080  -22.6490    7.7160 C.2   205  GLU205      0.2616
     12  O         11.3230  -22.0350    8.5080 O.2   205  GLU205     -0.2715
     13  CB         9.1050  -24.2070    9.0640 C.3   205  GLU205      0.0429
     14  CG         7.8270  -23.4330    8.7720 C.3   205  GLU205      0.1163
     15  CD         7.0710  -23.9310    7.5530 C.2   205  GLU205      0.3649
     16  OE1        7.2250  -25.1080    7.1600 O.co2 205  GLU205     -0.2457
     17  OE2        6.3010  -23.1370    6.9790 O.co2 205  GLU205     -0.2457
     18  N         10.2110  -22.1270    6.5560 N.am  206  GLY206     -0.1955
     19  CA        10.5940  -20.7750    6.1390 C.3   206  GLY206      0.1869
     20  C         12.0080  -20.5870    5.5990 C.2   206  GLY206      0.2309
     21  O         12.3300  -19.5120    5.0800 O.2   206  GLY206     -0.2863
     22  N          6.3170  -21.9690    2.7510 N.3   225  SER225     -0.1217
     23  CA         6.7700  -20.6580    3.2450 C.3   225  SER225      0.1889
     24  C          8.1590  -20.2720    2.7280 C.2   225  SER225      0.2288
     25  O          8.3600  -19.1410    2.2820 O.2   225  SER225     -0.2866
     26  CB         6.7610  -20.6120    4.7840 C.3   225  SER225      0.2089
     27  OG         7.6280  -21.5830    5.3490 O.3   225  SER225     -0.2183
     28  N          9.2200  -16.9510    0.5770 N.3   229  HIS229     -0.1241
     29  CA        10.2190  -15.9990    1.0610 C.3   229  HIS229      0.1621
     30  C         11.2990  -15.7390    0.0290 C.2   229  HIS229      0.2264
     31  O         11.7030  -14.5890   -0.1680 O.2   229  HIS229     -0.2867
     32  CB        10.8540  -16.4940    2.3500 C.3   229  HIS229      0.0745
     33  CG         9.8810  -16.6630    3.4680 C.ar  229  HIS229      0.0817
     34  ND1       10.0990  -17.5360    4.5090 N.ar  229  HIS229     -0.2268
     35  CD2        8.6690  -16.1040    3.6910 C.ar  229  HIS229      0.1154
     36  CE1        9.0780  -17.4870    5.3410 C.ar  229  HIS229      0.1986
     37  NE2        8.1940  -16.6270    4.8690 N.ar  229  HIS229     -0.2212
     38  N         16.8360  -17.7330    6.7190 N.3   257  SER257     -0.1203
     39  CA        15.8980  -18.3990    7.6040 C.3   257  SER257      0.2005
     40  C         15.3610  -17.3910    8.6250 C.2   257  SER257      0.2460
     41  O         16.0870  -16.5010    9.0410 O.2   257  SER257     -0.2732
     42  CB        16.5950  -19.5630    8.3080 C.3   257  SER257      0.2103
     43  OG        15.9940  -19.8440    9.5580 O.3   257  SER257     -0.2182
     44  N         14.0940  -17.5380    9.0370 N.am  258  PRO258     -0.2728
     45  CA        13.4600  -16.5840    9.9450 C.3   258  PRO258      0.1401
     46  C         13.9570  -16.6570   11.3930 C.2   258  PRO258      0.2269
     47  O         14.0420  -17.7370   11.9680 O.2   258  PRO258     -0.2865
     48  CB        11.9800  -16.9840    9.8820 C.3   258  PRO258      0.0296
     49  CG        12.0100  -18.4230    9.5250 C.3   258  PRO258      0.0237
     50  CD        13.1460  -18.5670    8.5790 C.3   258  PRO258      0.0939
     51  N         12.2570  -15.3880   13.9900 N.3   260  PHE260     -0.1227
     52  CA        11.0670  -15.7710   14.7700 C.3   260  PHE260      0.1736
     53  C         10.0250  -16.4690   13.8920 C.2   260  PHE260      0.2595
     54  O          9.9660  -16.2340   12.6830 O.2   260  PHE260     -0.2718
     55  CB        10.4370  -14.5480   15.4330 C.3   260  PHE260      0.0547
     56  CG        11.3110  -13.8920   16.4640 C.ar  260  PHE260     -0.0202
     57  CD1       11.3810  -14.3980   17.7620 C.ar  260  PHE260     -0.0042
     58  CD2       12.0540  -12.7560   16.1500 C.ar  260  PHE260     -0.0042
     59  CE1       12.1810  -13.7910   18.7230 C.ar  260  PHE260     -0.0003
     60  CE2       12.8540  -12.1440   17.1060 C.ar  260  PHE260     -0.0003
     61  CZ        12.9160  -12.6610   18.3950 C.ar  260  PHE260     -0.0000
     62  N          9.2080  -17.3210   14.5100 N.am  261  ARG261     -0.1980
     63  CA         8.1870  -18.0860   13.7800 C.3   261  ARG261      0.1597
     64  C          7.0010  -17.2020   13.4080 C.2   261  ARG261      0.2287
     65  O          6.5300  -17.2390   12.2710 O.2   261  ARG261     -0.2864
     66  CB         7.6940  -19.2920   14.5920 C.3   261  ARG261      0.0334
     67  CG         8.7280  -20.3840   14.8610 C.3   261  ARG261      0.0492
     68  CD         8.2660  -21.3080   15.9920 C.3   261  ARG261      0.2205
     69  NE         8.6210  -20.8060   17.3330 N.pl3 261  ARG261     -0.0865
     70  CZ         7.9550  -21.0540   18.4690 C.cat 261  ARG261      0.5346
     71  NH1        6.8460  -21.7910   18.4890 N.pl3 261  ARG261      0.1354
     72  NH2        8.3980  -20.5400   19.6120 N.pl3 261  ARG261      0.1354
     73  N          5.5230  -13.6460   12.6350 N.3   263  ARG263     -0.1245
     74  CA         5.9170  -12.3270   12.1300 C.3   263  ARG263      0.1563
     75  C          4.6640  -11.6240   11.6150 C.2   263  ARG263      0.2260
     76  O          4.2430  -11.8240   10.4710 O.2   263  ARG263     -0.2867
     77  CB         6.9790  -12.4660   11.0430 C.3   263  ARG263      0.0307
     78  CG         8.2040  -13.2530   11.4960 C.3   263  ARG263      0.0489
     79  CD         9.2780  -13.3310   10.4110 C.3   263  ARG263      0.2205
     80  NE         8.7750  -13.9890    9.2010 N.pl3 263  ARG263     -0.0865
     81  CZ         8.5390  -15.2920    9.0890 C.cat 263  ARG263      0.5346
     82  NH1        8.7670  -16.1090   10.1150 N.pl3 263  ARG263      0.1354
     83  NH2        8.0680  -15.7820    7.9480 N.pl3 263  ARG263      0.1354
     84  N          4.1960  -13.3260    7.9130 N.3   292  ASN292     -0.1240
     85  CA         3.3160  -14.4940    7.6920 C.3   292  ASN292      0.1653
     86  C          1.9690  -14.4760    8.4360 C.2   292  ASN292      0.2266
     87  O          1.2030  -15.4400    8.3600 O.2   292  ASN292     -0.2867
     88  CB         4.0760  -15.7850    8.0190 C.3   292  ASN292      0.1155
     89  CG         4.4690  -15.8970    9.4860 C.2   292  ASN292      0.2627
     90  OD1        4.1230  -15.0470   10.3090 O.2   292  ASN292     -0.2716
     91  ND2        5.2040  -16.9560    9.8180 N.am  292  ASN292     -0.0877
     92  N          1.3110  -17.0640    1.6720 N.3   358  GLY358     -0.1225
     93  CA         1.7390  -17.6350    2.9480 C.3   358  GLY358      0.1811
     94  C          1.3010  -16.8780    4.1980 C.2   358  GLY358      0.2280
     95  O          1.9140  -17.0400    5.2570 O.2   358  GLY358     -0.2866
@<TRIPOS>BOND
     1    31    30    2
     2    30    29    1
     3    28    29    1
     4    29    32    1
     5    92    93    1
     6    25    24    2
     7    32    33    1
     8    24    23    1
     9    22    23    1
    10    93    94    1
    11    23    26    1
    12    33    35   ar
    13    33    34   ar
    14    35    37   ar
    15    94    95    2
    16    34    36   ar
    17    26    27    1
    18    37    36   ar
    19    21    20    2
    20    20    19    1
    21    19    18    1
    22     4     3    2
    23    18    11   am
    24    38    39    1
    25    17    15   ar
    26    16    15   ar
    27     1     2    1
    28    15    14    1
    29    39    42    1
    30    39    40    1
    31     3     2    1
    32     3     9   am
    33    85    84    1
    34    85    88    1
    35    85    86    1
    36    11    10    1
    37    11    12    2
    38    83    81    1
    39    10     9    1
    40    10    13    1
    41    88    89    1
    42     2     5    1
    43    42    43    1
    44    87    86    2
    45    50    44    1
    46    50    49    1
    47    40    44   am
    48    40    41    2
    49    14    13    1
    50    44    45    1
    51    81    80    2
    52    81    82    1
    53    80    79    1
    54     5     6    1
    55    89    91   am
    56    89    90    2
    57    49    48    1
    58    48    45    1
    59    45    46    1
    60     7     6   ar
    61     6     8   ar
    62    79    78    1
    63    76    75    2
    64    77    78    1
    65    77    74    1
    66    46    47    2
    67    75    74    1
    68    74    73    1
    69    65    64    2
    70    54    53    2
    71    64    63    1
    72    63    62    1
    73    63    66    1
    74    53    62   am
    75    53    52    1
    76    51    52    1
    77    66    67    1
    78    52    55    1
    79    67    68    1
    80    55    56    1
    81    68    69    1
    82    58    56   ar
    83    58    60   ar
    84    56    57   ar
    85    60    61   ar
    86    69    70    2
    87    57    59   ar
    88    61    59   ar
    89    70    71    1
    90    70    72    1
