@<TRIPOS>MOLECULE
tmp/6eztA00.pdb
 84 79 0 0 0
SMALL
GASTEIGER

@<TRIPOS>ATOM
      1  N         17.6380    9.0280   31.2240 N.3   535  ALA535     -0.1245
      2  CA        17.8470    7.8840   32.1000 C.3   535  ALA535      0.1562
      3  C         16.8560    7.9260   33.2590 C.2   535  ALA535      0.2260
      4  O         16.6980    8.9640   33.8760 O.2   535  ALA535     -0.2867
      5  CB        19.2690    7.8790   32.6350 C.3   535  ALA535      0.0290
      6  N         17.1080    6.9480   36.2500 N.3   537  GLU537     -0.1231
      7  CA        17.7690    7.2230   37.5380 C.3   537  GLU537      0.1699
      8  C         17.9310    8.7260   37.7940 C.2   537  GLU537      0.2592
      9  O         18.1630    9.1180   38.9270 O.2   537  GLU537     -0.2718
     10  CB        19.1610    6.5610   37.6280 C.3   537  GLU537      0.0402
     11  CG        19.2170    5.0710   37.3020 C.3   537  GLU537      0.1161
     12  CD        19.1810    4.7690   35.8050 C.2   537  GLU537      0.3649
     13  OE1       19.7870    5.5340   35.0070 O.co2 537  GLU537     -0.2457
     14  OE2       18.5330    3.7670   35.4240 O.co2 537  GLU537     -0.2457
     15  N         17.8490    9.5540   36.7490 N.am  538  GLU538     -0.1966
     16  CA        17.9500   11.0140   36.9030 C.3   538  GLU538      0.1718
     17  C         16.8430   11.6400   37.7560 C.2   538  GLU538      0.2458
     18  O         15.6550   11.4390   37.4770 O.2   538  GLU538     -0.2730
     19  CB        17.9360   11.7120   35.5500 C.3   538  GLU538      0.0428
     20  CG        19.2380   11.5610   34.7960 C.3   538  GLU538      0.1163
     21  CD        20.2850   12.6010   35.1380 C.2   538  GLU538      0.3649
     22  OE1       21.2940   12.6230   34.4250 O.co2 538  GLU538     -0.2457
     23  OE2       20.1250   13.3780   36.0990 O.co2 538  GLU538     -0.2457
     24  N         17.2330   12.4300   38.7760 N.am  539  PRO539     -0.2727
     25  CA        16.2600   13.1240   39.6010 C.3   539  PRO539      0.1402
     26  C         15.6450   14.3120   38.8670 C.2   539  PRO539      0.2269
     27  O         16.3080   14.9500   38.0390 O.2   539  PRO539     -0.2865
     28  CB        17.0960   13.5990   40.7860 C.3   539  PRO539      0.0296
     29  CG        18.4380   13.8490   40.1970 C.3   539  PRO539      0.0237
     30  CD        18.6140   12.8210   39.1210 C.3   539  PRO539      0.0939
     31  N         17.3200   19.6640   49.7730 N.3   585  ASN585     -0.1240
     32  CA        18.6820   19.7430   50.3350 C.3   585  ASN585      0.1653
     33  C         19.6590   20.3780   49.3430 C.2   585  ASN585      0.2266
     34  O         19.4200   20.3190   48.1340 O.2   585  ASN585     -0.2867
     35  CB        19.2010   18.3630   50.7570 C.3   585  ASN585      0.1155
     36  CG        19.2190   17.3740   49.6160 C.2   585  ASN585      0.2627
     37  OD1       20.2320   17.2180   48.9410 O.2   585  ASN585     -0.2716
     38  ND2       18.0920   16.7170   49.3800 N.am  585  ASN585     -0.0877
     39  N         22.6270   19.5910   48.1790 N.3   587  SER587     -0.1202
     40  CA        23.3130   18.7140   47.2330 C.3   587  SER587      0.2020
     41  C         22.4670   18.4810   45.9670 C.2   587  SER587      0.2618
     42  O         22.9720   18.5940   44.8340 O.2   587  SER587     -0.2717
     43  CB        23.6510   17.3920   47.9170 C.3   587  SER587      0.2103
     44  OG        24.4970   16.6210   47.0900 O.3   587  SER587     -0.2182
     45  N         21.1820   18.1910   46.1740 N.am  588  ARG588     -0.1979
     46  CA        20.2350   18.0080   45.0810 C.3   588  ARG588      0.1597
     47  C         20.0270   19.3120   44.3150 C.2   588  ARG588      0.2287
     48  O         20.0320   19.3240   43.0890 O.2   588  ARG588     -0.2864
     49  CB        18.8940   17.4800   45.6160 C.3   588  ARG588      0.0334
     50  CG        17.8570   17.0740   44.5670 C.3   588  ARG588      0.0492
     51  CD        18.4110   16.2420   43.4050 C.3   588  ARG588      0.2205
     52  NE        19.0580   14.9890   43.8130 N.pl3 588  ARG588     -0.0865
     53  CZ        18.4170   13.8710   44.1810 C.cat 588  ARG588      0.5346
     54  NH1       17.0880   13.8160   44.2490 N.pl3 588  ARG588      0.1354
     55  NH2       19.1180   12.7910   44.5090 N.pl3 588  ARG588      0.1354
     56  N         22.8760   20.0230   42.0500 N.3   591  TYR591     -0.1241
     57  CA        22.8040   19.0700   40.9490 C.3   591  TYR591      0.1605
     58  C         21.7970   19.5200   39.8800 C.2   591  TYR591      0.2264
     59  O         22.0600   19.3840   38.6800 O.2   591  TYR591     -0.2867
     60  CB        22.4730   17.6700   41.4800 C.3   591  TYR591      0.0534
     61  CG        22.4290   16.6120   40.4130 C.ar  591  TYR591     -0.0201
     62  CD1       23.5820   15.9080   40.0530 C.ar  591  TYR591     -0.0009
     63  CD2       21.2350   16.3030   39.7660 C.ar  591  TYR591     -0.0009
     64  CE1       23.5470   14.9290   39.0690 C.ar  591  TYR591      0.0417
     65  CE2       21.1830   15.3310   38.7760 C.ar  591  TYR591      0.0417
     66  CZ        22.3380   14.6440   38.4280 C.ar  591  TYR591      0.1957
     67  OH        22.2800   13.6850   37.4490 O.3   591  TYR591     -0.2866
     68  N         27.9880   20.7700   43.9750 N.3   633  ASN633     -0.1240
     69  CA        27.6560   19.4270   43.5050 C.3   633  ASN633      0.1653
     70  C         26.8340   19.4570   42.2090 C.2   633  ASN633      0.2266
     71  O         25.6850   19.0350   42.1590 O.2   633  ASN633     -0.2867
     72  CB        26.9360   18.6450   44.6090 C.3   633  ASN633      0.1155
     73  CG        26.5360   17.2470   44.1740 C.2   633  ASN633      0.2627
     74  OD1       25.3690   16.8700   44.2730 O.2   633  ASN633     -0.2716
     75  ND2       27.4980   16.4830   43.6560 N.am  633  ASN633     -0.0877
     76  N         30.8380   11.9690   31.5740 N.3   639  LYS639     -0.1245
     77  CA        30.7450   10.7550   32.3930 C.3   639  LYS639      0.1561
     78  C         31.1880    9.5640   31.5390 C.2   639  LYS639      0.2260
     79  O         31.0270    8.4030   31.9300 O.2   639  LYS639     -0.2867
     80  CB        29.3130   10.5480   32.9480 C.3   639  LYS639      0.0271
     81  CG        28.1470   10.8060   31.9750 C.3   639  LYS639      0.0035
     82  CD        26.7990   10.8710   32.6940 C.3   639  LYS639      0.0206
     83  CE        26.6220   12.1860   33.4480 C.3   639  LYS639      0.1093
     84  NZ        26.0030   12.0320   34.7930 N.3   639  LYS639     -0.1314
@<TRIPOS>BOND
     1     1     2    1
     2    78    79    2
     3    78    77    1
     4    76    77    1
     5    81    82    1
     6    81    80    1
     7     2     5    1
     8     2     3    1
     9    77    80    1
    10    82    83    1
    11     3     4    2
    12    83    84    1
    13    22    21   ar
    14    20    21    1
    15    20    19    1
    16    13    12   ar
    17    21    23   ar
    18    14    12   ar
    19    19    16    1
    20    12    11    1
    21     6     7    1
    22    15    16    1
    23    15     8   am
    24    16    17    1
    25    11    10    1
    26    67    66    1
    27    18    17    2
    28     7    10    1
    29     7     8    1
    30    17    24   am
    31     8     9    2
    32    27    26    2
    33    66    65   ar
    34    66    64   ar
    35    59    58    2
    36    24    30    1
    37    24    25    1
    38    65    63   ar
    39    26    25    1
    40    64    62   ar
    41    30    29    1
    42    25    28    1
    43    63    61   ar
    44    58    57    1
    45    62    61   ar
    46    29    28    1
    47    61    60    1
    48    57    60    1
    49    57    56    1
    50    71    70    2
    51    70    69    1
    52    48    47    2
    53    51    52    1
    54    51    50    1
    55    69    68    1
    56    69    72    1
    57    75    73   am
    58    52    53    2
    59    73    74    2
    60    73    72    1
    61    53    54    1
    62    53    55    1
    63    47    46    1
    64    50    49    1
    65    42    41    2
    66    46    49    1
    67    46    45    1
    68    41    45   am
    69    41    40    1
    70    44    43    1
    71    40    43    1
    72    40    39    1
    73    34    33    2
    74    37    36    2
    75    33    32    1
    76    38    36   am
    77    36    35    1
    78    31    32    1
    79    32    35    1
