@<TRIPOS>MOLECULE
tmp/6ezuA00.pdb
 186 178 0 0 0
SMALL
GASTEIGER

@<TRIPOS>ATOM
      1  N         19.3860   20.4730  -10.8510 N.3    82  TYR82      -0.1227
      2  CA        19.3620   20.4600  -12.3190 C.3    82  TYR82       0.1736
      3  C         18.7580   19.1050  -12.8240 C.2    82  TYR82       0.2595
      4  O         17.7530   19.0890  -13.6050 O.2    82  TYR82      -0.2718
      5  CB        20.7630   20.7350  -12.8360 C.3    82  TYR82       0.0548
      6  CG        20.8590   20.7640  -14.4130 C.ar   82  TYR82      -0.0200
      7  CD1       21.0300   19.6160  -15.1660 C.ar   82  TYR82      -0.0009
      8  CD2       20.6270   21.8930  -15.0720 C.ar   82  TYR82      -0.0009
      9  CE1       21.0740   19.6510  -16.5240 C.ar   82  TYR82       0.0417
     10  CE2       20.6900   21.9560  -16.4450 C.ar   82  TYR82       0.0417
     11  CZ        20.8830   20.8200  -17.1760 C.ar   82  TYR82       0.1957
     12  OH        20.9850   20.9440  -18.5850 O.3    82  TYR82      -0.2866
     13  N         19.3310   17.9470  -12.3990 N.am   83  HIS83      -0.1975
     14  CA        18.9900   16.6660  -13.0480 C.3    83  HIS83       0.1656
     15  C         17.7310   16.0500  -12.4930 C.2    83  HIS83       0.2291
     16  O         17.7120   14.9160  -12.0880 O.2    83  HIS83      -0.2864
     17  CB        20.1570   15.6870  -13.0520 C.3    83  HIS83       0.0771
     18  CG        21.3370   16.1110  -13.8360 C.ar   83  HIS83       0.0820
     19  ND1       22.4370   16.7140  -13.2640 N.ar   83  HIS83      -0.2267
     20  CD2       21.5960   16.0400  -15.1580 C.ar   83  HIS83       0.1154
     21  CE1       23.3420   16.9370  -14.1830 C.ar   83  HIS83       0.1986
     22  NE2       22.8450   16.5730  -15.3690 N.ar   83  HIS83      -0.2212
     23  N         14.2240   18.9040  -16.0450 N.3    87  HIS87      -0.1241
     24  CA        15.2680   18.7550  -17.0730 C.3    87  HIS87       0.1621
     25  C         14.7970   17.7430  -18.0910 C.2    87  HIS87       0.2264
     26  O         14.9200   17.9360  -19.3150 O.2    87  HIS87      -0.2867
     27  CB        16.5650   18.3610  -16.4830 C.3    87  HIS87       0.0745
     28  CG        17.5920   17.9320  -17.5000 C.ar   87  HIS87       0.0817
     29  ND1       18.1580   18.7860  -18.4170 N.ar   87  HIS87      -0.2268
     30  CD2       18.2050   16.7620  -17.6480 C.ar   87  HIS87       0.1154
     31  CE1       19.0160   18.1180  -19.1470 C.ar   87  HIS87       0.1986
     32  NE2       19.1300   16.8890  -18.6390 N.ar   87  HIS87      -0.2212
     33  N         15.9290    9.7930  -19.7520 N.3   123  HIS123     -0.1226
     34  CA        17.3280    9.6930  -19.9850 C.3   123  HIS123      0.1752
     35  C         18.2080    9.9900  -18.7700 C.2   123  HIS123      0.2596
     36  O         19.4350    9.7900  -18.8340 O.2   123  HIS123     -0.2718
     37  CB        17.8710   10.6190  -21.1060 C.3   123  HIS123      0.0759
     38  CG        18.0220   12.0210  -20.7420 C.ar  123  HIS123      0.0818
     39  ND1       16.9430   12.8850  -20.6300 N.ar  123  HIS123     -0.2268
     40  CD2       19.1100   12.7260  -20.4250 C.ar  123  HIS123      0.1154
     41  CE1       17.3970   14.0530  -20.1880 C.ar  123  HIS123      0.1986
     42  NE2       18.6990   13.9800  -20.0520 N.ar  123  HIS123     -0.2212
     43  N         17.6400   10.7310  -17.8330 N.am  124  ASP124     -0.1974
     44  CA        18.3610   10.9970  -16.5150 C.3   124  ASP124      0.1709
     45  C         17.6330   10.4450  -15.2420 C.2   124  ASP124      0.2293
     46  O         17.8790   10.8700  -14.1690 O.2   124  ASP124     -0.2864
     47  CB        18.6400   12.4480  -16.3050 C.3   124  ASP124      0.1436
     48  CG        19.8820   12.9610  -17.0410 C.2   124  ASP124      0.3671
     49  OD1       20.9290   12.2550  -17.2850 O.co2 124  ASP124     -0.2456
     50  OD2       19.8120   14.1220  -17.3680 O.co2 124  ASP124     -0.2456
     51  N         18.8370   10.2010  -11.3340 N.3   127  HIS127     -0.1241
     52  CA        20.1820   10.8890  -11.2880 C.3   127  HIS127      0.1621
     53  C         20.5240   11.3020   -9.8060 C.2   127  HIS127      0.2264
     54  O         19.6790   11.9340   -9.1500 O.2   127  HIS127     -0.2867
     55  CB        20.1830   12.1270  -12.2230 C.3   127  HIS127      0.0745
     56  CG        21.5390   12.5850  -12.5660 C.ar  127  HIS127      0.0817
     57  ND1       22.3700   13.1600  -11.6240 N.ar  127  HIS127     -0.2268
     58  CD2       22.1860   12.6480  -13.7590 C.ar  127  HIS127      0.1154
     59  CE1       23.5520   13.3730  -12.1820 C.ar  127  HIS127      0.1986
     60  NE2       23.4390   13.1790  -13.4930 N.ar  127  HIS127     -0.2212
     61  N         28.5070   13.4690  -11.1090 N.3   131  THR131     -0.1274
     62  CA        28.9270   12.9470  -12.4120 C.3   131  THR131      0.1548
     63  C         29.3940   11.5080  -12.3630 C.3   131  THR131      0.2036
     64  O         29.8890   10.9750  -11.2910 O.3   131  THR131     -0.2187
     65  CB        30.0680   13.8750  -13.0580 C.3   131  THR131      0.1721
     66  OG1       31.3310   13.7790  -12.3210 O.3   131  THR131     -0.2215
     67  CG2       29.5530   15.4330  -13.1340 C.3   131  THR131      0.0371
     68  N         24.2810    6.4980  -17.2590 N.3   153  GLU153     -0.1245
     69  CA        23.3660    6.2510  -18.4570 C.3   153  GLU153      0.1567
     70  C         22.8450    4.8680  -18.4390 C.2   153  GLU153      0.2260
     71  O         21.6500    4.6360  -18.5950 O.2   153  GLU153     -0.2867
     72  CB        24.0780    6.5960  -19.6850 C.3   153  GLU153      0.0388
     73  CG        24.4990    8.0170  -19.7790 C.3   153  GLU153      0.1160
     74  CD        25.7590    8.4920  -19.0640 C.2   153  GLU153      0.3649
     75  OE1       26.4870    7.7840  -18.4670 O.co2 153  GLU153     -0.2457
     76  OE2       25.9850    9.7050  -19.0990 O.co2 153  GLU153     -0.2457
     77  N         23.7070   10.0240  -24.6290 N.3   194  THR194     -0.1218
     78  CA        23.8260   11.1790  -23.7610 C.3   194  THR194      0.1862
     79  C         25.0790   11.2210  -22.8510 C.2   194  THR194      0.2287
     80  O         25.2640   12.2220  -22.1220 O.2   194  THR194     -0.2866
     81  CB        22.5830   11.3850  -22.8710 C.3   194  THR194      0.1770
     82  OG1       22.3600   10.2620  -21.9740 O.3   194  THR194     -0.2211
     83  CG2       21.3740   11.6600  -23.7800 C.3   194  THR194      0.0375
     84  N         28.4770   12.0990  -22.1370 N.3   196  MET196     -0.1245
     85  CA        29.5070   13.0280  -22.6330 C.3   196  MET196      0.1570
     86  C         30.8440   12.5660  -23.2220 C.2   196  MET196      0.2261
     87  O         31.5000   13.2850  -23.9840 O.2   196  MET196     -0.2867
     88  CB        29.7890   14.0520  -21.4650 C.3   196  MET196      0.0387
     89  CG        28.7350   15.0200  -21.2930 C.3   196  MET196      0.0595
     90  SD        28.3870   16.1480  -22.7700 S.3   196  MET196     -0.1393
     91  CE        29.8800   16.9540  -23.3030 C.3   196  MET196      0.0692
     92  N         21.3500   14.1670  -27.8660 N.3   238  HIS238     -0.1241
     93  CA        22.5210   14.8800  -27.2900 C.3   238  HIS238      0.1621
     94  C         22.4640   16.3550  -27.4650 C.2   238  HIS238      0.2264
     95  O         22.6920   17.0740  -26.4750 O.2   238  HIS238     -0.2867
     96  CB        23.7950   14.2200  -27.8610 C.3   238  HIS238      0.0745
     97  CG        25.0530   14.8090  -27.3870 C.ar  238  HIS238      0.0817
     98  ND1       25.3770   14.9430  -26.0340 N.ar  238  HIS238     -0.2268
     99  CD2       26.0610   15.3470  -28.1050 C.ar  238  HIS238      0.1154
    100  CE1       26.5540   15.5090  -25.9860 C.ar  238  HIS238      0.1986
    101  NE2       27.0280   15.6580  -27.2250 N.ar  238  HIS238     -0.2212
    102  N         19.8400   17.5600  -25.0110 N.3   241  ASP241     -0.1225
    103  CA        20.4310   17.6200  -23.6200 C.3   241  ASP241      0.1805
    104  C         21.3070   18.8330  -23.4050 C.2   241  ASP241      0.2597
    105  O         21.4710   19.2800  -22.3070 O.2   241  ASP241     -0.2718
    106  CB        21.1980   16.3580  -23.4670 C.3   241  ASP241      0.1424
    107  CG        21.4640   15.9660  -21.9710 C.2   241  ASP241      0.3668
    108  OD1       20.6250   16.2630  -21.0790 O.co2 241  ASP241     -0.2456
    109  OD2       22.5200   15.2920  -21.8060 O.co2 241  ASP241     -0.2456
    110  N         22.0590   19.2520  -24.4570 N.am  242  LEU242     -0.1979
    111  CA        22.9170   20.3930  -24.4000 C.3   242  LEU242      0.1596
    112  C         22.2830   21.5870  -25.0400 C.2   242  LEU242      0.2287
    113  O         22.9720   22.4280  -25.6360 O.2   242  LEU242     -0.2864
    114  CB        24.2450   20.0940  -25.0700 C.3   242  LEU242      0.0297
    115  CG        25.1590   18.9500  -24.5680 C.3   242  LEU242      0.0022
    116  CD1       26.6140   19.0340  -25.0270 C.3   242  LEU242      0.0001
    117  CD2       25.1890   18.6910  -23.1890 C.3   242  LEU242      0.0001
    118  N         20.5320   23.9620  -23.3750 N.3   244  ASN244     -0.1226
    119  CA        20.3970   25.1400  -22.5280 C.3   244  ASN244      0.1770
    120  C         21.0820   26.4190  -22.9570 C.2   244  ASN244      0.2439
    121  O         20.4600   27.5110  -23.0270 O.2   244  ASN244     -0.2733
    122  CB        20.3630   24.8760  -21.0180 C.3   244  ASN244      0.1168
    123  CG        21.7010   24.5390  -20.4400 C.2   244  ASN244      0.2627
    124  OD1       22.6540   25.3670  -20.4350 O.2   244  ASN244     -0.2716
    125  ND2       21.8090   23.2930  -19.9780 N.am  244  ASN244     -0.0877
    126  N         22.3250   26.3380  -23.3560 N.am  245  PRO245     -0.2729
    127  CA        22.9650   27.5830  -23.8150 C.3   245  PRO245      0.1401
    128  C         22.4290   28.1550  -25.0700 C.2   245  PRO245      0.2269
    129  O         22.8030   29.2340  -25.4000 O.2   245  PRO245     -0.2865
    130  CB        24.3780   27.1380  -24.1140 C.3   245  PRO245      0.0296
    131  CG        24.5360   25.8900  -23.2420 C.3   245  PRO245      0.0237
    132  CD        23.2140   25.1910  -23.4730 C.3   245  PRO245      0.0939
    133  N         21.4150   27.1040  -15.8010 N.3   256  THR256     -0.1218
    134  CA        22.8330   27.2140  -15.4450 C.3   256  THR256      0.1862
    135  C         23.0560   27.3960  -13.9080 C.2   256  THR256      0.2287
    136  O         24.0210   26.7870  -13.3440 O.2   256  THR256     -0.2866
    137  CB        23.4750   28.3880  -16.2580 C.3   256  THR256      0.1770
    138  OG1       23.5150   27.9450  -17.6580 O.3   256  THR256     -0.2211
    139  CG2       24.8110   28.6510  -15.9120 C.3   256  THR256      0.0375
    140  N         22.6130   24.1010  -12.5300 N.3   259  LEU259     -0.1245
    141  CA        23.6360   23.1790  -12.8250 C.3   259  LEU259      0.1561
    142  C         24.9240   23.4410  -11.9500 C.2   259  LEU259      0.2260
    143  O         25.4800   22.4950  -11.4280 O.2   259  LEU259     -0.2867
    144  CB        23.9630   23.1740  -14.3170 C.3   259  LEU259      0.0270
    145  CG        25.0220   22.1240  -14.7210 C.3   259  LEU259      0.0019
    146  CD1       24.4590   20.7800  -14.6000 C.3   259  LEU259      0.0001
    147  CD2       25.5320   22.3100  -16.1700 C.3   259  LEU259      0.0001
    148  N         26.9250   21.1640   -9.2820 N.3   263  PHE263     -0.1298
    149  CA        28.3630   20.9740   -9.4510 C.3   263  PHE263      0.1290
    150  C         29.1710   21.3300   -8.1450 C.3   263  PHE263      0.2013
    151  O         30.1480   20.5450   -7.7260 O.3   263  PHE263     -0.2188
    152  CB        28.9400   21.7560  -10.6230 C.3   263  PHE263      0.0480
    153  CG        28.6260   21.1420  -12.0400 C.ar  263  PHE263     -0.0206
    154  CD1       28.0770   19.8490  -12.2130 C.ar  263  PHE263     -0.0042
    155  CD2       28.9560   21.8600  -13.1380 C.ar  263  PHE263     -0.0042
    156  CE1       27.8110   19.2910  -13.5130 C.ar  263  PHE263     -0.0003
    157  CE2       28.7360   21.3390  -14.4600 C.ar  263  PHE263     -0.0003
    158  CZ        28.2050   20.0530  -14.6070 C.ar  263  PHE263     -0.0000
    159  N         34.6260   22.8020  -13.0490 N.3   280  MET280     -0.1245
    160  CA        33.4780   23.4930  -12.7150 C.3   280  MET280      0.1570
    161  C         32.8390   23.1770  -11.3000 C.2   280  MET280      0.2261
    162  O         31.8210   23.7740  -11.0520 O.2   280  MET280     -0.2867
    163  CB        32.3950   23.5400  -13.8410 C.3   280  MET280      0.0387
    164  CG        32.9900   23.9920  -15.1920 C.3   280  MET280      0.0595
    165  SD        31.6580   24.0700  -16.4160 S.3   280  MET280     -0.1393
    166  CE        30.2720   24.8060  -15.4630 C.3   280  MET280      0.0692
    167  N         31.1830   29.3860  -18.9240 N.3   292  GLN292     -0.1245
    168  CA        30.1720   29.2430  -19.9610 C.3   292  GLN292      0.1566
    169  C         30.6760   29.5330  -21.3340 C.2   292  GLN292      0.2260
    170  O         30.3080   28.8390  -22.3060 O.2   292  GLN292     -0.2867
    171  CB        28.8770   30.0500  -19.5520 C.3   292  GLN292      0.0367
    172  CG        28.2100   29.3630  -18.3370 C.3   292  GLN292      0.0905
    173  CD        27.7810   27.9490  -18.5570 C.2   292  GLN292      0.2608
    174  OE1       27.0000   27.6960  -19.5000 O.2   292  GLN292     -0.2717
    175  NE2       28.3370   26.9930  -17.7860 N.am  292  GLN292     -0.0878
    176  N         32.6030   26.5290  -22.4500 N.3   295  PHE295     -0.1241
    177  CA        31.7750   25.3680  -22.7860 C.3   295  PHE295      0.1605
    178  C         31.0670   25.6450  -24.1660 C.2   295  PHE295      0.2264
    179  O         30.8830   24.6920  -24.9810 O.2   295  PHE295     -0.2867
    180  CB        30.7220   25.1060  -21.6920 C.3   295  PHE295      0.0534
    181  CG        29.8420   23.9380  -21.9580 C.ar  295  PHE295     -0.0203
    182  CD1       30.3680   22.6760  -21.9390 C.ar  295  PHE295     -0.0042
    183  CD2       28.5380   24.1060  -22.2620 C.ar  295  PHE295     -0.0042
    184  CE1       29.5870   21.6090  -22.1890 C.ar  295  PHE295     -0.0003
    185  CE2       27.7380   23.0250  -22.4610 C.ar  295  PHE295     -0.0003
    186  CZ        28.2870   21.7890  -22.5340 C.ar  295  PHE295     -0.0000
@<TRIPOS>BOND
     1    99    97   ar
     2    99   101   ar
     3    92    93    1
     4    96    97    1
     5    96    93    1
     6    94    93    1
     7    94    95    2
     8    97    98   ar
     9   101   100   ar
    10    98   100   ar
    11   113   112    2
    12   129   128    2
    13   128   127    1
    14   114   115    1
    15   114   111    1
    16   112   111    1
    17   116   115    1
    18   102   103    1
    19   179   178    2
    20    77    78    1
    21   115   117    1
    22   110   111    1
    23   110   104   am
    24   178   177    1
    25   130   127    1
    26   130   131    1
    27    87    86    2
    28   127   126    1
    29    83    81    1
    30    78    81    1
    31    78    79    1
    32   103   106    1
    33   103   104    1
    34   132   126    1
    35   132   131    1
    36   106   107    1
    37   104   105    2
    38   118   119    1
    39   126   120   am
    40    91    90    1
    41    86    85    1
    42   121   120    2
    43   120   119    1
    44    81    82    1
    45    79    80    2
    46   177   176    1
    47   177   180    1
    48    90    89    1
    49    85    84    1
    50    85    88    1
    51   186   185   ar
    52   186   184   ar
    53   119   122    1
    54   185   183   ar
    55   170   169    2
    56   183   181   ar
    57   184   182   ar
    58   107   109   ar
    59   107   108   ar
    60   181   182   ar
    61   181   180    1
    62    88    89    1
    63   169   168    1
    64    37    38    1
    65    37    34    1
    66   122   123    1
    67    38    39   ar
    68    38    40   ar
    69    39    41   ar
    70   123   124    2
    71   123   125   am
    72    40    42   ar
    73    41    42   ar
    74    34    33    1
    75    34    35    1
    76   168   171    1
    77   168   167    1
    78    73    72    1
    79    73    74    1
    80    72    69    1
    81   171   172    1
    82   174   173    2
    83    26    25    2
    84    31    32   ar
    85    31    29   ar
    86    76    74   ar
    87    74    75   ar
    88    36    35    2
    89    35    43   am
    90    32    30   ar
    91    71    70    2
    92    12    11    1
    93   173   172    1
    94   173   175   am
    95    69    70    1
    96    69    68    1
    97    29    28   ar
    98    25    24    1
    99    43    44    1
   100   138   137    1
   101    30    28   ar
   102    28    27    1
   103    50    48   ar
   104    49    48   ar
   105    11     9   ar
   106    11    10   ar
   107    24    27    1
   108    24    23    1
   109    48    47    1
   110     9     7   ar
   111    44    47    1
   112    44    45    1
   113    10     8   ar
   114   165   166    1
   115   165   164    1
   116   137   139    1
   117   137   134    1
   118   147   145    1
   119   133   134    1
   120   134   135    1
   121    22    20   ar
   122    22    21   ar
   123    45    46    2
   124   164   163    1
   125     7     6   ar
   126    20    18   ar
   127     8     6   ar
   128   145   146    1
   129   145   144    1
   130   158   157   ar
   131   158   156   ar
   132   157   155   ar
   133     6     5    1
   134   144   141    1
   135    21    19   ar
   136   135   136    2
   137   163   160    1
   138    18    19   ar
   139    18    17    1
   140    58    60   ar
   141    58    56   ar
   142     4     3    2
   143   156   154   ar
   144    60    59   ar
   145   155   153   ar
   146    67    65    1
   147    65    62    1
   148    65    66    1
   149    17    14    1
   150   159   160    1
   151    14    15    1
   152    14    13    1
   153     5     2    1
   154   141   140    1
   155   141   142    1
   156     3    13   am
   157     3     2    1
   158   160   161    1
   159    56    55    1
   160    56    57   ar
   161    15    16    2
   162    62    63    1
   163    62    61    1
   164    63    64    1
   165     2     1    1
   166    55    52    1
   167   154   153   ar
   168    59    57   ar
   169   153   152    1
   170   142   143    2
   171    51    52    1
   172   161   162    2
   173    52    53    1
   174   152   149    1
   175    53    54    2
   176   149   148    1
   177   149   150    1
   178   150   151    1
