@<TRIPOS>MOLECULE
tmp/6ezuB00.pdb
 198 190 0 0 0
SMALL
GASTEIGER

@<TRIPOS>ATOM
      1  N         32.2080  -26.6330  -16.9880 N.3    82  TYR82      -0.1227
      2  CA        33.1980  -26.0030  -17.8750 C.3    82  TYR82       0.1736
      3  C         33.7450  -24.6800  -17.3000 C.2    82  TYR82       0.2595
      4  O         34.9600  -24.5240  -17.1190 O.2    82  TYR82      -0.2718
      5  CB        32.5180  -25.7580  -19.2570 C.3    82  TYR82       0.0548
      6  CG        33.4820  -25.1940  -20.3310 C.ar   82  TYR82      -0.0200
      7  CD1       33.7310  -23.7650  -20.4330 C.ar   82  TYR82      -0.0009
      8  CD2       34.2730  -26.0340  -21.1050 C.ar   82  TYR82      -0.0009
      9  CE1       34.5920  -23.2310  -21.4300 C.ar   82  TYR82       0.0417
     10  CE2       35.2110  -25.4940  -22.0430 C.ar   82  TYR82       0.0417
     11  CZ        35.3190  -24.1060  -22.2640 C.ar   82  TYR82       0.1957
     12  OH        36.2640  -23.6390  -23.1400 O.3    82  TYR82      -0.2866
     13  N         32.8460  -23.7060  -17.0690 N.am   83  HIS83      -0.1975
     14  CA        33.2270  -22.3700  -16.7190 C.3    83  HIS83       0.1656
     15  C         33.6210  -22.2610  -15.2500 C.2    83  HIS83       0.2291
     16  O         33.0660  -21.4660  -14.4650 O.2    83  HIS83      -0.2864
     17  CB        32.1550  -21.3520  -17.0510 C.3    83  HIS83       0.0771
     18  CG        31.8530  -21.1970  -18.5120 C.ar   83  HIS83       0.0820
     19  ND1       30.7810  -21.8350  -19.1320 N.ar   83  HIS83      -0.2267
     20  CD2       32.4940  -20.5080  -19.4800 C.ar   83  HIS83       0.1154
     21  CE1       30.7630  -21.5210  -20.4060 C.ar   83  HIS83       0.1986
     22  NE2       31.8050  -20.7380  -20.6550 N.ar   83  HIS83      -0.2212
     23  N         39.0480  -24.0120  -16.1980 N.3    87  HIS87      -0.1241
     24  CA        38.9670  -23.2450  -17.4710 C.3    87  HIS87       0.1621
     25  C         39.7390  -22.0220  -17.3570 C.2    87  HIS87       0.2264
     26  O         40.5420  -21.6720  -18.2520 O.2    87  HIS87      -0.2867
     27  CB        37.5610  -22.9590  -17.8290 C.3    87  HIS87       0.0745
     28  CG        37.4280  -21.9740  -18.9860 C.ar   87  HIS87       0.0817
     29  ND1       37.9010  -22.2730  -20.2590 N.ar   87  HIS87      -0.2268
     30  CD2       36.8420  -20.7550  -19.0600 C.ar   87  HIS87       0.1154
     31  CE1       37.5560  -21.2740  -21.0820 C.ar   87  HIS87       0.1986
     32  NE2       36.9260  -20.3220  -20.3730 N.ar   87  HIS87      -0.2212
     33  N         38.7460  -14.0080  -16.0410 N.3   123  HIS123     -0.1226
     34  CA        37.7740  -13.5900  -17.1010 C.3   123  HIS123      0.1752
     35  C         36.4470  -14.3180  -17.0480 C.2   123  HIS123      0.2596
     36  O         35.5280  -13.8910  -17.6930 O.2   123  HIS123     -0.2718
     37  CB        38.3900  -13.7980  -18.4840 C.3   123  HIS123      0.0759
     38  CG        38.2650  -15.2130  -18.9630 C.ar  123  HIS123      0.0818
     39  ND1       39.1210  -16.2220  -18.5770 N.ar  123  HIS123     -0.2268
     40  CD2       37.3520  -15.7770  -19.7880 C.ar  123  HIS123      0.1154
     41  CE1       38.6820  -17.3590  -19.1340 C.ar  123  HIS123      0.1986
     42  NE2       37.6350  -17.0940  -19.9100 N.ar  123  HIS123     -0.2212
     43  N         36.3380  -15.4480  -16.3940 N.am  124  ASP124     -0.1974
     44  CA        35.0140  -16.0720  -16.1550 C.3   124  ASP124      0.1709
     45  C         34.5770  -16.1690  -14.7000 C.2   124  ASP124      0.2293
     46  O         33.7110  -17.0090  -14.4320 O.2   124  ASP124     -0.2864
     47  CB        34.8950  -17.4690  -16.7800 C.3   124  ASP124      0.1436
     48  CG        34.6410  -17.4160  -18.3460 C.2   124  ASP124      0.3671
     49  OD1       33.8520  -16.5390  -18.7990 O.co2 124  ASP124     -0.2456
     50  OD2       34.9640  -18.3140  -19.0480 O.co2 124  ASP124     -0.2456
     51  N         30.9810  -17.3510  -12.8860 N.3   127  HIS127     -0.1241
     52  CA        30.0840  -17.7550  -13.9780 C.3   127  HIS127      0.1621
     53  C         28.9710  -18.7260  -13.3810 C.2   127  HIS127      0.2264
     54  O         29.2800  -19.6360  -12.6610 O.2   127  HIS127     -0.2867
     55  CB        30.9370  -18.4000  -15.1050 C.3   127  HIS127      0.0745
     56  CG        30.2590  -18.4610  -16.4480 C.ar  127  HIS127      0.0817
     57  ND1       29.1210  -19.1890  -16.6570 N.ar  127  HIS127     -0.2268
     58  CD2       30.6490  -18.0080  -17.6750 C.ar  127  HIS127      0.1154
     59  CE1       28.7570  -19.0870  -17.9270 C.ar  127  HIS127      0.1986
     60  NE2       29.6940  -18.4100  -18.5790 N.ar  127  HIS127     -0.2212
     61  N         24.4070  -18.9510  -20.5170 N.3   131  THR131     -0.1218
     62  CA        24.9420  -17.9040  -21.4490 C.3   131  THR131      0.1862
     63  C         24.2750  -16.5360  -21.2500 C.2   131  THR131      0.2287
     64  O         23.1750  -16.4190  -20.6320 O.2   131  THR131     -0.2866
     65  CB        24.6080  -18.2200  -22.9350 C.3   131  THR131      0.1770
     66  OG1       23.1500  -18.2360  -23.0740 O.3   131  THR131     -0.2211
     67  CG2       25.3250  -19.5470  -23.3780 C.3   131  THR131      0.0375
     68  N         30.3920  -10.8570  -18.8400 N.3   153  GLU153     -0.1245
     69  CA        31.7300  -10.3490  -18.9090 C.3   153  GLU153      0.1567
     70  C         31.8360   -9.1410  -17.9500 C.2   153  GLU153      0.2260
     71  O         32.8800   -8.9260  -17.2760 O.2   153  GLU153     -0.2867
     72  CB        32.1370  -10.0200  -20.3280 C.3   153  GLU153      0.0388
     73  CG        32.2180  -11.2300  -21.2530 C.3   153  GLU153      0.1160
     74  CD        30.9120  -11.7240  -21.8330 C.2   153  GLU153      0.3649
     75  OE1       29.9010  -11.0990  -21.6340 O.co2 153  GLU153     -0.2457
     76  OE2       30.9320  -12.7890  -22.4900 O.co2 153  GLU153     -0.2457
     77  N         31.9610  -10.5960  -14.3730 N.3   156  HIS156     -0.1241
     78  CA        33.1890  -11.1790  -14.1310 C.3   156  HIS156      0.1621
     79  C         34.1300  -10.1110  -13.6980 C.2   156  HIS156      0.2264
     80  O         34.8790  -10.2790  -12.6700 O.2   156  HIS156     -0.2867
     81  CB        33.8090  -12.0190  -15.2450 C.3   156  HIS156      0.0745
     82  CG        32.9290  -13.0670  -15.8420 C.ar  156  HIS156      0.0817
     83  ND1       32.1460  -13.9340  -15.0810 N.ar  156  HIS156     -0.2268
     84  CD2       32.7130  -13.4010  -17.1780 C.ar  156  HIS156      0.1154
     85  CE1       31.4870  -14.7390  -15.9140 C.ar  156  HIS156      0.1986
     86  NE2       31.8460  -14.4670  -17.1770 N.ar  156  HIS156     -0.2212
     87  N         36.2680  -11.0450  -24.4870 N.3   194  THR194     -0.1218
     88  CA        35.9030  -12.3880  -24.4550 C.3   194  THR194      0.1862
     89  C         34.4630  -12.6160  -24.7790 C.2   194  THR194      0.2287
     90  O         33.9890  -13.7620  -24.8400 O.2   194  THR194     -0.2866
     91  CB        36.3200  -13.2220  -23.1730 C.3   194  THR194      0.1770
     92  OG1       35.5660  -12.7940  -22.0230 O.3   194  THR194     -0.2211
     93  CG2       37.8030  -13.0880  -22.8700 C.3   194  THR194      0.0375
     94  N         31.5020  -13.0460  -27.0470 N.3   196  MET196     -0.1245
     95  CA        31.2990  -13.5390  -28.4640 C.3   196  MET196      0.1570
     96  C         30.7390  -12.4220  -29.3740 C.2   196  MET196      0.2261
     97  O         31.0550  -12.3730  -30.5470 O.2   196  MET196     -0.2867
     98  CB        30.4510  -14.8210  -28.4930 C.3   196  MET196      0.0387
     99  CG        31.2710  -15.9850  -27.9440 C.3   196  MET196      0.0595
    100  SD        32.8850  -16.4220  -28.7490 S.3   196  MET196     -0.1393
    101  CE        32.1970  -16.9440  -30.3050 C.3   196  MET196      0.0692
    102  N         40.8540  -18.2620  -24.9630 N.3   232  ASP232     -0.1225
    103  CA        39.5290  -18.7090  -24.5730 C.3   232  ASP232      0.1805
    104  C         38.9340  -19.7320  -25.5190 C.2   232  ASP232      0.2594
    105  O         38.1520  -20.5770  -25.1030 O.2   232  ASP232     -0.2718
    106  CB        38.6460  -17.5130  -24.4660 C.3   232  ASP232      0.1424
    107  CG        37.4220  -17.7510  -23.6530 C.2   232  ASP232      0.3668
    108  OD1       37.4340  -18.6080  -22.7050 O.co2 232  ASP232     -0.2456
    109  OD2       36.4380  -17.0450  -23.9270 O.co2 232  ASP232     -0.2456
    110  N         39.2830  -19.6240  -26.8420 N.am  233  LEU233     -0.2033
    111  CA        38.7070  -20.5020  -27.8310 C.3   233  LEU233      0.1282
    112  C         39.7640  -21.4810  -28.2870 C.3   233  LEU233      0.2036
    113  O         39.7970  -21.8750  -29.5120 O.3   233  LEU233     -0.2185
    114  CB        38.0810  -19.6890  -29.0450 C.3   233  LEU233      0.0244
    115  CG        36.9240  -18.7660  -28.9340 C.3   233  LEU233      0.0018
    116  CD1       36.1730  -18.3970  -30.2410 C.3   233  LEU233      0.0001
    117  CD2       35.8750  -19.0710  -27.8730 C.3   233  LEU233      0.0001
    118  N         40.3910  -24.6030  -27.1090 N.3   235  ASN235     -0.1226
    119  CA        40.1480  -25.9490  -26.8780 C.3   235  ASN235      0.1770
    120  C         40.2090  -26.7990  -28.1780 C.2   235  ASN235      0.2439
    121  O         40.7670  -27.8690  -28.1450 O.2   235  ASN235     -0.2733
    122  CB        39.0060  -26.2630  -25.8710 C.3   235  ASN235      0.1168
    123  CG        37.5090  -25.8880  -26.3260 C.2   235  ASN235      0.2627
    124  OD1       36.8620  -26.7520  -26.9330 O.2   235  ASN235     -0.2716
    125  ND2       36.8930  -24.6850  -25.8630 N.am  235  ASN235     -0.0877
    126  N         39.6070  -26.3830  -29.2780 N.am  236  PRO236     -0.2729
    127  CA        39.6050  -27.2490  -30.4400 C.3   236  PRO236      0.1401
    128  C         40.9620  -27.3700  -31.0910 C.2   236  PRO236      0.2269
    129  O         41.2040  -28.1710  -32.0020 O.2   236  PRO236     -0.2865
    130  CB        38.6540  -26.4410  -31.4220 C.3   236  PRO236      0.0296
    131  CG        37.7060  -25.6960  -30.5070 C.3   236  PRO236      0.0237
    132  CD        38.6850  -25.2400  -29.4290 C.3   236  PRO236      0.0939
    133  N         40.8880  -31.6280  -25.8270 N.3   243  TYR243     -0.1241
    134  CA        39.7250  -31.0350  -26.5870 C.3   243  TYR243      0.1605
    135  C         38.4210  -31.7420  -26.2380 C.2   243  TYR243      0.2264
    136  O         37.4720  -31.1760  -25.6940 O.2   243  TYR243     -0.2867
    137  CB        40.0280  -31.1140  -28.1010 C.3   243  TYR243      0.0534
    138  CG        38.9330  -30.6150  -29.0400 C.ar  243  TYR243     -0.0201
    139  CD1       37.9770  -29.7110  -28.6270 C.ar  243  TYR243     -0.0009
    140  CD2       38.8840  -31.0310  -30.3780 C.ar  243  TYR243     -0.0009
    141  CE1       36.9800  -29.2580  -29.4640 C.ar  243  TYR243      0.0417
    142  CE2       37.8930  -30.5420  -31.2300 C.ar  243  TYR243      0.0417
    143  CZ        36.8960  -29.7210  -30.7260 C.ar  243  TYR243      0.1957
    144  OH        35.8830  -29.2590  -31.5560 O.3   243  TYR243     -0.2866
    145  N         35.2800  -30.4110  -24.1550 N.3   247  THR247     -0.1218
    146  CA        33.9450  -30.4160  -24.8940 C.3   247  THR247      0.1862
    147  C         32.8150  -31.1220  -24.1340 C.2   247  THR247      0.2287
    148  O         31.7180  -30.6220  -24.0550 O.2   247  THR247     -0.2866
    149  CB        34.1300  -30.9910  -26.3290 C.3   247  THR247      0.1770
    150  OG1       34.8730  -30.0040  -27.0850 O.3   247  THR247     -0.2211
    151  CG2       32.8120  -31.2630  -26.9890 C.3   247  THR247      0.0375
    152  N         31.6690  -28.5990  -21.4890 N.3   250  LEU250     -0.1245
    153  CA        30.8320  -27.4970  -22.1090 C.3   250  LEU250      0.1561
    154  C         29.4260  -27.9470  -22.4560 C.2   250  LEU250      0.2260
    155  O         28.4090  -27.2780  -22.1370 O.2   250  LEU250     -0.2867
    156  CB        31.4970  -26.9260  -23.3560 C.3   250  LEU250      0.0270
    157  CG        30.9260  -25.6150  -23.9120 C.3   250  LEU250      0.0019
    158  CD1       31.0600  -24.4010  -22.9850 C.3   250  LEU250      0.0001
    159  CD2       31.5980  -25.2610  -25.2170 C.3   250  LEU250      0.0001
    160  N         25.7570  -26.6190  -21.2410 N.3   254  PHE254     -0.1241
    161  CA        24.7460  -26.2330  -22.2390 C.3   254  PHE254      0.1605
    162  C         23.4790  -27.0800  -22.1640 C.2   254  PHE254      0.2264
    163  O         22.3730  -26.5490  -22.1270 O.2   254  PHE254     -0.2867
    164  CB        25.2370  -26.4210  -23.6770 C.3   254  PHE254      0.0534
    165  CG        26.2390  -25.4100  -24.1680 C.ar  254  PHE254     -0.0203
    166  CD1       26.5200  -24.2160  -23.4900 C.ar  254  PHE254     -0.0042
    167  CD2       26.9230  -25.6920  -25.3450 C.ar  254  PHE254     -0.0042
    168  CE1       27.4590  -23.3450  -23.9760 C.ar  254  PHE254     -0.0003
    169  CE2       27.8440  -24.7960  -25.8340 C.ar  254  PHE254     -0.0003
    170  CZ        28.1120  -23.6340  -25.1550 C.ar  254  PHE254     -0.0000
    171  N         22.8150  -25.3180  -29.6120 N.3   271  MET271     -0.1245
    172  CA        23.4680  -26.4890  -29.0530 C.3   271  MET271      0.1570
    173  C         23.0370  -26.8870  -27.6370 C.2   271  MET271      0.2261
    174  O         23.8650  -27.4470  -26.9040 O.2   271  MET271     -0.2867
    175  CB        24.9840  -26.2450  -28.9980 C.3   271  MET271      0.0387
    176  CG        25.7850  -26.3530  -30.2840 C.3   271  MET271      0.0595
    177  SD        27.4440  -25.9350  -29.6970 S.3   271  MET271     -0.1393
    178  CE        28.0280  -27.4460  -28.9500 C.3   271  MET271      0.0692
    179  N         30.4960  -29.4990  -33.3680 N.3   283  GLN283     -0.1245
    180  CA        31.8990  -29.0580  -33.3200 C.3   283  GLN283      0.1566
    181  C         32.4980  -28.7060  -34.6520 C.2   283  GLN283      0.2260
    182  O         33.2580  -27.7990  -34.8020 O.2   283  GLN283     -0.2867
    183  CB        32.7870  -30.1580  -32.7010 C.3   283  GLN283      0.0367
    184  CG        32.4650  -30.3920  -31.2710 C.3   283  GLN283      0.0905
    185  CD        32.6620  -29.1250  -30.4730 C.2   283  GLN283      0.2608
    186  OE1       33.8050  -28.4850  -30.4420 O.2   283  GLN283     -0.2717
    187  NE2       31.5520  -28.6690  -29.9140 N.am  283  GLN283     -0.0878
    188  N         31.3620  -25.2470  -35.3930 N.3   286  PHE286     -0.1241
    189  CA        32.0990  -24.2570  -34.5700 C.3   286  PHE286      0.1605
    190  C         33.5300  -24.0230  -35.0920 C.2   286  PHE286      0.2264
    191  O         34.0110  -22.8820  -35.1370 O.2   286  PHE286     -0.2867
    192  CB        32.1710  -24.7080  -33.1330 C.3   286  PHE286      0.0534
    193  CG        32.8330  -23.6690  -32.1960 C.ar  286  PHE286     -0.0203
    194  CD1       32.2390  -22.4380  -32.0000 C.ar  286  PHE286     -0.0042
    195  CD2       34.1000  -23.8980  -31.6760 C.ar  286  PHE286     -0.0042
    196  CE1       32.8410  -21.5060  -31.1670 C.ar  286  PHE286     -0.0003
    197  CE2       34.7330  -22.9480  -30.8740 C.ar  286  PHE286     -0.0003
    198  CZ        34.1000  -21.7980  -30.5780 C.ar  286  PHE286     -0.0000
@<TRIPOS>BOND
     1   188   189    1
     2   191   190    2
     3   190   189    1
     4   182   181    2
     5   181   180    1
     6   189   192    1
     7   179   180    1
     8   180   183    1
     9   192   193    1
    10   183   184    1
    11   193   194   ar
    12   193   195   ar
    13   129   128    2
    14   194   196   ar
    15   195   197   ar
    16   144   143    1
    17   130   131    1
    18   130   127    1
    19   184   185    1
    20   142   143   ar
    21   142   140   ar
    22   196   198   ar
    23   128   127    1
    24   197   198   ar
    25   143   141   ar
    26    97    96    2
    27   131   132    1
    28   185   186    2
    29   185   187   am
    30   127   126    1
    31   140   138   ar
    32   101   100    1
    33   176   177    1
    34   176   175    1
    35   116   115    1
    36   177   178    1
    37   171   172    1
    38   113   112    1
    39   141   139   ar
    40   132   126    1
    41    96    95    1
    42   126   120   am
    43   172   175    1
    44   172   173    1
    45   114   115    1
    46   114   111    1
    47   138   139   ar
    48   138   137    1
    49   115   117    1
    50   100    99    1
    51    98    95    1
    52    98    99    1
    53    95    94    1
    54   112   111    1
    55   120   121    2
    56   120   119    1
    57   137   134    1
    58   111   110    1
    59   173   174    2
    60   118   119    1
    61   150   149    1
    62   151   149    1
    63   124   123    2
    64   119   122    1
    65   110   104   am
    66   134   135    1
    67   134   133    1
    68   149   146    1
    69   123   122    1
    70   123   125   am
    71   135   136    2
    72   169   167   ar
    73   169   170   ar
    74   104   105    2
    75   104   103    1
    76   167   165   ar
    77   159   157    1
    78   170   168   ar
    79   102   103    1
    80   146   145    1
    81   146   147    1
    82    90    89    2
    83    89    88    1
    84   103   106    1
    85    87    88    1
    86   106   107    1
    87    88    91    1
    88   165   164    1
    89   165   166   ar
    90   147   148    2
    91   168   166   ar
    92   109   107   ar
    93   157   156    1
    94   157   158    1
    95   164   161    1
    96   107   108   ar
    97    67    65    1
    98   156   153    1
    99    91    93    1
   100    91    92    1
   101    12    11    1
   102    66    65    1
   103    65    62    1
   104    76    74   ar
   105   154   155    2
   106   154   153    1
   107    11    10   ar
   108    11     9   ar
   109   161   162    1
   110   161   160    1
   111   162   163    2
   112   153   152    1
   113    10     8   ar
   114    74    75   ar
   115    74    73    1
   116    62    63    1
   117    62    61    1
   118     9     7   ar
   119    73    72    1
   120    63    64    2
   121     8     6   ar
   122    31    32   ar
   123    31    29   ar
   124    22    21   ar
   125    22    20   ar
   126     7     6   ar
   127    21    19   ar
   128    32    30   ar
   129     6     5    1
   130    72    69    1
   131    29    28   ar
   132    42    40   ar
   133    42    41   ar
   134    40    38   ar
   135    20    18   ar
   136     5     2    1
   137    41    39   ar
   138    19    18   ar
   139    30    28   ar
   140    50    48   ar
   141    28    27    1
   142    38    39   ar
   143    38    37    1
   144    69    68    1
   145    69    70    1
   146    49    48   ar
   147    60    59   ar
   148    60    58   ar
   149    18    17    1
   150    37    34    1
   151    48    47    1
   152    26    25    2
   153    70    71    2
   154    59    57   ar
   155     2     3    1
   156     2     1    1
   157    27    24    1
   158    36    35    2
   159    58    56   ar
   160    24    25    1
   161    24    23    1
   162     3     4    2
   163     3    13   am
   164    84    86   ar
   165    84    82   ar
   166    86    85   ar
   167    34    35    1
   168    34    33    1
   169    13    14    1
   170    17    14    1
   171    35    43   am
   172    47    44    1
   173    14    15    1
   174    57    56   ar
   175    56    55    1
   176    43    44    1
   177    44    45    1
   178    85    83   ar
   179    82    81    1
   180    82    83   ar
   181    15    16    2
   182    81    78    1
   183    55    52    1
   184    45    46    2
   185    77    78    1
   186    78    79    1
   187    52    53    1
   188    52    51    1
   189    79    80    2
   190    53    54    2
