@<TRIPOS>MOLECULE
tmp/6f06B00.pdb
 150 146 0 0 0
SMALL
GASTEIGER

@<TRIPOS>ATOM
      1  N        -15.4100  -14.6040  -27.9840 N.3    19  GLN19      -0.1245
      2  CA       -14.4580  -15.7320  -28.0820 C.3    19  GLN19       0.1566
      3  C        -13.0560  -15.2130  -28.3850 C.2    19  GLN19       0.2260
      4  O        -12.0410  -15.9480  -28.2610 O.2    19  GLN19      -0.2867
      5  CB       -14.9630  -16.7130  -29.1560 C.3    19  GLN19       0.0367
      6  CG       -14.7770  -16.2180  -30.5750 C.3    19  GLN19       0.0905
      7  CD       -15.4710  -17.0890  -31.6290 C.2    19  GLN19       0.2608
      8  OE1      -16.7360  -17.1400  -31.7220 O.2    19  GLN19      -0.2717
      9  NE2      -14.6640  -17.7800  -32.4300 N.am   19  GLN19      -0.0878
     10  N        -10.4490  -19.8260  -32.5400 N.3    23  GLY23      -0.1210
     11  CA       -11.4570  -20.4280  -33.4100 C.3    23  GLY23       0.1956
     12  C        -12.3110  -21.3600  -32.5890 C.2    23  GLY23       0.2613
     13  O        -12.2750  -22.5890  -32.7920 O.2    23  GLY23      -0.2717
     14  N        -13.0520  -20.7900  -31.6380 N.am   24  SER24      -0.1938
     15  CA       -13.8460  -21.6070  -30.7290 C.3    24  SER24       0.2055
     16  C        -15.3480  -21.3710  -30.6510 C.2    24  SER24       0.2643
     17  O        -15.9120  -21.6430  -29.5820 O.2    24  SER24      -0.2714
     18  CB       -13.3210  -21.4700  -29.3040 C.3    24  SER24       0.2130
     19  OG       -13.1910  -20.1030  -28.9200 O.3    24  SER24      -0.2179
     20  N        -15.9910  -20.8710  -31.7140 N.am   25  CYS25      -0.1953
     21  CA       -17.4720  -20.7080  -31.7030 C.3    25  CYS25       0.1843
     22  C        -18.1780  -21.9980  -31.2230 C.2    25  CYS25       0.2625
     23  O        -19.2430  -21.9580  -30.5740 O.2    25  CYS25      -0.2714
     24  CB       -18.0020  -20.3130  -33.0830 C.3    25  CYS25       0.0997
     25  SG       -17.3600  -21.3950  -34.4410 S.3    25  CYS25      -0.0797
     26  N        -17.5700  -23.1360  -31.5450 N.am   26  TRP26      -0.1974
     27  CA       -18.1430  -24.4600  -31.2930 C.3    26  TRP26       0.1640
     28  C        -18.1870  -24.7190  -29.7820 C.2    26  TRP26       0.2290
     29  O        -19.1120  -25.3440  -29.2350 O.2    26  TRP26      -0.2864
     30  CB       -17.2880  -25.5220  -32.0240 C.3    26  TRP26       0.0576
     31  CG       -15.8360  -25.5170  -31.5800 C.ar   26  TRP26       0.0006
     32  CD1      -14.7780  -24.8830  -32.1960 C.ar   26  TRP26       0.0946
     33  CD2      -15.2850  -26.1810  -30.4300 C.ar   26  TRP26       0.0152
     34  NE1      -13.6120  -25.1150  -31.4980 N.ar   26  TRP26      -0.2442
     35  CE2      -13.8950  -25.9170  -30.4170 C.ar   26  TRP26       0.0810
     36  CE3      -15.8260  -26.9990  -29.4230 C.ar   26  TRP26       0.0012
     37  CZ2      -13.0450  -26.4200  -29.4280 C.ar   26  TRP26       0.0191
     38  CZ3      -14.9660  -27.4910  -28.4170 C.ar   26  TRP26       0.0001
     39  CH2      -13.5910  -27.1980  -28.4430 C.ar   26  TRP26       0.0015
     40  N        -11.6720  -35.1910  -31.1110 N.3    61  GLY61      -0.1225
     41  CA       -11.5980  -34.6270  -32.4600 C.3    61  GLY61       0.1811
     42  C        -11.7110  -33.1110  -32.5540 C.2    61  GLY61       0.2280
     43  O        -11.7130  -32.5750  -33.6710 O.2    61  GLY61      -0.2866
     44  N        -10.0250  -29.3370  -32.1740 N.3    63  GLU63      -0.1245
     45  CA        -8.6630  -28.8740  -32.4190 C.3    63  GLU63       0.1567
     46  C         -8.3930  -27.5380  -31.7150 C.2    63  GLU63       0.2260
     47  O         -7.5910  -26.7130  -32.1760 O.2    63  GLU63      -0.2867
     48  CB        -8.3630  -28.8150  -33.9260 C.3    63  GLU63       0.0388
     49  CG        -7.4960  -29.9540  -34.4700 C.3    63  GLU63       0.1160
     50  CD        -6.9980  -29.6880  -35.9040 C.2    63  GLU63       0.3649
     51  OE1       -6.2870  -28.6770  -36.1430 O.co2  63  GLU63      -0.2457
     52  OE2       -7.3080  -30.4940  -36.8180 O.co2  63  GLU63      -0.2457
     53  N         -8.2030  -24.0240  -30.5740 N.3    65  CYS65      -0.1221
     54  CA        -8.4530  -22.7460  -31.2420 C.3    65  CYS65       0.1808
     55  C         -8.5250  -22.8550  -32.7540 C.2    65  CYS65       0.2601
     56  O         -8.8260  -21.8590  -33.4140 O.2    65  CYS65      -0.2717
     57  CB        -7.4350  -21.6720  -30.8500 C.3    65  CYS65       0.0970
     58  SG        -7.6910  -20.9230  -29.2150 S.3    65  CYS65      -0.0800
     59  N         -8.2340  -24.0480  -33.2930 N.am   66  ASN66      -0.1960
     60  CA        -8.3180  -24.3290  -34.7200 C.3    66  ASN66       0.1819
     61  C         -9.6230  -24.9770  -35.1010 C.2    66  ASN66       0.2622
     62  O         -9.7410  -25.4910  -36.1910 O.2    66  ASN66      -0.2715
     63  CB        -7.1550  -25.2150  -35.1940 C.3    66  ASN66       0.1195
     64  CG        -5.8490  -24.4690  -35.2750 C.2    66  ASN66       0.2630
     65  OD1       -4.8200  -24.9100  -34.7390 O.2    66  ASN66      -0.2716
     66  ND2       -5.8670  -23.3280  -35.9430 N.am   66  ASN66      -0.0877
     67  N        -10.6130  -24.9870  -34.2200 N.am   67  GLY67      -0.1940
     68  CA       -11.9230  -25.4120  -34.6600 C.3    67  GLY67       0.2017
     69  C        -12.4350  -26.6860  -34.0450 C.2    67  GLY67       0.2678
     70  O        -11.7640  -27.3350  -33.2380 O.2    67  GLY67      -0.2710
     71  N        -13.6510  -27.0650  -34.3970 N.am   68  GLY68      -0.1716
     72  CA       -14.2740  -28.1240  -33.6170 C.2    68  GLY68       0.1480
     73  C        -15.7450  -28.3140  -33.8270 C.2    68  GLY68       0.2820
     74  O        -16.3400  -27.6510  -34.6740 O.2    68  GLY68      -0.2669
     75  N        -16.3330  -29.2390  -33.0580 N.am   69  LEU69      -0.1929
     76  CA       -17.7440  -29.5420  -33.2150 C.3    69  LEU69       0.1731
     77  C        -18.4000  -29.5800  -31.8830 C.2    69  LEU69       0.2616
     78  O        -17.7900  -30.0250  -30.8890 O.2    69  LEU69      -0.2715
     79  CB       -17.9640  -30.9010  -33.8760 C.3    69  LEU69       0.0311
     80  CG       -17.4210  -31.2440  -35.2600 C.3    69  LEU69       0.0022
     81  CD1      -17.9030  -32.6230  -35.6590 C.3    69  LEU69       0.0001
     82  CD2      -17.7330  -30.2050  -36.3280 C.3    69  LEU69       0.0001
     83  N        -19.6520  -29.1300  -31.8680 N.am   70  MET70      -0.1963
     84  CA       -20.5120  -29.2190  -30.6890 C.3    70  MET70       0.1736
     85  C        -20.6890  -30.6340  -30.1880 C.2    70  MET70       0.2616
     86  O        -20.6850  -30.8770  -28.9660 O.2    70  MET70      -0.2715
     87  CB       -21.8830  -28.5870  -30.9820 C.3    70  MET70       0.0427
     88  CG       -21.8360  -27.0550  -31.0080 C.3    70  MET70       0.0599
     89  SD       -21.3110  -26.4200  -32.6290 S.3    70  MET70      -0.1393
     90  CE       -22.8650  -26.5770  -33.4680 C.3    70  MET70       0.0692
     91  N        -20.8480  -31.5680  -31.1280 N.am   71  ASP71      -0.1957
     92  CA       -21.1170  -32.9440  -30.7830 C.3    71  ASP71       0.1840
     93  C        -19.8980  -33.5280  -30.0380 C.2    71  ASP71       0.2622
     94  O        -20.0550  -34.2690  -29.0660 O.2    71  ASP71      -0.2715
     95  CB       -21.4990  -33.7730  -32.0470 C.3    71  ASP71       0.1450
     96  CG       -22.9510  -33.5040  -32.5440 C.2    71  ASP71       0.3671
     97  OD1      -23.7270  -32.7280  -31.9280 O.co2  71  ASP71      -0.2456
     98  OD2      -23.3370  -34.1100  -33.5770 O.co2  71  ASP71      -0.2456
     99  N        -18.6920  -33.1700  -30.4950 N.am   72  TYR72      -0.1974
    100  CA       -17.4510  -33.6990  -29.9420 C.3    72  TYR72       0.1639
    101  C        -17.3490  -33.1300  -28.5250 C.2    72  TYR72       0.2290
    102  O        -16.8830  -33.8230  -27.5770 O.2    72  TYR72      -0.2864
    103  CB       -16.2330  -33.2300  -30.7170 C.3    72  TYR72       0.0560
    104  CG       -16.0010  -33.7210  -32.1620 C.ar   72  TYR72      -0.0198
    105  CD1      -16.6390  -34.8570  -32.6890 C.ar   72  TYR72      -0.0009
    106  CD2      -15.1090  -33.0340  -32.9780 C.ar   72  TYR72      -0.0009
    107  CE1      -16.3790  -35.3030  -33.9680 C.ar   72  TYR72       0.0417
    108  CE2      -14.8430  -33.4690  -34.2610 C.ar   72  TYR72       0.0417
    109  CZ       -15.4740  -34.6060  -34.7620 C.ar   72  TYR72       0.1957
    110  OH       -15.2260  -35.0110  -36.0700 O.3    72  TYR72      -0.2866
    111  N        -25.2150  -24.9910  -36.5040 N.3   135  ALA135     -0.1245
    112  CA       -24.0540  -24.4400  -37.1560 C.3   135  ALA135      0.1562
    113  C        -24.5520  -23.8320  -38.4670 C.2   135  ALA135      0.2260
    114  O        -25.4700  -24.3420  -39.0720 O.2   135  ALA135     -0.2867
    115  CB       -22.9910  -25.5050  -37.3390 C.3   135  ALA135      0.0290
    116  N        -21.7450  -24.8930  -43.8790 N.3   161  MET161     -0.1230
    117  CA       -21.7720  -24.2230  -42.5780 C.3   161  MET161      0.1702
    118  C        -20.3450  -24.2580  -42.0210 C.2   161  MET161      0.2592
    119  O        -19.5870  -25.1740  -42.3220 O.2   161  MET161     -0.2718
    120  CB       -22.7360  -24.8790  -41.6110 C.3   161  MET161      0.0401
    121  CG       -24.1810  -25.0060  -42.0610 C.3   161  MET161      0.0596
    122  SD       -24.5260  -26.4950  -42.9670 S.3   161  MET161     -0.1393
    123  CE       -23.9360  -27.7970  -41.8800 C.3   161  MET161      0.0692
    124  N        -19.9760  -23.2320  -41.2610 N.am  162  ASP162     -0.1960
    125  CA       -18.5820  -23.0710  -40.8120 C.3   162  ASP162      0.1840
    126  C        -18.4630  -22.4670  -39.4140 C.2   162  ASP162      0.2622
    127  O        -17.3480  -22.1340  -38.9680 O.2   162  ASP162     -0.2715
    128  CB       -17.7970  -22.2330  -41.8390 C.3   162  ASP162      0.1450
    129  CG       -18.3590  -20.8280  -42.0350 C.2   162  ASP162      0.3671
    130  OD1      -19.3580  -20.4220  -41.3700 O.co2 162  ASP162     -0.2456
    131  OD2      -17.7850  -20.1310  -42.8810 O.co2 162  ASP162     -0.2456
    132  N        -19.6080  -22.3280  -38.7250 N.am  163  HIS163     -0.1959
    133  CA       -19.7080  -21.4930  -37.4990 C.3   163  HIS163      0.1787
    134  C        -20.7620  -21.9890  -36.5250 C.2   163  HIS163      0.2620
    135  O        -21.9580  -22.0670  -36.8810 O.2   163  HIS163     -0.2715
    136  CB       -19.9600  -20.0310  -37.8940 C.3   163  HIS163      0.0785
    137  CG       -20.0180  -19.0570  -36.7300 C.ar  163  HIS163      0.0821
    138  ND1      -18.9160  -18.7060  -35.9730 N.ar  163  HIS163     -0.2267
    139  CD2      -21.0480  -18.3480  -36.2230 C.ar  163  HIS163      0.1154
    140  CE1      -19.2620  -17.8310  -35.0510 C.ar  163  HIS163      0.1986
    141  NE2      -20.5520  -17.5820  -35.1920 N.ar  163  HIS163     -0.2212
    142  N        -20.3590  -22.3590  -35.2940 N.am  164  GLY164     -0.1954
    143  CA       -21.3430  -22.7810  -34.2940 C.3   164  GLY164      0.1869
    144  C        -21.9610  -21.6430  -33.4770 C.2   164  GLY164      0.2309
    145  O        -21.2350  -20.7900  -32.9440 O.2   164  GLY164     -0.2863
    146  N        -27.1630  -29.0770  -39.0100 N.3   211  ALA211     -0.1245
    147  CA       -26.3470  -29.6850  -37.9600 C.3   211  ALA211      0.1562
    148  C        -26.8350  -29.1930  -36.5950 C.2   211  ALA211      0.2260
    149  O        -26.0800  -28.5830  -35.8650 O.2   211  ALA211     -0.2867
    150  CB       -24.8610  -29.3370  -38.1840 C.3   211  ALA211      0.0290
@<TRIPOS>BOND
     1   116   117    1
     2   122   121    1
     3   122   123    1
     4   131   129   ar
     5   117   118    1
     6   117   120    1
     7   119   118    2
     8   121   120    1
     9   129   128    1
    10   129   130   ar
    11   118   124   am
    12   128   125    1
    13   124   125    1
    14   125   126    1
    15   126   127    2
    16   126   132   am
    17   114   113    2
    18   146   147    1
    19   132   133    1
    20   113   112    1
    21   150   147    1
    22   147   148    1
    23   136   133    1
    24   136   137    1
    25   133   134    1
    26   115   112    1
    27   112   111    1
    28   135   134    2
    29    52    50   ar
    30   137   139   ar
    31   137   138   ar
    32   148   149    2
    33   134   142   am
    34    82    80    1
    35   139   141   ar
    36    62    61    2
    37    51    50   ar
    38   110   109    1
    39   138   140   ar
    40    66    64   am
    41    50    49    1
    42    81    80    1
    43   142   143    1
    44    64    63    1
    45    64    65    2
    46    80    79    1
    47    63    60    1
    48   141   140   ar
    49    61    60    1
    50    61    67   am
    51   109   108   ar
    52   109   107   ar
    53    60    59    1
    54    74    73    2
    55    68    67    1
    56    68    69    1
    57    49    48    1
    58    25    24    1
    59    71    69    1
    60    71    72    2
    61   143   144    1
    62   108   106   ar
    63    69    70    2
    64   107   105   ar
    65    48    45    1
    66    79    76    1
    67    73    72    1
    68    73    75   am
    69    43    42    2
    70    98    96   ar
    71   144   145    2
    72    90    89    1
    73    56    55    2
    74    11    12    1
    75    11    10    1
    76    59    55   am
    77    76    75    1
    78    76    77    1
    79    24    21    1
    80   106   104   ar
    81    13    12    2
    82    55    54    1
    83   105   104   ar
    84    89    88    1
    85    12    14   am
    86    42    41    1
    87    96    95    1
    88    96    97   ar
    89    41    40    1
    90     9     7   am
    91    45    44    1
    92    45    46    1
    93    32    31   ar
    94    32    34   ar
    95    47    46    2
    96   104   103    1
    97    95    92    1
    98    30    31    1
    99    30    27    1
   100    77    83   am
   101    77    78    2
   102    83    84    1
   103     8     7    2
   104    20    21    1
   105    20    16   am
   106    21    22    1
   107    14    15    1
   108     7     6    1
   109    31    33   ar
   110    26    27    1
   111    26    22   am
   112    34    35   ar
   113    27    28    1
   114    54    57    1
   115    54    53    1
   116    22    23    2
   117    91    92    1
   118    91    85   am
   119    88    87    1
   120    87    84    1
   121    57    58    1
   122    92    93    1
   123    15    16    1
   124    15    18    1
   125   103   100    1
   126    84    85    1
   127    16    17    2
   128     6     5    1
   129    99    93   am
   130    99   100    1
   131    33    35   ar
   132    33    36   ar
   133    35    37   ar
   134    85    86    2
   135    93    94    2
   136   100   101    1
   137    28    29    2
   138    37    39   ar
   139    36    38   ar
   140    18    19    1
   141     5     2    1
   142   101   102    2
   143    39    38   ar
   144     3     4    2
   145     3     2    1
   146     2     1    1
