@<TRIPOS>MOLECULE
tmp/6f06A00.pdb
 150 146 0 0 0
SMALL
GASTEIGER

@<TRIPOS>ATOM
      1  N          5.1430  -10.5730  -13.4510 N.3    19  GLN19      -0.1245
      2  CA         6.1460   -9.5270  -13.4440 C.3    19  GLN19       0.1566
      3  C          7.5710  -10.0860  -13.2340 C.2    19  GLN19       0.2260
      4  O          8.5440   -9.4020  -13.5450 O.2    19  GLN19      -0.2867
      5  CB         5.8130   -8.4930  -12.4040 C.3    19  GLN19       0.0367
      6  CG         5.9200   -9.0380  -10.9890 C.3    19  GLN19       0.0905
      7  CD         5.3660   -8.0650  -10.0140 C.2    19  GLN19       0.2608
      8  OE1        4.1200   -7.9110   -9.8840 O.2    19  GLN19      -0.2717
      9  NE2        6.2850   -7.3510   -9.3160 N.am   19  GLN19      -0.0878
     10  N         10.1100   -5.2320   -9.4670 N.3    23  GLY23      -0.1210
     11  CA         9.0630   -4.5620   -8.6550 C.3    23  GLY23       0.1956
     12  C          8.2660   -3.6740   -9.5760 C.2    23  GLY23       0.2613
     13  O          8.2520   -2.4470   -9.4360 O.2    23  GLY23      -0.2717
     14  N          7.6050   -4.3230  -10.5380 N.am   24  SER24      -0.1938
     15  CA         6.8620   -3.6490  -11.6080 C.3    24  SER24       0.2055
     16  C          5.3440   -3.8450  -11.5490 C.2    24  SER24       0.2643
     17  O          4.6570   -3.5580  -12.5350 O.2    24  SER24      -0.2714
     18  CB         7.3600   -4.1570  -12.9640 C.3    24  SER24       0.2130
     19  OG         7.3490   -5.5750  -12.9990 O.3    24  SER24      -0.2179
     20  N          4.7960   -4.3570  -10.4440 N.am   25  CYS25      -0.1953
     21  CA         3.3260   -4.4830  -10.3580 C.3    25  CYS25       0.1843
     22  C          2.5870   -3.2130  -10.8450 C.2    25  CYS25       0.2625
     23  O          1.5690   -3.3110  -11.5550 O.2    25  CYS25      -0.2714
     24  CB         2.8670   -4.7990   -8.9480 C.3    25  CYS25       0.0997
     25  SG         3.2980   -3.5510   -7.7080 S.3    25  CYS25      -0.0797
     26  N          3.0840   -2.0290  -10.4880 N.am   26  TRP26      -0.1974
     27  CA         2.4770   -0.7650  -10.9740 C.3    26  TRP26       0.1640
     28  C          2.3350   -0.7020  -12.5160 C.2    26  TRP26       0.2290
     29  O          1.3680   -0.1160  -13.0470 O.2    26  TRP26      -0.2864
     30  CB         3.3010    0.4410  -10.4810 C.3    26  TRP26       0.0576
     31  CG         4.7790    0.3710  -10.9120 C.ar   26  TRP26       0.0006
     32  CD1        5.8070   -0.2700  -10.2620 C.ar   26  TRP26       0.0946
     33  CD2        5.3640    0.9700  -12.0860 C.ar   26  TRP26       0.0152
     34  NE1        6.9910   -0.1120  -10.9640 N.ar   26  TRP26      -0.2442
     35  CE2        6.7460    0.6650  -12.0740 C.ar   26  TRP26       0.0810
     36  CE3        4.8520    1.7360  -13.1450 C.ar   26  TRP26       0.0012
     37  CZ2        7.6180    1.0790  -13.1000 C.ar   26  TRP26       0.0191
     38  CZ3        5.7470    2.1830  -14.1700 C.ar   26  TRP26       0.0001
     39  CH2        7.1000    1.8430  -14.1210 C.ar   26  TRP26       0.0015
     40  N          8.3010   10.0640  -12.4350 N.3    61  GLY61      -0.1225
     41  CA         8.4920    9.7340  -11.0260 C.3    61  GLY61       0.1811
     42  C          8.4780    8.2410  -10.7400 C.2    61  GLY61       0.2280
     43  O          8.6320    7.8320   -9.6080 O.2    61  GLY61      -0.2866
     44  N         10.3260    4.6130  -10.6320 N.3    63  GLU63      -0.1245
     45  CA        11.6230    4.0720  -10.2800 C.3    63  GLU63       0.1567
     46  C         11.9080    2.6600  -10.8660 C.2    63  GLU63       0.2260
     47  O         12.6380    1.8570  -10.2890 O.2    63  GLU63      -0.2867
     48  CB        11.8020    4.1010   -8.7550 C.3    63  GLU63       0.0388
     49  CG        12.9590    4.9830   -8.2870 C.3    63  GLU63       0.1160
     50  CD        12.5280    6.0260   -7.2670 C.2    63  GLU63       0.3649
     51  OE1       13.0010    5.9740   -6.0990 O.co2  63  GLU63      -0.2457
     52  OE2       11.7030    6.8980   -7.6350 O.co2  63  GLU63      -0.2457
     53  N         12.2720   -0.9900  -11.7270 N.3    65  CYS65      -0.1221
     54  CA        12.0980   -2.1890  -10.8780 C.3    65  CYS65       0.1808
     55  C         12.1400   -1.8990   -9.3890 C.2    65  CYS65       0.2601
     56  O         11.8800   -2.7930   -8.5820 O.2    65  CYS65      -0.2717
     57  CB        13.0610   -3.3400  -11.2110 C.3    65  CYS65       0.0970
     58  SG        12.8310   -4.0710  -12.8430 S.3    65  CYS65      -0.0800
     59  N         12.4180   -0.6510   -9.0180 N.am   66  ASN66      -0.1960
     60  CA        12.2270   -0.2660   -7.6240 C.3    66  ASN66       0.1819
     61  C         10.8520    0.3230   -7.2760 C.2    66  ASN66       0.2622
     62  O         10.6090    0.7320   -6.1370 O.2    66  ASN66      -0.2715
     63  CB        13.3860    0.5900   -7.1240 C.3    66  ASN66       0.1195
     64  CG        14.6110   -0.2500   -6.8410 C.2    66  ASN66       0.2630
     65  OD1       15.6930    0.0100   -7.3540 O.2    66  ASN66      -0.2716
     66  ND2       14.4320   -1.2940   -6.0320 N.am   66  ASN66      -0.0877
     67  N          9.9490    0.3670   -8.2480 N.am   67  GLY67      -0.1940
     68  CA         8.5870    0.7350   -7.9580 C.3    67  GLY67       0.2014
     69  C          8.0670    1.9670   -8.6820 C.2    67  GLY67       0.2639
     70  O          8.7930    2.7110   -9.3730 O.2    67  GLY67      -0.2714
     71  N          6.7800    2.2080   -8.5040 N.am   68  GLY68      -0.1939
     72  CA         6.1950    3.3180   -9.2290 C.3    68  GLY68       0.2014
     73  C          4.7450    3.3690   -8.8670 C.2    68  GLY68       0.2639
     74  O          4.3370    2.6510   -7.9610 O.2    68  GLY68      -0.2714
     75  N          3.9930    4.1950   -9.6090 N.am   69  LEU69      -0.1963
     76  CA         2.5560    4.4400   -9.4190 C.3    69  LEU69       0.1728
     77  C          1.8400    4.4060  -10.7760 C.2    69  LEU69       0.2616
     78  O          2.4180    4.7840  -11.8350 O.2    69  LEU69      -0.2715
     79  CB         2.3530    5.8300   -8.8190 C.3    69  LEU69       0.0311
     80  CG         2.7780    5.9550   -7.3870 C.3    69  LEU69       0.0022
     81  CD1        2.4480    7.3380   -6.8840 C.3    69  LEU69       0.0001
     82  CD2        2.0640    4.8940   -6.5640 C.3    69  LEU69       0.0001
     83  N          0.5650    4.0000  -10.7620 N.am   70  MET70      -0.1963
     84  CA        -0.1390    3.8290  -12.0120 C.3    70  MET70       0.1736
     85  C         -0.3560    5.1970  -12.6070 C.2    70  MET70       0.2616
     86  O         -0.1480    5.3750  -13.8130 O.2    70  MET70      -0.2715
     87  CB        -1.4520    3.0470  -11.8150 C.3    70  MET70       0.0427
     88  CG        -1.2330    1.5620  -11.5470 C.3    70  MET70       0.0599
     89  SD        -0.8240    1.1430   -9.8390 S.3    70  MET70      -0.1393
     90  CE        -2.4580    1.3380   -9.0490 C.3    70  MET70       0.0692
     91  N         -0.7920    6.1610  -11.7830 N.am   71  ASP71      -0.1957
     92  CA        -0.9760    7.5080  -12.2520 C.3    71  ASP71       0.1840
     93  C          0.3080    7.9550  -12.9490 C.2    71  ASP71       0.2622
     94  O          0.2770    8.5570  -14.0280 O.2    71  ASP71      -0.2715
     95  CB        -1.3020    8.3990  -11.0850 C.3    71  ASP71       0.1450
     96  CG        -2.6800    8.0880  -10.5140 C.2    71  ASP71       0.3671
     97  OD1       -3.4690    7.2910  -11.1030 O.co2  71  ASP71      -0.2456
     98  OD2       -2.9690    8.6120   -9.4470 O.co2  71  ASP71      -0.2456
     99  N          1.4440    7.6120  -12.3750 N.am   72  TYR72      -0.1974
    100  CA         2.6760    8.0590  -12.9860 C.3    72  TYR72       0.1639
    101  C          2.8050    7.4910  -14.4130 C.2    72  TYR72       0.2290
    102  O          3.0980    8.2250  -15.3190 O.2    72  TYR72      -0.2864
    103  CB         3.9040    7.7660  -12.0990 C.3    72  TYR72       0.0560
    104  CG         4.0870    8.6370  -10.8370 C.ar   72  TYR72      -0.0198
    105  CD1        3.3260    9.8070  -10.6080 C.ar   72  TYR72      -0.0009
    106  CD2        5.0500    8.2850   -9.8840 C.ar   72  TYR72      -0.0009
    107  CE1        3.5180   10.5700   -9.4460 C.ar   72  TYR72       0.0417
    108  CE2        5.2510    9.0530   -8.7460 C.ar   72  TYR72       0.0417
    109  CZ         4.4900   10.1800   -8.5390 C.ar   72  TYR72       0.1957
    110  OH         4.7260   10.8890   -7.3990 O.3    72  TYR72      -0.2866
    111  N         -4.4490   -0.1770   -6.0300 N.3   135  ALA135     -0.1245
    112  CA        -3.4480   -0.7860   -5.1250 C.3   135  ALA135      0.1562
    113  C         -4.0970   -1.4130   -3.8660 C.2   135  ALA135      0.2260
    114  O         -5.0570   -0.8830   -3.2860 O.2   135  ALA135     -0.2867
    115  CB        -2.3880    0.2230   -4.7030 C.3   135  ALA135      0.0290
    116  N         -1.4190    0.1730    1.4260 N.3   161  MET161     -0.1230
    117  CA        -1.4230   -0.4770    0.1490 C.3   161  MET161      0.1702
    118  C         -0.0180   -0.4260   -0.3970 C.2   161  MET161      0.2592
    119  O          0.6330    0.5970   -0.2780 O.2   161  MET161     -0.2718
    120  CB        -2.3350    0.2130   -0.8570 C.3   161  MET161      0.0401
    121  CG        -3.7870    0.2860   -0.4120 C.3   161  MET161      0.0596
    122  SD        -4.0320    1.8190    0.4890 S.3   161  MET161     -0.1393
    123  CE        -4.1090    2.8740   -0.9640 C.3   161  MET161      0.0692
    124  N          0.4100   -1.5180   -1.0250 N.am  162  ASP162     -0.1960
    125  CA         1.7930   -1.6430   -1.4460 C.3   162  ASP162      0.1840
    126  C          1.9420   -2.2880   -2.8210 C.2   162  ASP162      0.2622
    127  O          3.0680   -2.5240   -3.2990 O.2   162  ASP162     -0.2715
    128  CB         2.6020   -2.3810   -0.3720 C.3   162  ASP162      0.1450
    129  CG         2.2270   -3.9060   -0.2080 C.2   162  ASP162      0.3671
    130  OD1        1.1770   -4.4110   -0.6970 O.co2 162  ASP162     -0.2456
    131  OD2        3.0350   -4.5950    0.4650 O.co2 162  ASP162     -0.2456
    132  N          0.8040   -2.5840   -3.4650 N.am  163  HIS163     -0.1959
    133  CA         0.8340   -3.4690   -4.6650 C.3   163  HIS163      0.1787
    134  C         -0.2740   -3.1590   -5.6650 C.2   163  HIS163      0.2620
    135  O         -1.4490   -3.3550   -5.3780 O.2   163  HIS163     -0.2715
    136  CB         0.7270   -4.9130   -4.1880 C.3   163  HIS163      0.0785
    137  CG         0.7950   -5.9410   -5.2670 C.ar  163  HIS163      0.0821
    138  ND1        1.9190   -6.1340   -6.0380 N.ar  163  HIS163     -0.2267
    139  CD2       -0.0850   -6.9110   -5.6190 C.ar  163  HIS163      0.1154
    140  CE1        1.6990   -7.1440   -6.8670 C.ar  163  HIS163      0.1986
    141  NE2        0.5020   -7.6440   -6.6130 N.ar  163  HIS163     -0.2212
    142  N          0.1060   -2.7190   -6.8590 N.am  164  GLY164     -0.1954
    143  CA        -0.8780   -2.4090   -7.8970 C.3   164  GLY164      0.1869
    144  C         -1.3180   -3.6460   -8.6850 C.2   164  GLY164      0.2309
    145  O         -0.5160   -4.5190   -9.0830 O.2   164  GLY164     -0.2863
    146  N         -6.9500    3.7450   -3.5990 N.3   214  ALA214     -0.1245
    147  CA        -6.0370    4.3030   -4.6350 C.3   214  ALA214      0.1562
    148  C         -6.3780    3.8000   -6.0540 C.2   214  ALA214      0.2260
    149  O         -5.5270    3.1920   -6.7500 O.2   214  ALA214     -0.2867
    150  CB        -4.6030    3.9510   -4.3100 C.3   214  ALA214      0.0290
@<TRIPOS>BOND
     1   102   101    2
     2   101   100    1
     3    38    39   ar
     4    38    36   ar
     5    39    37   ar
     6    94    93    2
     7    86    85    2
     8     4     3    2
     9     1     2    1
    10     2     3    1
    11     2     5    1
    12    36    33   ar
    13    37    35   ar
    14    29    28    2
    15    19    18    1
    16   100    99    1
    17   100   103    1
    18    18    15    1
    19    93    99   am
    20    93    92    1
    21    58    57    1
    22    85    84    1
    23    85    91   am
    24    17    16    2
    25    28    27    1
    26    40    41    1
    27     5     6    1
    28    92    91    1
    29    92    95    1
    30   103   104    1
    31    33    35   ar
    32    33    31   ar
    33    35    34   ar
    34    84    87    1
    35    84    83    1
    36    78    77    2
    37    87    88    1
    38    53    54    1
    39    15    16    1
    40    15    14    1
    41    23    22    2
    42    16    20   am
    43    88    89    1
    44    57    54    1
    45    97    96   ar
    46    95    96    1
    47    41    42    1
    48     6     7    1
    49    27    26    1
    50    27    30    1
    51    34    32   ar
    52    31    30    1
    53    31    32   ar
    54    54    55    1
    55    46    47    2
    56    46    45    1
    57    22    26   am
    58    22    21    1
    59   104   105   ar
    60   104   106   ar
    61    77    83   am
    62    77    76    1
    63    42    43    2
    64    44    45    1
    65   105   107   ar
    66    14    12   am
    67    96    98   ar
    68    20    21    1
    69    21    24    1
    70    45    48    1
    71     7     8    2
    72     7     9   am
    73   106   108   ar
    74    89    90    1
    75    75    76    1
    76    75    73   am
    77    12    13    2
    78    12    11    1
    79    10    11    1
    80   107   109   ar
    81    76    79    1
    82    55    59   am
    83    55    56    2
    84    70    69    2
    85    72    73    1
    86    72    71    1
    87   145   144    2
    88    59    60    1
    89    24    25    1
    90    73    74    2
    91    79    80    1
    92    48    49    1
    93   108   109   ar
    94   144   143    1
    95    69    71   am
    96    69    68    1
    97   109   110    1
    98    49    50    1
    99    67    68    1
   100    67    61   am
   101   143   142    1
   102    52    50   ar
   103    60    61    1
   104    60    63    1
   105    80    81    1
   106    80    82    1
   107    65    64    2
   108    61    62    2
   109    50    51   ar
   110    63    64    1
   111   140   141   ar
   112   140   138   ar
   113   142   134   am
   114    64    66   am
   115   149   148    2
   116   141   139   ar
   117   148   147    1
   118   138   137   ar
   119   111   112    1
   120   134   135    2
   121   134   133    1
   122   139   137   ar
   123   137   136    1
   124   112   115    1
   125   112   113    1
   126   133   136    1
   127   133   132    1
   128   147   150    1
   129   147   146    1
   130   113   114    2
   131   132   126   am
   132   127   126    2
   133   126   125    1
   134   125   124    1
   135   125   128    1
   136   124   118   am
   137   123   122    1
   138   120   121    1
   139   120   117    1
   140   130   129   ar
   141   121   122    1
   142   118   119    2
   143   118   117    1
   144   128   129    1
   145   129   131   ar
   146   117   116    1
