@<TRIPOS>MOLECULE
tmp/6f09A00.pdb
 77 73 0 0 0
SMALL
GASTEIGER

@<TRIPOS>ATOM
      1  N        -13.4500   11.1800    4.5210 N.3    37  ASN37      -0.1240
      2  CA       -12.9540    9.9750    5.1670 C.3    37  ASN37       0.1653
      3  C        -13.5580    8.7450    4.5070 C.2    37  ASN37       0.2266
      4  O        -12.8580    7.7600    4.2340 O.2    37  ASN37      -0.2867
      5  CB       -13.2980   10.0260    6.6580 C.3    37  ASN37       0.1155
      6  CG       -12.3180    9.2600    7.5170 C.2    37  ASN37       0.2627
      7  OD1      -11.2380    9.7570    7.8350 O.2    37  ASN37      -0.2716
      8  ND2      -12.6990    8.0550    7.9200 N.am   37  ASN37      -0.0877
      9  N        -11.6800    5.8660    1.8270 N.3    41  ASN41      -0.1240
     10  CA       -11.6520    4.4280    2.0570 C.3    41  ASN41       0.1653
     11  C        -12.3250    3.6580    0.9290 C.2    41  ASN41       0.2266
     12  O        -11.8930    2.5440    0.6150 O.2    41  ASN41      -0.2867
     13  CB       -12.3070    4.0880    3.3920 C.3    41  ASN41       0.1155
     14  CG       -11.5750    4.7070    4.5590 C.2    41  ASN41       0.2627
     15  OD1      -10.7890    5.6430    4.3850 O.2    41  ASN41      -0.2716
     16  ND2      -11.8310    4.1970    5.7580 N.am   41  ASN41      -0.0877
     17  N         -3.7710   14.0020    7.9920 N.3   112  GLU112     -0.1245
     18  CA        -4.2880   12.6420    7.9370 C.3   112  GLU112      0.1567
     19  C         -4.4020   12.1700    6.4960 C.2   112  GLU112      0.2260
     20  O         -3.8810   11.1060    6.1370 O.2   112  GLU112     -0.2867
     21  CB        -5.6270   12.5440    8.6680 C.3   112  GLU112      0.0388
     22  CG        -5.9530   11.1310    9.1340 C.3   112  GLU112      0.1160
     23  CD        -6.9640   10.4280    8.2570 C.2   112  GLU112      0.3649
     24  OE1       -7.4370   11.0390    7.2770 O.co2 112  GLU112     -0.2457
     25  OE2       -7.2970    9.2630    8.5520 O.co2 112  GLU112     -0.2457
     26  N         -2.1490    9.4370    4.3130 N.3   116  PHE116     -0.1241
     27  CA        -2.8820    8.3510    3.6730 C.3   116  PHE116      0.1605
     28  C         -2.5170    8.2250    2.2060 C.2   116  PHE116      0.2264
     29  O         -2.2580    7.1140    1.7220 O.2   116  PHE116     -0.2867
     30  CB        -4.3820    8.5800    3.8240 C.3   116  PHE116      0.0534
     31  CG        -5.2250    7.4390    3.3300 C.ar  116  PHE116     -0.0203
     32  CD1       -5.6930    7.4130    2.0270 C.ar  116  PHE116     -0.0042
     33  CD2       -5.6110    6.4280    4.1980 C.ar  116  PHE116     -0.0042
     34  CE1       -6.4960    6.3620    1.5810 C.ar  116  PHE116     -0.0003
     35  CE2       -6.4120    5.3880    3.7600 C.ar  116  PHE116     -0.0003
     36  CZ        -6.8500    5.3660    2.4560 C.ar  116  PHE116     -0.0000
     37  N         -2.1240    5.6030   15.9210 N.3   163  HIS163     -0.1227
     38  CA        -3.0700    5.8810   14.8550 C.3   163  HIS163      0.1737
     39  C         -2.9770    4.7750   13.8090 C.2   163  HIS163      0.2438
     40  O         -1.8820    4.4810   13.3420 O.2   163  HIS163     -0.2733
     41  CB        -2.7620    7.2470   14.2050 C.3   163  HIS163      0.0758
     42  CG        -3.8250    7.7090   13.2570 C.ar  163  HIS163      0.0818
     43  ND1       -4.2270    6.9680   12.1650 N.ar  163  HIS163     -0.2268
     44  CD2       -4.6000    8.8190   13.2570 C.ar  163  HIS163      0.1154
     45  CE1       -5.1880    7.6070   11.5230 C.ar  163  HIS163      0.1986
     46  NE2       -5.4350    8.7330   12.1690 N.ar  163  HIS163     -0.2212
     47  N         -4.0820    4.1360   13.4210 N.am  164  PRO164     -0.2718
     48  CA        -3.9550    3.0150   12.4590 C.3   164  PRO164      0.1535
     49  C         -3.2410    3.3820   11.1750 C.2   164  PRO164      0.2598
     50  O         -2.5550    2.5320   10.5790 O.2   164  PRO164     -0.2715
     51  CB        -5.4180    2.6090   12.2040 C.3   164  PRO164      0.0310
     52  CG        -6.1120    2.9800   13.4390 C.3   164  PRO164      0.0237
     53  CD        -5.4380    4.1980   14.0020 C.3   164  PRO164      0.0939
     54  N         -3.3920    4.6170   10.6900 N.am  165  ILE165     -0.1978
     55  CA        -2.7030    4.9750    9.4610 C.3   165  ILE165      0.1596
     56  C         -1.2060    5.0710    9.6940 C.2   165  ILE165      0.2287
     57  O         -0.4270    4.6690    8.8390 O.2   165  ILE165     -0.2864
     58  CB        -3.2540    6.2740    8.8760 C.3   165  ILE165      0.0276
     59  CG1       -4.6820    6.0560    8.3970 C.3   165  ILE165      0.0022
     60  CG2       -2.3180    6.7950    7.7570 C.3   165  ILE165      0.0022
     61  CD1       -5.3860    7.3310    7.9960 C.3   165  ILE165      0.0001
     62  N         -8.5340   -1.5950   16.6140 N.3   212  ASP212     -0.1239
     63  CA        -7.9880   -1.0380   15.3790 C.3   212  ASP212      0.1674
     64  C         -6.4670   -1.0610   15.3870 C.2   212  ASP212      0.2266
     65  O         -5.8230   -1.4710   14.4140 O.2   212  ASP212     -0.2867
     66  CB        -8.4670    0.4050   15.2110 C.3   212  ASP212      0.1410
     67  CG        -9.9480    0.5060   14.9380 C.2   212  ASP212      0.3668
     68  OD1      -10.5000   -0.4360   14.3380 O.co2 212  ASP212     -0.2456
     69  OD2      -10.5530    1.5320   15.3170 O.co2 212  ASP212     -0.2456
     70  N         -3.1540   -4.0050   13.5820 N.3   216  ILE216     -0.1245
     71  CA        -1.9810   -3.7100   12.7750 C.3   216  ILE216      0.1561
     72  C         -0.7340   -4.0700   13.5460 C.2   216  ILE216      0.2260
     73  O          0.2350   -4.5580   12.9800 O.2   216  ILE216     -0.2867
     74  CB        -1.9680   -2.2440   12.3450 C.3   216  ILE216      0.0252
     75  CG1       -3.2460   -1.9200   11.5580 C.3   216  ILE216      0.0019
     76  CG2       -0.7420   -1.9910   11.5320 C.3   216  ILE216      0.0019
     77  CD1       -3.4040   -0.4840   11.2290 C.3   216  ILE216      0.0001
@<TRIPOS>BOND
     1    12    11    2
     2    11    10    1
     3    34    32   ar
     4    34    36   ar
     5    29    28    2
     6     9    10    1
     7    32    31   ar
     8    10    13    1
     9    28    27    1
    10    36    35   ar
    11    31    30    1
    12    31    33   ar
    13    13    14    1
    14    27    30    1
    15    27    26    1
    16    35    33   ar
    17     4     3    2
    18    15    14    2
    19     3     2    1
    20     1     2    1
    21    14    16   am
    22     2     5    1
    23    20    19    2
    24    19    18    1
    25     5     6    1
    26    24    23   ar
    27     6     7    2
    28     6     8   am
    29    60    58    1
    30    18    17    1
    31    18    21    1
    32    61    59    1
    33    23    25   ar
    34    23    22    1
    35    59    58    1
    36    21    22    1
    37    57    56    2
    38    58    55    1
    39    55    56    1
    40    55    54    1
    41    50    49    2
    42    54    49   am
    43    49    48    1
    44    77    75    1
    45    45    43   ar
    46    45    46   ar
    47    76    74    1
    48    75    74    1
    49    43    42   ar
    50    46    44   ar
    51    51    48    1
    52    51    52    1
    53    74    71    1
    54    48    47    1
    55    71    72    1
    56    71    70    1
    57    73    72    2
    58    42    44   ar
    59    42    41    1
    60    40    39    2
    61    47    39   am
    62    47    53    1
    63    52    53    1
    64    39    38    1
    65    41    38    1
    66    68    67   ar
    67    65    64    2
    68    38    37    1
    69    67    66    1
    70    67    69   ar
    71    66    63    1
    72    63    64    1
    73    63    62    1
