@<TRIPOS>MOLECULE
tmp/6f0aA00.pdb
 108 104 0 0 0
SMALL
GASTEIGER

@<TRIPOS>ATOM
      1  N        -39.0860   23.2620   30.3430 N.3   114  LEU114     -0.1231
      2  CA       -38.9320   24.6400   29.9130 C.3   114  LEU114      0.1693
      3  C        -37.4510   24.8930   29.6360 C.2   114  LEU114      0.2592
      4  O        -36.6060   24.6200   30.4980 O.2   114  LEU114     -0.2718
      5  CB       -39.4430   25.6130   30.9950 C.3   114  LEU114      0.0284
      6  CG       -39.4850   27.0950   30.5960 C.3   114  LEU114      0.0019
      7  CD1      -40.6410   27.3820   29.5950 C.3   114  LEU114      0.0001
      8  CD2      -39.5900   27.9820   31.8240 C.3   114  LEU114      0.0001
      9  N        -37.1400   25.3640   28.4120 N.am  115  VAL115     -0.1966
     10  CA       -35.7620   25.6520   28.0030 C.3   115  VAL115      0.1727
     11  C        -35.6210   27.1380   27.6540 C.2   115  VAL115      0.2616
     12  O        -36.6230   27.8500   27.4970 O.2   115  VAL115     -0.2715
     13  CB       -35.2300   24.7240   26.8650 C.3   115  VAL115      0.0290
     14  CG1      -35.2980   23.2430   27.2500 C.3   115  VAL115      0.0023
     15  CG2      -35.9440   24.9800   25.5380 C.3   115  VAL115      0.0023
     16  N        -34.3620   27.5840   27.5270 N.am  116  TYR116     -0.1974
     17  CA       -33.9340   28.9200   27.1420 C.3   116  TYR116      0.1639
     18  C        -34.6870   29.4280   25.9010 C.2   116  TYR116      0.2290
     19  O        -35.1760   30.5520   25.9200 O.2   116  TYR116     -0.2864
     20  CB       -32.4270   28.8810   26.8550 C.3   116  TYR116      0.0560
     21  CG       -31.8260   30.2470   26.6000 C.ar  116  TYR116     -0.0198
     22  CD1      -31.5740   31.1260   27.6500 C.ar  116  TYR116     -0.0009
     23  CD2      -31.5020   30.6580   25.3070 C.ar  116  TYR116     -0.0009
     24  CE1      -31.0260   32.3850   27.4210 C.ar  116  TYR116      0.0417
     25  CE2      -30.9550   31.9190   25.0670 C.ar  116  TYR116      0.0417
     26  CZ       -30.7120   32.7750   26.1300 C.ar  116  TYR116      0.1957
     27  OH       -30.1380   34.0030   25.9180 O.3   116  TYR116     -0.2866
     28  N        -38.4600   30.1750   26.9950 N.3   119  CYS119     -0.1221
     29  CA       -38.5380   31.1970   28.0130 C.3   119  CYS119      0.1808
     30  C        -37.8680   32.5250   27.7170 C.2   119  CYS119      0.2601
     31  O        -38.1790   33.5040   28.3870 O.2   119  CYS119     -0.2717
     32  CB       -38.0320   30.6300   29.3230 C.3   119  CYS119      0.0970
     33  SG       -38.8500   31.3480   30.7530 S.3   119  CYS119     -0.0800
     34  N        -36.9350   32.5610   26.7790 N.am  120  VAL120     -0.1979
     35  CA       -36.2370   33.7660   26.3920 C.3   120  VAL120      0.1595
     36  C        -36.5130   34.0520   24.9190 C.2   120  VAL120      0.2287
     37  O        -37.0610   35.1090   24.6160 O.2   120  VAL120     -0.2864
     38  CB       -34.7030   33.7310   26.7590 C.3   120  VAL120      0.0276
     39  CG1      -33.9090   34.8320   26.0510 C.3   120  VAL120      0.0022
     40  CG2      -34.4850   33.8110   28.2730 C.3   120  VAL120      0.0022
     41  N        -35.4390   39.7270   33.8990 N.3   153  PHE153     -0.1227
     42  CA       -34.5050   38.6340   33.6560 C.3   153  PHE153      0.1736
     43  C        -34.5760   38.0840   32.2240 C.2   153  PHE153      0.2595
     44  O        -33.5460   38.0390   31.5580 O.2   153  PHE153     -0.2718
     45  CB       -34.6530   37.5200   34.6930 C.3   153  PHE153      0.0547
     46  CG       -33.6300   36.4240   34.5370 C.ar  153  PHE153     -0.0202
     47  CD1      -32.2730   36.6900   34.6880 C.ar  153  PHE153     -0.0042
     48  CD2      -34.0200   35.1310   34.2260 C.ar  153  PHE153     -0.0042
     49  CE1      -31.3240   35.6870   34.5110 C.ar  153  PHE153     -0.0003
     50  CE2      -33.0690   34.1170   34.0690 C.ar  153  PHE153     -0.0003
     51  CZ       -31.7280   34.4040   34.2130 C.ar  153  PHE153     -0.0000
     52  N        -35.7790   37.7090   31.7470 N.am  154  PHE154     -0.1976
     53  CA       -35.9300   37.1770   30.3850 C.3   154  PHE154      0.1639
     54  C        -35.6230   38.1930   29.3070 C.2   154  PHE154      0.2290
     55  O        -34.9830   37.8080   28.3320 O.2   154  PHE154     -0.2864
     56  CB       -37.3060   36.5230   30.1340 C.3   154  PHE154      0.0560
     57  CG       -37.7110   35.4650   31.1340 C.ar  154  PHE154     -0.0200
     58  CD1      -36.7610   34.6190   31.7040 C.ar  154  PHE154     -0.0042
     59  CD2      -39.0440   35.3080   31.4980 C.ar  154  PHE154     -0.0042
     60  CE1      -37.1340   33.6690   32.6630 C.ar  154  PHE154     -0.0003
     61  CE2      -39.4230   34.3350   32.4260 C.ar  154  PHE154     -0.0003
     62  CZ       -38.4680   33.5400   33.0220 C.ar  154  PHE154     -0.0000
     63  N        -31.7700   38.9220   29.2040 N.3   157  SER157     -0.1217
     64  CA       -31.1660   37.7450   28.5700 C.3   157  SER157      0.1889
     65  C        -31.3590   37.8060   27.0450 C.2   157  SER157      0.2288
     66  O        -30.4000   37.6130   26.3000 O.2   157  SER157     -0.2866
     67  CB       -31.7640   36.4560   29.1320 C.3   157  SER157      0.2089
     68  OG       -31.3270   36.2200   30.4600 O.3   157  SER157     -0.2183
     69  N        -37.1880   27.8830   37.1760 N.3   224  LEU224     -0.1245
     70  CA       -36.2970   27.6270   36.0460 C.3   224  LEU224      0.1561
     71  C        -35.4760   26.3620   36.3210 C.2   224  LEU224      0.2260
     72  O        -34.7490   25.8920   35.4330 O.2   224  LEU224     -0.2867
     73  CB       -35.3840   28.8380   35.8090 C.3   224  LEU224      0.0270
     74  CG       -36.0480   30.2130   35.6690 C.3   224  LEU224      0.0019
     75  CD1      -34.9850   31.2950   35.5630 C.3   224  LEU224      0.0001
     76  CD2      -36.9980   30.2530   34.4750 C.3   224  LEU224      0.0001
     77  N        -33.3800   25.1690   33.0210 N.3   252  GLY252     -0.1210
     78  CA       -32.9530   26.1750   32.0520 C.3   252  GLY252      0.1956
     79  C        -31.7460   27.0090   32.4430 C.2   252  GLY252      0.2613
     80  O        -31.6270   27.4380   33.5920 O.2   252  GLY252     -0.2717
     81  N        -30.8570   27.2760   31.4680 N.am  253  SER253     -0.1938
     82  CA       -29.6890   28.1530   31.6110 C.3   253  SER253      0.2055
     83  C        -29.2410   28.7270   30.2680 C.2   253  SER253      0.2642
     84  O        -29.5640   28.1560   29.2230 O.2   253  SER253     -0.2714
     85  CB       -28.5340   27.4830   32.3610 C.3   253  SER253      0.2130
     86  OG       -27.7930   26.5830   31.5620 O.3   253  SER253     -0.2179
     87  N        -28.4800   29.8480   30.2830 N.am  254  ALA254     -0.1977
     88  CA       -27.9630   30.3790   29.0230 C.3   254  ALA254      0.1597
     89  C        -26.8230   29.4910   28.4510 C.2   254  ALA254      0.2287
     90  O        -26.3280   29.7360   27.3610 O.2   254  ALA254     -0.2864
     91  CB       -27.5820   31.8480   29.1290 C.3   254  ALA254      0.0319
     92  N        -20.3330   38.5460   34.0960 N.3   336  HIS336     -0.1241
     93  CA       -21.3220   37.5330   34.4390 C.3   336  HIS336      0.1621
     94  C        -21.1000   36.9580   35.8480 C.2   336  HIS336      0.2264
     95  O        -22.0710   36.7660   36.5800 O.2   336  HIS336     -0.2867
     96  CB       -21.2720   36.4270   33.3980 C.3   336  HIS336      0.0745
     97  CG       -22.3110   35.3860   33.5950 C.ar  336  HIS336      0.0817
     98  ND1      -22.0280   34.2060   34.2540 N.ar  336  HIS336     -0.2268
     99  CD2      -23.6040   35.3830   33.2180 C.ar  336  HIS336      0.1154
    100  CE1      -23.1480   33.5130   34.2440 C.ar  336  HIS336      0.1986
    101  NE2      -24.1300   34.1900   33.6500 N.ar  336  HIS336     -0.2212
    102  N        -29.5270   26.8090   38.0050 N.3   359  THR359     -0.1218
    103  CA       -30.7980   26.2410   37.5270 C.3   359  THR359      0.1862
    104  C        -30.5280   25.1500   36.4650 C.2   359  THR359      0.2287
    105  O        -31.2910   24.1920   36.3690 O.2   359  THR359     -0.2866
    106  CB       -31.7440   27.3330   37.0250 C.3   359  THR359      0.1770
    107  OG1      -31.0850   28.0920   36.0160 O.3   359  THR359     -0.2211
    108  CG2      -32.2090   28.2430   38.1330 C.3   359  THR359      0.0375
@<TRIPOS>BOND
     1    37    36    2
     2    36    35    1
     3    25    23   ar
     4    25    26   ar
     5    23    21   ar
     6    15    13    1
     7    18    19    2
     8    18    17    1
     9    27    26    1
    10    39    38    1
    11    26    24   ar
    12    66    65    2
    13    35    38    1
    14    35    34    1
    15    21    20    1
    16    21    22   ar
    17    38    40    1
    18    34    30   am
    19    20    17    1
    20    13    14    1
    21    13    10    1
    22    28    29    1
    23    65    64    1
    24    17    16    1
    25    90    89    2
    26    24    22   ar
    27    12    11    2
    28    16    11   am
    29    11    10    1
    30    30    29    1
    31    30    31    2
    32    10     9    1
    33    29    32    1
    34    55    54    2
    35     9     3   am
    36    89    88    1
    37    64    67    1
    38    64    63    1
    39    88    91    1
    40    88    87    1
    41    67    68    1
    42    84    83    2
    43    54    53    1
    44    32    33    1
    45     7     6    1
    46     3     2    1
    47     3     4    2
    48     2     1    1
    49     2     5    1
    50    56    53    1
    51    56    57    1
    52    83    87   am
    53    83    82    1
    54    53    52    1
    55     6     5    1
    56     6     8    1
    57    57    59   ar
    58    57    58   ar
    59    81    82    1
    60    81    79   am
    61    59    61   ar
    62    44    43    2
    63    86    85    1
    64    82    85    1
    65    58    60   ar
    66    52    43   am
    67    78    79    1
    68    78    77    1
    69    43    42    1
    70    61    62   ar
    71    79    80    2
    72    60    62   ar
    73    99    97   ar
    74    99   101   ar
    75    96    97    1
    76    96    93    1
    77    97    98   ar
    78   101   100   ar
    79    42    41    1
    80    42    45    1
    81    50    51   ar
    82    50    48   ar
    83    92    93    1
    84    51    49   ar
    85    48    46   ar
    86   100    98   ar
    87    93    94    1
    88    76    74    1
    89    49    47   ar
    90    46    47   ar
    91    46    45    1
    92    72    71    2
    93    75    74    1
    94    74    73    1
    95    73    70    1
    96    94    95    2
    97   107   106    1
    98    70    71    1
    99    70    69    1
   100   105   104    2
   101   104   103    1
   102   106   103    1
   103   106   108    1
   104   103   102    1
