@<TRIPOS>MOLECULE
tmp/6f0eA00.pdb
 158 150 0 0 0
SMALL
GASTEIGER

@<TRIPOS>ATOM
      1  N         43.1580   15.6310  -14.4100 N.3   108  TYR108     -0.1241
      2  CA        41.9740   16.2680  -14.9060 C.3   108  TYR108      0.1605
      3  C         42.3120   17.7300  -15.0070 C.2   108  TYR108      0.2264
      4  O         42.8220   18.2830  -14.0930 O.2   108  TYR108     -0.2867
      5  CB        40.8600   16.0860  -13.9140 C.3   108  TYR108      0.0534
      6  CG        40.0790   14.8700  -14.1540 C.ar  108  TYR108     -0.0201
      7  CD1       39.0440   14.8910  -15.0260 C.ar  108  TYR108     -0.0009
      8  CD2       40.3700   13.6990  -13.5210 C.ar  108  TYR108     -0.0009
      9  CE1       38.3160   13.7870  -15.2750 C.ar  108  TYR108      0.0417
     10  CE2       39.6370   12.5800  -13.7610 C.ar  108  TYR108      0.0417
     11  CZ        38.6140   12.6340  -14.6460 C.ar  108  TYR108      0.1957
     12  OH        37.8890   11.5130  -14.9230 O.3   108  TYR108     -0.2866
     13  N         39.8730   14.8660  -19.0260 N.3   119  TYR119     -0.1241
     14  CA        40.8000   13.9200  -18.4340 C.3   119  TYR119      0.1605
     15  C         41.9530   13.6630  -19.4000 C.2   119  TYR119      0.2264
     16  O         41.7300   13.2630  -20.5440 O.2   119  TYR119     -0.2867
     17  CB        40.0660   12.6280  -18.0780 C.3   119  TYR119      0.0534
     18  CG        40.9700   11.5400  -17.5820 C.ar  119  TYR119     -0.0201
     19  CD1       41.7060   11.6990  -16.4280 C.ar  119  TYR119     -0.0009
     20  CD2       41.0830   10.3370  -18.2760 C.ar  119  TYR119     -0.0009
     21  CE1       42.5410   10.6850  -15.9880 C.ar  119  TYR119      0.0417
     22  CE2       41.9200    9.3280  -17.8540 C.ar  119  TYR119      0.0417
     23  CZ        42.6330    9.5000  -16.7120 C.ar  119  TYR119      0.1957
     24  OH        43.4460    8.4810  -16.2850 O.3   119  TYR119     -0.2866
     25  N         45.4030   11.4230  -20.1400 N.3   121  GLU121     -0.1245
     26  CA        46.0900   10.1880  -19.8260 C.3   121  GLU121      0.1567
     27  C         47.2280   10.0180  -20.8010 C.2   121  GLU121      0.2260
     28  O         47.0120    9.8640  -21.9410 O.2   121  GLU121     -0.2867
     29  CB        45.1320    9.0030  -19.9020 C.3   121  GLU121      0.0388
     30  CG        45.7330    7.6710  -19.4840 C.3   121  GLU121      0.1160
     31  CD        44.7220    6.6170  -19.0850 C.2   121  GLU121      0.3649
     32  OE1       44.0240    6.7830  -18.0840 O.co2 121  GLU121     -0.2457
     33  OE2       44.6500    5.5790  -19.7460 O.co2 121  GLU121     -0.2457
     34  N         37.1230    8.3390  -10.3450 N.3   148  TYR148     -0.1241
     35  CA        35.7700    8.2520  -10.8870 C.3   148  TYR148      0.1605
     36  C         34.7510    8.7670   -9.8840 C.2   148  TYR148      0.2264
     37  O         33.8550    9.5410  -10.2320 O.2   148  TYR148     -0.2867
     38  CB        35.4420    6.8120  -11.2800 C.3   148  TYR148      0.0534
     39  CG        35.9590    6.3890  -12.6260 C.ar  148  TYR148     -0.0201
     40  CD1       36.5590    7.3070  -13.4820 C.ar  148  TYR148     -0.0009
     41  CD2       35.8380    5.0660  -13.0450 C.ar  148  TYR148     -0.0009
     42  CE1       37.0280    6.9160  -14.7190 C.ar  148  TYR148      0.0417
     43  CE2       36.3110    4.6610  -14.2840 C.ar  148  TYR148      0.0417
     44  CZ        36.9040    5.5920  -15.1190 C.ar  148  TYR148      0.1957
     45  OH        37.3690    5.2020  -16.3560 O.3   148  TYR148     -0.2866
     46  N         34.7460   12.4790   -9.7790 N.3   151  VAL151     -0.1231
     47  CA        34.0390   13.0860  -10.8720 C.3   151  VAL151      0.1692
     48  C         32.5600   13.1150  -10.6540 C.2   151  VAL151      0.2591
     49  O         31.9300   14.1040  -10.9040 O.2   151  VAL151     -0.2718
     50  CB        34.3000   12.3670  -12.1920 C.3   151  VAL151      0.0266
     51  CG1       33.3300   12.8320  -13.2310 C.3   151  VAL151      0.0020
     52  CG2       35.6920   12.6260  -12.6660 C.3   151  VAL151      0.0020
     53  N         32.0070   12.0160  -10.2030 N.am  152  VAL152     -0.1980
     54  CA        30.5960   11.9750   -9.9650 C.3   152  VAL152      0.1595
     55  C         30.1570   12.8510   -8.8130 C.2   152  VAL152      0.2287
     56  O         29.2000   13.5740   -8.9090 O.2   152  VAL152     -0.2864
     57  CB        30.1490   10.5500   -9.7270 C.3   152  VAL152      0.0276
     58  CG1       28.7240   10.5310   -9.2660 C.3   152  VAL152      0.0022
     59  CG2       30.3150    9.7510  -10.9850 C.3   152  VAL152      0.0022
     60  N         32.6460   13.0270  -19.1850 N.3   170  SER170     -0.1217
     61  CA        33.9740   13.5940  -19.2650 C.3   170  SER170      0.1889
     62  C         34.4630   13.5340  -20.7010 C.2   170  SER170      0.2288
     63  O         33.9040   12.8530  -21.5660 O.2   170  SER170     -0.2866
     64  CB        34.9480   12.8590  -18.3380 C.3   170  SER170      0.2089
     65  OG        35.1240   11.5250  -18.7850 O.3   170  SER170     -0.2183
     66  N         37.8800   12.6330  -22.6400 N.3   172  THR172     -0.1218
     67  CA        39.1400   11.9290  -22.3900 C.3   172  THR172      0.1862
     68  C         40.1270   12.1450  -23.5410 C.2   172  THR172      0.2287
     69  O         39.7830   11.9510  -24.7110 O.2   172  THR172     -0.2866
     70  CB        38.8910   10.4250  -22.1720 C.3   172  THR172      0.1770
     71  OG1       38.1870   10.2340  -20.9390 O.3   172  THR172     -0.2211
     72  CG2       40.2100    9.6250  -22.1320 C.3   172  THR172      0.0375
     73  N         43.8460   10.8050  -24.6450 N.3   174  MET174     -0.1245
     74  CA        44.8280    9.7670  -24.3740 C.3   174  MET174      0.1570
     75  C         45.9620    9.9090  -25.3600 C.2   174  MET174      0.2261
     76  O         45.7470    9.8340  -26.5720 O.2   174  MET174     -0.2867
     77  CB        44.2050    8.3930  -24.4880 C.3   174  MET174      0.0387
     78  CG        45.2110    7.2820  -24.3360 C.3   174  MET174      0.0595
     79  SD        44.3140    5.7270  -24.2640 S.3   174  MET174     -0.1393
     80  CE        43.2670    5.9810  -22.8090 C.3   174  MET174      0.0692
     81  N         45.9290   -3.6300  -17.2240 N.3   190  TYR190     -0.1227
     82  CA        45.3260   -2.4980  -16.5680 C.3   190  TYR190      0.1736
     83  C         44.2380   -1.8660  -17.3800 C.2   190  TYR190      0.2595
     84  O         43.2120   -1.5380  -16.8760 O.2   190  TYR190     -0.2718
     85  CB        46.3800   -1.4610  -16.2330 C.3   190  TYR190      0.0548
     86  CG        45.8080   -0.1910  -15.7040 C.ar  190  TYR190     -0.0200
     87  CD1       45.3270   -0.1120  -14.4290 C.ar  190  TYR190     -0.0009
     88  CD2       45.7430    0.9240  -16.4800 C.ar  190  TYR190     -0.0009
     89  CE1       44.7970    1.0460  -13.9470 C.ar  190  TYR190      0.0417
     90  CE2       45.2120    2.0820  -15.9980 C.ar  190  TYR190      0.0417
     91  CZ        44.7410    2.1250  -14.7310 C.ar  190  TYR190      0.1957
     92  OH        44.2180    3.2750  -14.2510 O.3   190  TYR190     -0.2866
     93  N         44.4760   -1.6940  -18.6530 N.am  191  VAL191     -0.1980
     94  CA        43.5190   -1.0860  -19.5200 C.3   191  VAL191      0.1595
     95  C         42.2640   -1.8930  -19.6540 C.2   191  VAL191      0.2287
     96  O         41.2090   -1.3600  -19.7400 O.2   191  VAL191     -0.2864
     97  CB        44.1260   -0.7970  -20.8750 C.3   191  VAL191      0.0276
     98  CG1       43.0410   -0.4920  -21.8690 C.3   191  VAL191      0.0022
     99  CG2       45.0950    0.3430  -20.7510 C.3   191  VAL191      0.0022
    100  N         40.2910   -1.4470  -16.2640 N.3   194  ALA194     -0.1231
    101  CA        39.7110   -0.1090  -16.2750 C.3   194  ALA194      0.1694
    102  C         38.5300   -0.0170  -17.2380 C.2   194  ALA194      0.2592
    103  O         37.4850    0.5620  -16.9090 O.2   194  ALA194     -0.2718
    104  CB        40.7890    0.8960  -16.6640 C.3   194  ALA194      0.0304
    105  N         38.6960   -0.5720  -18.4400 N.am  195  SER195     -0.1952
    106  CA        37.6240   -0.6140  -19.4170 C.3   195  SER195      0.1924
    107  C         36.4140   -1.3750  -18.8890 C.2   195  SER195      0.2314
    108  O         35.2690   -0.9850  -19.1470 O.2   195  SER195     -0.2863
    109  CB        38.1520   -1.2540  -20.6950 C.3   195  SER195      0.2116
    110  OG        37.1240   -1.3940  -21.6540 O.3   195  SER195     -0.2180
    111  N         34.7380    0.7900  -16.3830 N.3   198  SER198     -0.1217
    112  CA        34.0930    1.9310  -17.0230 C.3   198  SER198      0.1889
    113  C         32.7510    1.5300  -17.6000 C.2   198  SER198      0.2288
    114  O         31.7190    2.1390  -17.2990 O.2   198  SER198     -0.2866
    115  CB        34.9890    2.5030  -18.1210 C.3   198  SER198      0.2089
    116  OG        36.2370    2.9240  -17.5930 O.3   198  SER198     -0.2183
    117  N         30.0910    2.3600  -14.8070 N.3   202  TYR202     -0.1241
    118  CA        29.9470    3.7840  -15.0150 C.3   202  TYR202      0.1605
    119  C         29.4760    4.0380  -16.4260 C.2   202  TYR202      0.2264
    120  O         30.0360    4.8340  -17.1300 O.2   202  TYR202     -0.2867
    121  CB        31.2770    4.4890  -14.7630 C.3   202  TYR202      0.0534
    122  CG        31.7590    4.4480  -13.3440 C.ar  202  TYR202     -0.0201
    123  CD1       32.5430    3.4320  -12.8960 C.ar  202  TYR202     -0.0009
    124  CD2       31.4260    5.4300  -12.4620 C.ar  202  TYR202     -0.0009
    125  CE1       32.9590    3.3780  -11.6030 C.ar  202  TYR202      0.0417
    126  CE2       31.8500    5.3870  -11.1680 C.ar  202  TYR202      0.0417
    127  CZ        32.6110    4.3490  -10.7550 C.ar  202  TYR202      0.1957
    128  OH        33.0370    4.3010   -9.4850 O.3   202  TYR202     -0.2866
    129  N         29.2000    7.4910  -19.1140 N.3   205  ARG205     -0.1231
    130  CA        29.9770    8.5920  -18.5720 C.3   205  ARG205      0.1694
    131  C         31.0510    9.0830  -19.5300 C.2   205  ARG205      0.2591
    132  O         31.7080   10.0880  -19.2510 O.2   205  ARG205     -0.2718
    133  CB        30.6450    8.1850  -17.2590 C.3   205  ARG205      0.0321
    134  CG        29.7200    7.9220  -16.1460 C.3   205  ARG205      0.0489
    135  CD        29.0490    9.1800  -15.7120 C.3   205  ARG205      0.2205
    136  NE        28.5620    9.0660  -14.3440 N.pl3 205  ARG205     -0.0865
    137  CZ        27.6700    9.8870  -13.8210 C.cat 205  ARG205      0.5346
    138  NH1       27.1790   10.8540  -14.5750 N.pl3 205  ARG205      0.1354
    139  NH2       27.2780    9.7370  -12.5640 N.pl3 205  ARG205      0.1354
    140  N         31.2690    8.3960  -20.6310 N.am  206  MET206     -0.1979
    141  CA        32.2510    8.8230  -21.6080 C.3   206  MET206      0.1605
    142  C         31.5670    9.6750  -22.6700 C.2   206  MET206      0.2287
    143  O         30.6990    9.1840  -23.3970 O.2   206  MET206     -0.2864
    144  CB        32.9310    7.6160  -22.2320 C.3   206  MET206      0.0413
    145  CG        34.0970    8.0120  -23.0340 C.3   206  MET206      0.0598
    146  SD        33.7690    7.7970  -24.7670 S.3   206  MET206     -0.1393
    147  CE        34.8440    6.3540  -25.0000 C.3   206  MET206      0.0692
    148  N         36.1600   11.0660  -26.5790 N.3   209  PHE209     -0.1241
    149  CA        37.3810   10.2990  -26.3990 C.3   209  PHE209      0.1605
    150  C         38.3080   10.6240  -27.5600 C.2   209  PHE209      0.2264
    151  O         37.9720   10.3520  -28.7140 O.2   209  PHE209     -0.2867
    152  CB        37.0670    8.7990  -26.3290 C.3   209  PHE209      0.0534
    153  CG        38.2510    7.9330  -26.0190 C.ar  209  PHE209     -0.0203
    154  CD1       39.2990    8.4000  -25.2610 C.ar  209  PHE209     -0.0042
    155  CD2       38.3210    6.6440  -26.4980 C.ar  209  PHE209     -0.0042
    156  CE1       40.4060    7.5920  -24.9740 C.ar  209  PHE209     -0.0003
    157  CE2       39.4200    5.8370  -26.2190 C.ar  209  PHE209     -0.0003
    158  CZ        40.4610    6.3220  -25.4520 C.ar  209  PHE209     -0.0000
@<TRIPOS>BOND
     1   151   150    2
     2   150   149    1
     3   148   149    1
     4    76    75    2
     5   155   157   ar
     6   155   153   ar
     7   149   152    1
     8   152   153    1
     9   157   158   ar
    10   153   154   ar
    11   158   156   ar
    12    75    74    1
    13   154   156   ar
    14   147   146    1
    15   146   145    1
    16    69    68    2
    17    73    74    1
    18    77    74    1
    19    77    78    1
    20    78    79    1
    21    79    80    1
    22    68    67    1
    23   143   142    2
    24   145   144    1
    25   142   141    1
    26    66    67    1
    27    67    70    1
    28   144   141    1
    29    70    72    1
    30    70    71    1
    31    28    27    2
    32    98    97    1
    33   110   109    1
    34   141   140    1
    35    63    62    2
    36    97    99    1
    37    97    94    1
    38    27    26    1
    39    62    61    1
    40   109   106    1
    41   140   131   am
    42    16    15    2
    43    25    26    1
    44    29    26    1
    45    29    30    1
    46    33    31   ar
    47    96    95    2
    48    95    94    1
    49   131   132    2
    50   131   130    1
    51    94    93    1
    52    30    31    1
    53   106   107    1
    54   106   105    1
    55    15    14    1
    56    61    60    1
    57    61    64    1
    58   108   107    2
    59   129   130    1
    60    31    32   ar
    61    13    14    1
    62    65    64    1
    63    93    83   am
    64   130   133    1
    65   105   102   am
    66    14    17    1
    67    20    22   ar
    68    20    18   ar
    69   115   116    1
    70   115   112    1
    71    17    18    1
    72    22    23   ar
    73   113   114    2
    74   113   112    1
    75    18    19   ar
    76    83    84    2
    77    83    82    1
    78   133   134    1
    79   102   103    2
    80   102   101    1
    81    81    82    1
    82   120   119    2
    83   112   111    1
    84    23    24    1
    85    23    21   ar
    86   104   101    1
    87    82    85    1
    88    88    90   ar
    89    88    86   ar
    90    19    21   ar
    91   119   118    1
    92    45    44    1
    93   101   100    1
    94    85    86    1
    95   134   135    1
    96    90    91   ar
    97   135   136    1
    98    86    87   ar
    99     9     7   ar
   100     9    11   ar
   101    44    42   ar
   102    44    43   ar
   103     7     6   ar
   104   118   117    1
   105   118   121    1
   106     3     2    1
   107     3     4    2
   108    12    11    1
   109     2     1    1
   110     2     5    1
   111   121   122    1
   112    91    92    1
   113    91    89   ar
   114    42    40   ar
   115    11    10   ar
   116   138   137    1
   117    87    89   ar
   118   136   137    2
   119    43    41   ar
   120     6     5    1
   121     6     8   ar
   122   137   139    1
   123    10     8   ar
   124    40    39   ar
   125   122   123   ar
   126   122   124   ar
   127    51    50    1
   128    41    39   ar
   129   123   125   ar
   130    52    50    1
   131    39    38    1
   132   124   126   ar
   133    50    47    1
   134   125   127   ar
   135    38    35    1
   136   126   127   ar
   137    59    57    1
   138    49    48    2
   139    35    34    1
   140    35    36    1
   141    47    48    1
   142    47    46    1
   143   127   128    1
   144    48    53   am
   145    37    36    2
   146    53    54    1
   147    54    57    1
   148    54    55    1
   149    57    58    1
   150    56    55    2
