@<TRIPOS>MOLECULE
tmp/6f0kE01.pdb
 242 238 0 0 0
SMALL
GASTEIGER

@<TRIPOS>ATOM
      1  N        167.0070   99.3400  163.5210 N.3    86  TYR86      -0.1227
      2  CA       167.8290   98.9370  162.3860 C.3    86  TYR86       0.1736
      3  C        168.9090   97.9380  162.7660 C.2    86  TYR86       0.2595
      4  O        169.8570   97.7590  162.0000 O.2    86  TYR86      -0.2718
      5  CB       168.4750  100.1390  161.6760 C.3    86  TYR86       0.0548
      6  CG       169.3730  101.0260  162.4890 C.ar   86  TYR86      -0.0200
      7  CD1      168.9450  102.2620  162.9100 C.ar   86  TYR86      -0.0009
      8  CD2      170.6440  100.6310  162.8280 C.ar   86  TYR86      -0.0009
      9  CE1      169.7450  103.0740  163.6510 C.ar   86  TYR86       0.0417
     10  CE2      171.4590  101.4320  163.5780 C.ar   86  TYR86       0.0417
     11  CZ       171.0050  102.6570  163.9920 C.ar   86  TYR86       0.1957
     12  OH       171.8160  103.4740  164.7430 O.3    86  TYR86      -0.2866
     13  N        168.8200   97.3090  163.9300 N.am   87  CYS87      -0.1970
     14  CA       169.7840   96.2740  164.2690 C.3    87  CYS87       0.1712
     15  C        169.1850   95.0460  164.9280 C.2    87  CYS87       0.2296
     16  O        169.7900   93.9760  164.8340 O.2    87  CYS87      -0.2864
     17  CB       170.8530   96.8610  165.1670 C.3    87  CYS87       0.0983
     18  SG       172.3760   95.9070  165.2440 S.3    87  CYS87      -0.0798
     19  N        166.5330   93.6610  163.8640 N.3    89  VAL89      -0.1231
     20  CA       165.7160   93.0050  162.8590 C.3    89  VAL89       0.1692
     21  C        166.2160   91.5940  162.6170 C.2    89  VAL89       0.2592
     22  O        165.4250   90.6700  162.3890 O.2    89  VAL89      -0.2718
     23  CB       165.7050   93.8270  161.5640 C.3    89  VAL89       0.0266
     24  CG1      164.9760   93.0890  160.4870 C.3    89  VAL89       0.0020
     25  CG2      165.0790   95.1520  161.8080 C.3    89  VAL89       0.0020
     26  N        167.5310   91.4020  162.6770 N.am   90  CYS90      -0.1956
     27  CA       168.1610   90.1370  162.3370 C.3    90  CYS90       0.1843
     28  C        168.9310   89.5310  163.4960 C.2    90  CYS90       0.2625
     29  O        168.7030   88.3660  163.8400 O.2    90  CYS90      -0.2714
     30  CB       169.0610   90.3520  161.1280 C.3    90  CYS90       0.0997
     31  SG       168.1080   90.8830  159.7020 S.3    90  CYS90      -0.0797
     32  N        169.8300   90.2820  164.1230 N.am   91  HIS91      -0.1973
     33  CA       170.5180   89.7510  165.2900 C.3    91  HIS91       0.1656
     34  C        169.5570   89.5580  166.4450 C.2    91  HIS91       0.2291
     35  O        169.7810   88.6960  167.3000 O.2    91  HIS91      -0.2864
     36  CB       171.6520   90.6730  165.7060 C.3    91  HIS91       0.0771
     37  CG       172.7280   90.8000  164.6860 C.ar   91  HIS91       0.0820
     38  ND1      173.7010   89.8460  164.4880 N.ar   91  HIS91      -0.2267
     39  CD2      172.9760   91.7760  163.7940 C.ar   91  HIS91       0.1154
     40  CE1      174.5070   90.2400  163.5180 C.ar   91  HIS91       0.1986
     41  NE2      174.0800   91.4050  163.0780 N.ar   91  HIS91      -0.2212
     42  N        163.8580   88.1620  160.5690 N.3   101  ILE101     -0.1231
     43  CA       164.3660   87.7710  159.2620 C.3   101  ILE101      0.1692
     44  C        164.9050   86.3540  159.3130 C.2   101  ILE101      0.2591
     45  O        164.5430   85.4960  158.5000 O.2   101  ILE101     -0.2718
     46  CB       165.4400   88.7610  158.7900 C.3   101  ILE101      0.0266
     47  CG1      164.8780   90.1740  158.6890 C.3   101  ILE101      0.0019
     48  CG2      166.0330   88.3140  157.5060 C.3   101  ILE101      0.0020
     49  CD1      163.7300   90.3520  157.7740 C.3   101  ILE101      0.0001
     50  N        165.7640   86.0830  160.2810 N.am  102  MET102     -0.1979
     51  CA       166.4180   84.7890  160.3350 C.3   102  MET102      0.1605
     52  C        165.4730   83.7140  160.8420 C.2   102  MET102      0.2287
     53  O        165.5320   82.5680  160.3850 O.2   102  MET102     -0.2864
     54  CB       167.6520   84.8880  161.2140 C.3   102  MET102      0.0413
     55  CG       168.7270   85.7830  160.6400 C.3   102  MET102      0.0598
     56  SD       170.1840   85.8740  161.6880 S.3   102  MET102     -0.1393
     57  CE       171.1350   87.0750  160.7840 C.3   102  MET102      0.0692
     58  N        168.7130   83.7180  153.8180 N.3   108  TYR108     -0.1227
     59  CA       169.6620   84.6880  154.3390 C.3   108  TYR108      0.1736
     60  C        170.7140   84.0220  155.2180 C.2   108  TYR108      0.2596
     61  O        170.4600   83.0020  155.8610 O.2   108  TYR108     -0.2718
     62  CB       168.9400   85.7700  155.1310 C.3   108  TYR108      0.0548
     63  CG       169.8400   86.9160  155.4600 C.ar  108  TYR108     -0.0200
     64  CD1      170.1870   87.8440  154.5020 C.ar  108  TYR108     -0.0009
     65  CD2      170.3800   87.0460  156.7100 C.ar  108  TYR108     -0.0009
     66  CE1      171.0180   88.8760  154.7870 C.ar  108  TYR108      0.0417
     67  CE2      171.2220   88.0820  157.0040 C.ar  108  TYR108      0.0417
     68  CZ       171.5370   88.9910  156.0310 C.ar  108  TYR108      0.1957
     69  OH       172.3820   90.0290  156.2970 O.3   108  TYR108     -0.2866
     70  N        171.8980   84.6240  155.2400 N.am  109  THR109     -0.1939
     71  CA       173.0330   84.1110  155.9950 C.3   109  THR109      0.2013
     72  C        172.7980   84.2900  157.4900 C.2   109  THR109      0.2484
     73  O        172.5860   85.4230  157.9320 O.2   109  THR109     -0.2729
     74  CB       174.3100   84.8460  155.5930 C.3   109  THR109      0.1807
     75  OG1      174.1690   86.2420  155.8590 O.3   109  THR109     -0.2208
     76  CG2      174.6180   84.6670  154.1320 C.3   109  THR109      0.0379
     77  N        172.8400   83.2410  158.3060 N.am  110  PRO110     -0.2715
     78  CA       172.6590   83.4490  159.7440 C.3   110  PRO110      0.1536
     79  C        173.8980   84.0490  160.3840 C.2   110  PRO110      0.2598
     80  O        175.0270   83.6530  160.0880 O.2   110  PRO110     -0.2715
     81  CB       172.3840   82.0370  160.2710 C.3   110  PRO110      0.0310
     82  CG       173.0690   81.1590  159.3300 C.3   110  PRO110      0.0237
     83  CD       172.9700   81.8090  157.9910 C.3   110  PRO110      0.0939
     84  N        173.6720   85.0030  161.2760 N.am  111  ALA111     -0.1964
     85  CA       174.7260   85.7670  161.9140 C.3   111  ALA111      0.1713
     86  C        175.0530   85.1970  163.2840 C.2   111  ALA111      0.2458
     87  O        174.2340   84.4980  163.8870 O.2   111  ALA111     -0.2730
     88  CB       174.3060   87.2260  162.0530 C.3   111  ALA111      0.0333
     89  N        176.2400   85.4730  163.8190 N.am  112  PRO112     -0.2727
     90  CA       176.6020   84.9070  165.1170 C.3   112  PRO112      0.1402
     91  C        176.0120   85.7110  166.2590 C.2   112  PRO112      0.2269
     92  O        175.8790   86.9340  166.1920 O.2   112  PRO112     -0.2865
     93  CB       178.1310   84.9900  165.1160 C.3   112  PRO112      0.0296
     94  CG       178.4130   86.1770  164.3140 C.3   112  PRO112      0.0237
     95  CD       177.3590   86.2440  163.2510 C.3   112  PRO112      0.0939
     96  N        175.8520   87.7260  169.5480 N.3   114  PHE114     -0.1241
     97  CA       176.7990   88.6110  170.2110 C.3   114  PHE114      0.1605
     98  C        177.2500   88.0360  171.5450 C.2   114  PHE114      0.2264
     99  O        178.3410   88.3600  172.0220 O.2   114  PHE114     -0.2867
    100  CB       176.1740   89.9850  170.4420 C.3   114  PHE114      0.0534
    101  CG       175.7240   90.6950  169.1960 C.ar  114  PHE114     -0.0203
    102  CD1      176.1790   90.3430  167.9460 C.ar  114  PHE114     -0.0042
    103  CD2      174.8120   91.7200  169.2920 C.ar  114  PHE114     -0.0042
    104  CE1      175.7390   91.0070  166.8250 C.ar  114  PHE114     -0.0003
    105  CE2      174.3720   92.3800  168.1800 C.ar  114  PHE114     -0.0003
    106  CZ       174.8360   92.0280  166.9450 C.ar  114  PHE114     -0.0000
    107  N        183.6240   85.0420  171.7300 N.3   118  ARG118     -0.1231
    108  CA       184.4920   85.6390  170.7210 C.3   118  ARG118      0.1694
    109  C        184.1190   87.0880  170.4630 C.2   118  ARG118      0.2591
    110  O        184.9820   87.8860  170.0850 O.2   118  ARG118     -0.2718
    111  CB       184.4310   84.8290  169.4250 C.3   118  ARG118      0.0321
    112  CG       185.4100   85.2890  168.3330 C.3   118  ARG118      0.0489
    113  CD       184.7490   86.2060  167.3130 C.3   118  ARG118      0.2205
    114  NE       185.6350   86.6070  166.2260 N.pl3 118  ARG118     -0.0865
    115  CZ       186.5120   87.6060  166.2840 C.cat 118  ARG118      0.5346
    116  NH1      186.6660   88.3340  167.3870 N.pl3 118  ARG118      0.1354
    117  NH2      187.2520   87.8770  165.2210 N.pl3 118  ARG118      0.1354
    118  N        182.8470   87.4440  170.6510 N.am  119  LEU119     -0.1980
    119  CA       182.4020   88.8240  170.5170 C.3   119  LEU119      0.1596
    120  C        182.4090   89.5780  171.8350 C.2   119  LEU119      0.2287
    121  O        182.4160   90.8130  171.8260 O.2   119  LEU119     -0.2864
    122  CB       180.9880   88.8850  169.9450 C.3   119  LEU119      0.0297
    123  CG       180.7840   88.8060  168.4380 C.3   119  LEU119      0.0022
    124  CD1      181.4300   89.9650  167.7410 C.3   119  LEU119      0.0001
    125  CD2      181.3090   87.5110  167.9110 C.3   119  LEU119      0.0001
    126  N        186.2330   92.0100  172.1960 N.3   122  VAL122     -0.1245
    127  CA       186.6460   92.5170  170.8930 C.3   122  VAL122      0.1561
    128  C        186.8840   94.0130  171.0150 C.2   122  VAL122      0.2260
    129  O        186.2580   94.6970  171.8280 O.2   122  VAL122     -0.2867
    130  CB       185.6020   92.2270  169.7940 C.3   122  VAL122      0.0252
    131  CG1      186.0450   92.7980  168.4630 C.3   122  VAL122      0.0019
    132  CG2      185.3700   90.7500  169.6740 C.3   122  VAL122      0.0019
    133  N        186.3940   97.9940  166.3920 N.3   126  TYR126     -0.1227
    134  CA       186.0900   97.1010  165.2860 C.3   126  TYR126      0.1736
    135  C        184.5950   96.9960  165.0840 C.2   126  TYR126      0.2595
    136  O        184.1060   97.1530  163.9690 O.2   126  TYR126     -0.2718
    137  CB       186.6700   95.7150  165.5180 C.3   126  TYR126      0.0548
    138  CG       186.3370   94.7460  164.4040 C.ar  126  TYR126     -0.0200
    139  CD1      186.9630   94.8200  163.2020 C.ar  126  TYR126     -0.0009
    140  CD2      185.3940   93.7830  164.5520 C.ar  126  TYR126     -0.0009
    141  CE1      186.7210   94.0090  162.1700 C.ar  126  TYR126      0.0417
    142  CE2      185.1140   92.9250  163.5160 C.ar  126  TYR126      0.0417
    143  CZ       185.7900   93.0460  162.3140 C.ar  126  TYR126      0.1957
    144  OH       185.5390   92.2100  161.2520 O.3   126  TYR126     -0.2866
    145  N        183.8590   96.7090  166.1530 N.am  127  ILE127     -0.1980
    146  CA       182.4060   96.6270  166.0840 C.3   127  ILE127      0.1595
    147  C        181.8190   97.9300  165.5690 C.2   127  ILE127      0.2287
    148  O        180.7720   97.9360  164.9170 O.2   127  ILE127     -0.2864
    149  CB       181.8530   96.2570  167.4680 C.3   127  ILE127      0.0276
    150  CG1      182.2980   94.8540  167.8710 C.3   127  ILE127      0.0022
    151  CG2      180.3630   96.3450  167.4660 C.3   127  ILE127      0.0022
    152  CD1      182.1510   94.5600  169.3440 C.3   127  ILE127      0.0001
    153  N        182.3760   97.6410  161.9130 N.3   130  VAL130     -0.1231
    154  CA       181.3830   96.7310  161.3620 C.3   130  VAL130      0.1692
    155  C        180.1890   97.5090  160.8420 C.2   130  VAL130      0.2591
    156  O        179.5080   97.0650  159.9110 O.2   130  VAL130     -0.2718
    157  CB       180.9730   95.6940  162.4220 C.3   130  VAL130      0.0266
    158  CG1      179.7610   94.9320  161.9760 C.3   130  VAL130      0.0020
    159  CG2      182.1190   94.7460  162.6900 C.3   130  VAL130      0.0020
    160  N        179.9320   98.6830  161.4040 N.am  131  ILE131     -0.1980
    161  CA       178.8030   99.4960  160.9960 C.3   131  ILE131      0.1595
    162  C        179.1930  100.4460  159.8840 C.2   131  ILE131      0.2287
    163  O        178.4230  100.6660  158.9480 O.2   131  ILE131     -0.2864
    164  CB       178.2560  100.2610  162.2110 C.3   131  ILE131      0.0276
    165  CG1      177.9880   99.3240  163.3870 C.3   131  ILE131      0.0022
    166  CG2      177.0290  101.0170  161.8310 C.3   131  ILE131      0.0022
    167  CD1      177.0820   98.2010  163.0980 C.3   131  ILE131      0.0001
    168  N        180.7640   93.9650  156.5430 N.3   135  VAL135     -0.1231
    169  CA       181.4360   92.6910  156.7450 C.3   135  VAL135      0.1692
    170  C        181.0930   91.8130  155.5480 C.2   135  VAL135      0.2592
    171  O        180.1820   92.1180  154.7780 O.2   135  VAL135     -0.2718
    172  CB       181.0180   92.0600  158.0950 C.3   135  VAL135      0.0266
    173  CG1      181.6740   90.7060  158.3530 C.3   135  VAL135      0.0020
    174  CG2      181.3600   93.0090  159.2210 C.3   135  VAL135      0.0020
    175  N        181.8720   90.7390  155.3870 N.am  136  ARG136     -0.1966
    176  CA       181.8270   89.8270  154.2470 C.3   136  ARG136      0.1729
    177  C        180.4300   89.5690  153.7010 C.2   136  ARG136      0.2616
    178  O        180.1770   89.7360  152.5040 O.2   136  ARG136     -0.2715
    179  CB       182.4520   88.4990  154.6720 C.3   136  ARG136      0.0348
    180  CG       183.9370   88.5560  154.9890 C.3   136  ARG136      0.0492
    181  CD       184.4620   87.1750  155.3230 C.3   136  ARG136      0.2205
    182  NE       183.8200   86.6540  156.5260 N.pl3 136  ARG136     -0.0865
    183  CZ       184.2050   86.9120  157.7720 C.cat 136  ARG136      0.5346
    184  NH1      185.2400   87.6980  158.0250 N.pl3 136  ARG136      0.1354
    185  NH2      183.5370   86.3820  158.7840 N.pl3 136  ARG136      0.1354
    186  N        179.5080   89.1690  154.5720 N.am  137  ASN137     -0.1958
    187  CA       178.1430   88.8620  154.1790 C.3   137  ASN137      0.1819
    188  C        177.1490   89.9310  154.5850 C.2   137  ASN137      0.2621
    189  O        176.0170   89.9080  154.0950 O.2   137  ASN137     -0.2715
    190  CB       177.7100   87.5250  154.7890 C.3   137  ASN137      0.1195
    191  CG       178.5810   86.3670  154.3340 C.2   137  ASN137      0.2630
    192  OD1      179.2980   85.7670  155.1310 O.2   137  ASN137     -0.2716
    193  ND2      178.5200   86.0470  153.0490 N.am  137  ASN137     -0.0877
    194  N        177.5400   90.8630  155.4440 N.am  138  MET138     -0.1964
    195  CA       176.6310   91.8440  155.9990 C.3   138  MET138      0.1722
    196  C        176.8960   93.2210  155.4030 C.2   138  MET138      0.2458
    197  O        178.0560   93.5880  155.2020 O.2   138  MET138     -0.2730
    198  CB       176.7710   91.9270  157.5220 C.3   138  MET138      0.0427
    199  CG       175.7550   92.8200  158.1550 C.3   138  MET138      0.0599
    200  SD       175.7700   92.8750  159.9010 S.3   138  MET138     -0.1393
    201  CE       177.2120   93.8270  160.2390 C.3   138  MET138      0.0692
    202  N        175.8740   94.0140  155.1310 N.am  139  PRO139     -0.2727
    203  CA       176.1180   95.3780  154.6730 C.3   139  PRO139      0.1402
    204  C        176.6710   96.2600  155.7640 C.2   139  PRO139      0.2269
    205  O        176.8580   95.8200  156.9000 O.2   139  PRO139     -0.2865
    206  CB       174.7280   95.8530  154.2660 C.3   139  PRO139      0.0296
    207  CG       173.8610   95.0950  155.1020 C.3   139  PRO139      0.0237
    208  CD       174.4390   93.7510  155.1600 C.3   139  PRO139      0.0939
    209  N        175.9150  100.0390  157.7940 N.3   141  TYR141     -0.1241
    210  CA       174.8290  100.9280  158.1540 C.3   141  TYR141      0.1605
    211  C        175.2920  102.3300  158.4770 C.2   141  TYR141      0.2264
    212  O        174.5000  103.2660  158.3260 O.2   141  TYR141     -0.2867
    213  CB       174.0320  100.3550  159.3300 C.3   141  TYR141      0.0534
    214  CG       173.1780   99.1940  158.9180 C.ar  141  TYR141     -0.0201
    215  CD1      171.9670   99.3900  158.2890 C.ar  141  TYR141     -0.0009
    216  CD2      173.5930   97.9070  159.1300 C.ar  141  TYR141     -0.0009
    217  CE1      171.1920   98.3340  157.8940 C.ar  141  TYR141      0.0417
    218  CE2      172.8350   96.8500  158.7360 C.ar  141  TYR141      0.0417
    219  CZ       171.6300   97.0650  158.1220 C.ar  141  TYR141      0.1957
    220  OH       170.8550   96.0020  157.7240 O.3   141  TYR141     -0.2866
    221  N        174.8180  102.5800  169.9370 N.3   153  ILE153     -0.1231
    222  CA       174.4480  101.2240  169.5920 C.3   153  ILE153      0.1692
    223  C        175.4140  100.2390  170.2210 C.2   153  ILE153      0.2591
    224  O        175.0240   99.1400  170.6380 O.2   153  ILE153     -0.2718
    225  CB       174.3960  101.0880  168.0620 C.3   153  ILE153      0.0266
    226  CG1      173.7370   99.8060  167.6360 C.3   153  ILE153      0.0019
    227  CG2      175.7540  101.0920  167.4790 C.3   153  ILE153      0.0020
    228  CD1      172.3010   99.7860  167.8670 C.3   153  ILE153      0.0001
    229  N        176.6730  100.6320  170.3590 N.am  154  VAL154     -0.1980
    230  CA       177.6760   99.7010  170.8320 C.3   154  VAL154      0.1595
    231  C        177.5950   99.5650  172.3300 C.2   154  VAL154      0.2287
    232  O        177.7600   98.4750  172.8620 O.2   154  VAL154     -0.2864
    233  CB       179.0620  100.1510  170.3780 C.3   154  VAL154      0.0276
    234  CG1      180.1220   99.3430  171.0530 C.3   154  VAL154      0.0022
    235  CG2      179.1670   99.9770  168.9040 C.3   154  VAL154      0.0022
    236  N        175.0060   97.2520  172.9570 N.3   157  VAL157     -0.1245
    237  CA       175.4880   95.9090  172.6500 C.3   157  VAL157      0.1561
    238  C        176.3930   95.3940  173.7580 C.2   157  VAL157      0.2260
    239  O        176.1930   94.3020  174.2690 O.2   157  VAL157     -0.2867
    240  CB       176.2070   95.8910  171.2960 C.3   157  VAL157      0.0252
    241  CG1      176.9410   94.5920  171.0910 C.3   157  VAL157      0.0019
    242  CG2      175.2280   96.0810  170.1850 C.3   157  VAL157      0.0019
@<TRIPOS>BOND
     1   178   177    2
     2   193   191   am
     3   177   176    1
     4   177   186   am
     5    58    59    1
     6   189   188    2
     7    76    74    1
     8   187   186    1
     9   187   188    1
    10   187   190    1
    11   176   179    1
    12   176   175    1
    13   206   203    1
    14   206   207    1
    15   191   190    1
    16   191   192    2
    17    59    62    1
    18    59    60    1
    19    64    66   ar
    20    64    63   ar
    21   188   194   am
    22   179   180    1
    23   203   202    1
    24   203   204    1
    25   171   170    2
    26    66    68   ar
    27   180   181    1
    28   207   208    1
    29   202   208    1
    30   202   196   am
    31    62    63    1
    32   197   196    2
    33    60    70   am
    34    60    61    2
    35    70    71    1
    36   181   182    1
    37   175   170   am
    38   196   195    1
    39   194   195    1
    40    63    65   ar
    41   170   169    1
    42    74    75    1
    43    74    71    1
    44   204   205    2
    45    71    72    1
    46   195   198    1
    47    68    69    1
    48    68    67   ar
    49   182   183    2
    50   168   169    1
    51    65    67   ar
    52   169   172    1
    53    72    73    2
    54    72    77   am
    55    48    46    1
    56   198   199    1
    57   220   219    1
    58   183   184    1
    59   183   185    1
    60    49    47    1
    61   209   210    1
    62   217   219   ar
    63   217   215   ar
    64    83    77    1
    65    83    82    1
    66   172   173    1
    67   172   174    1
    68   219   218   ar
    69   210   211    1
    70   210   213    1
    71   199   200    1
    72   215   214   ar
    73    77    78    1
    74   212   211    2
    75    45    44    2
    76    47    46    1
    77   218   216   ar
    78    46    43    1
    79   214   216   ar
    80   214   213    1
    81   163   162    2
    82    43    44    1
    83    43    42    1
    84    44    50   am
    85    82    81    1
    86    31    30    1
    87    78    81    1
    88    78    79    1
    89   162   161    1
    90   200   201    1
    91   156   155    2
    92    80    79    2
    93    50    51    1
    94    51    52    1
    95    51    54    1
    96    79    84   am
    97    53    52    2
    98    24    23    1
    99    55    54    1
   100    55    56    1
   101    57    56    1
   102   155   154    1
   103   155   160   am
   104   161   160    1
   105   161   164    1
   106    30    27    1
   107   144   143    1
   108    84    85    1
   109   154   153    1
   110   154   157    1
   111    23    25    1
   112    23    20    1
   113     5     2    1
   114     5     6    1
   115   166   164    1
   116    85    88    1
   117    85    86    1
   118   158   157    1
   119     4     3    2
   120   141   143   ar
   121   141   139   ar
   122   164   165    1
   123   143   142   ar
   124    27    26    1
   125    27    28    1
   126     2     3    1
   127     2     1    1
   128    22    21    2
   129   157   159    1
   130     6     8   ar
   131     6     7   ar
   132    21    26   am
   133    21    20    1
   134     3    13   am
   135     8    10   ar
   136    20    19    1
   137     7     9   ar
   138    41    40   ar
   139    41    39   ar
   140   167   165    1
   141   139   138   ar
   142    95    89    1
   143    95    94    1
   144    86    89   am
   145    86    87    2
   146    28    29    2
   147    28    32   am
   148   142   140   ar
   149    40    38   ar
   150    10    11   ar
   151     9    11   ar
   152    39    37   ar
   153    89    90    1
   154    13    14    1
   155   136   135    2
   156    11    12    1
   157    32    33    1
   158    14    15    1
   159    14    17    1
   160    94    93    1
   161   138   140   ar
   162   138   137    1
   163    38    37   ar
   164    37    36    1
   165    16    15    2
   166   148   147    2
   167   135   134    1
   168   135   145   am
   169    93    90    1
   170    90    91    1
   171    17    18    1
   172   117   115    1
   173   134   137    1
   174   134   133    1
   175    33    36    1
   176    33    34    1
   177   147   146    1
   178   146   145    1
   179   146   149    1
   180    92    91    2
   181   114   115    2
   182   114   113    1
   183   115   116    1
   184    34    35    2
   185   104   106   ar
   186   104   102   ar
   187   106   105   ar
   188   113   112    1
   189   151   149    1
   190   149   150    1
   191   227   225    1
   192   226   228    1
   193   226   225    1
   194   124   123    1
   195   150   152    1
   196   125   123    1
   197   102   101   ar
   198   225   222    1
   199   105   103   ar
   200   112   111    1
   201   123   122    1
   202   131   130    1
   203   235   233    1
   204   101   103   ar
   205   101   100    1
   206   111   108    1
   207    96    97    1
   208   222   221    1
   209   222   223    1
   210   132   130    1
   211   130   127    1
   212   122   119    1
   213   110   109    2
   214   242   240    1
   215    97   100    1
   216    97    98    1
   217   223   229   am
   218   223   224    2
   219   229   230    1
   220   233   230    1
   221   233   234    1
   222   109   118   am
   223   109   108    1
   224   119   118    1
   225   119   120    1
   226   108   107    1
   227   230   231    1
   228   127   128    1
   229   127   126    1
   230   128   129    2
   231   241   240    1
   232   240   237    1
   233    98    99    2
   234   121   120    2
   235   231   232    2
   236   237   236    1
   237   237   238    1
   238   238   239    2
