@<TRIPOS>MOLECULE
tmp/6f0kA04.pdb
 206 202 0 0 0
SMALL
GASTEIGER

@<TRIPOS>ATOM
      1  N        158.2880   99.5150  141.5230 N.3    42  PRO42      -0.2103
      2  CA       157.9490   98.3020  142.2640 C.3    42  PRO42       0.1489
      3  C        156.9320   98.6090  143.3470 C.2    42  PRO42       0.2418
      4  O        156.9330   99.7260  143.8810 O.2    42  PRO42      -0.2734
      5  CB       159.2830   97.8960  142.8800 C.3    42  PRO42       0.0282
      6  CG       159.9070   99.1620  143.1690 C.3    42  PRO42       0.0208
      7  CD       159.5210  100.0970  142.0640 C.3    42  PRO42       0.0893
      8  N        156.0650   97.6590  143.7310 N.am   43  PRO43      -0.2718
      9  CA       155.2530   97.8540  144.9410 C.3    43  PRO43       0.1535
     10  C        156.0350   97.5470  146.2090 C.2    43  PRO43       0.2599
     11  O        156.3960   96.3980  146.4750 O.2    43  PRO43      -0.2715
     12  CB       154.0870   96.8780  144.7360 C.3    43  PRO43       0.0310
     13  CG       154.0340   96.6460  143.3080 C.3    43  PRO43       0.0237
     14  CD       155.4480   96.6570  142.8530 C.3    43  PRO43       0.0939
     15  N        156.2810   98.5830  147.0110 N.am   44  TYR44      -0.1960
     16  CA       157.0030   98.4220  148.2660 C.3    44  TYR44       0.1771
     17  C        156.2380   97.5430  149.2310 C.2    44  TYR44       0.2620
     18  O        156.8010   96.6270  149.8350 O.2    44  TYR44      -0.2715
     19  CB       157.2290   99.7750  148.8940 C.3    44  TYR44       0.0574
     20  CG       157.9920   99.8100  150.1910 C.ar   44  TYR44      -0.0198
     21  CD1      159.3630   99.7250  150.2070 C.ar   44  TYR44      -0.0009
     22  CD2      157.3400   99.9880  151.3950 C.ar   44  TYR44      -0.0009
     23  CE1      160.0750   99.7970  151.3910 C.ar   44  TYR44       0.0417
     24  CE2      158.0390  100.0570  152.5930 C.ar   44  TYR44       0.0417
     25  CZ       159.4190   99.9420  152.6040 C.ar   44  TYR44       0.1957
     26  OH       160.1770  100.0810  153.7980 O.3    44  TYR44      -0.2866
     27  N        154.9460   97.8060  149.3940 N.am   45  SER45      -0.1950
     28  CA       154.1030   97.0590  150.3210 C.3    45  SER45       0.1924
     29  C        154.5950   97.2070  151.7650 C.2    45  SER45       0.2314
     30  O        155.1250   96.2780  152.3770 O.2    45  SER45      -0.2863
     31  CB       154.0380   95.5860  149.9160 C.3    45  SER45       0.2116
     32  OG       155.2760   94.9410  150.1090 O.3    45  SER45      -0.2180
     33  N        154.2570   94.5860  154.4640 N.3    48  ILE48      -0.1231
     34  CA       155.0990   93.4320  154.7030 C.3    48  ILE48       0.1692
     35  C        156.3400   93.8150  155.4810 C.2    48  ILE48       0.2592
     36  O        156.7110   93.1480  156.4510 O.2    48  ILE48      -0.2718
     37  CB       155.4430   92.7710  153.3620 C.3    48  ILE48       0.0266
     38  CG1      154.1650   92.2690  152.6750 C.3    48  ILE48       0.0019
     39  CG2      156.4040   91.6520  153.6000 C.3    48  ILE48       0.0020
     40  CD1      154.3140   91.8800  151.2300 C.3    48  ILE48       0.0001
     41  N        156.9870   94.9040  155.0850 N.am   49  HIS49      -0.1976
     42  CA       158.1610   95.3610  155.8030 C.3    49  HIS49       0.1656
     43  C        157.8360   95.8100  157.2170 C.2    49  HIS49       0.2291
     44  O        158.7230   95.7800  158.0740 O.2    49  HIS49      -0.2864
     45  CB       158.8070   96.4870  155.0370 C.3    49  HIS49       0.0771
     46  CG       159.2850   96.0920  153.6860 C.ar   49  HIS49       0.0820
     47  ND1      158.4850   96.1490  152.5700 N.ar   49  HIS49      -0.2267
     48  CD2      160.4770   95.6200  153.2690 C.ar   49  HIS49       0.1154
     49  CE1      159.1720   95.7340  151.5200 C.ar   49  HIS49       0.1986
     50  NE2      160.3870   95.4290  151.9180 N.ar   49  HIS49      -0.2212
     51  N        154.4130   92.5900  159.1770 N.3    52  LYS52      -0.1231
     52  CA       154.8700   91.2570  159.5420 C.3    52  LYS52       0.1693
     53  C        156.3840   91.1040  159.4770 C.2    52  LYS52       0.2591
     54  O        156.8690   89.9670  159.4940 O.2    52  LYS52      -0.2718
     55  CB       154.2020   90.1880  158.6630 C.3    52  LYS52       0.0285
     56  CG       154.5910   90.1770  157.2130 C.3    52  LYS52       0.0035
     57  CD       153.8790   89.0590  156.5010 C.3    52  LYS52       0.0206
     58  CE       154.3080   88.9560  155.0700 C.3    52  LYS52       0.1093
     59  NZ       153.5780   87.8870  154.3400 N.3    52  LYS52      -0.1314
     60  N        157.1390   92.1960  159.3720 N.am   53  LEU53      -0.1980
     61  CA       158.5740   92.1840  159.5920 C.3    53  LEU53       0.1596
     62  C        159.0120   93.0570  160.7530 C.2    53  LEU53       0.2287
     63  O        160.1830   92.9990  161.1390 O.2    53  LEU53      -0.2864
     64  CB       159.3250   92.6250  158.3360 C.3    53  LEU53       0.0297
     65  CG       159.7620   91.5130  157.3860 C.3    53  LEU53       0.0022
     66  CD1      158.6250   90.8740  156.6410 C.3    53  LEU53       0.0001
     67  CD2      160.7870   92.0420  156.4120 C.3    53  LEU53       0.0001
     68  N        159.6590   96.2060  161.3580 N.3    55  LEU55      -0.1245
     69  CA       160.5860   97.3200  161.2560 C.3    55  LEU55       0.1561
     70  C        159.8960   98.5980  161.6630 C.2    55  LEU55       0.2260
     71  O        158.7780   98.8750  161.2290 O.2    55  LEU55      -0.2867
     72  CB       161.1270   97.4840  159.8480 C.3    55  LEU55       0.0270
     73  CG       162.3100   96.6380  159.4370 C.3    55  LEU55       0.0019
     74  CD1      161.8900   95.2220  159.1650 C.3    55  LEU55       0.0001
     75  CD2      162.9550   97.2460  158.2440 C.3    55  LEU55       0.0001
     76  N        164.4320  103.1030  159.9590 N.3    59  TYR59      -0.1227
     77  CA       165.3970  102.2800  159.2480 C.3    59  TYR59       0.1736
     78  C        165.7280  102.8750  157.8990 C.2    59  TYR59       0.2595
     79  O        166.8530  103.3240  157.6720 O.2    59  TYR59      -0.2718
     80  CB       164.8640  100.8710  159.0410 C.3    59  TYR59       0.0548
     81  CG       165.8090   99.9560  158.3000 C.ar   59  TYR59      -0.0200
     82  CD1      166.7740   99.2560  158.9670 C.ar   59  TYR59      -0.0009
     83  CD2      165.7560   99.8240  156.9310 C.ar   59  TYR59      -0.0009
     84  CE1      167.6430   98.4330  158.3120 C.ar   59  TYR59       0.0417
     85  CE2      166.6320   99.0130  156.2630 C.ar   59  TYR59       0.0417
     86  CZ       167.5740   98.3180  156.9630 C.ar   59  TYR59       0.1957
     87  OH       168.4550   97.4980  156.3070 O.3    59  TYR59      -0.2866
     88  N        164.7490  102.8810  157.0050 N.am   60  CYS60      -0.1970
     89  CA       164.9450  103.3180  155.6390 C.3    60  CYS60       0.1712
     90  C        164.3950  104.7060  155.3740 C.2    60  CYS60       0.2296
     91  O        164.7550  105.3080  154.3640 O.2    60  CYS60      -0.2864
     92  CB       164.3540  102.2950  154.6580 C.3    60  CYS60       0.0983
     93  SG       162.6300  101.7750  154.8250 S.3    60  CYS60      -0.0798
     94  N        164.2200  106.3010  150.9590 N.3    73  PRO73      -0.2103
     95  CA       165.5410  105.7010  151.0310 C.3    73  PRO73       0.1489
     96  C        166.2390  105.6800  149.6900 C.2    73  PRO73       0.2417
     97  O        165.5930  105.8210  148.6440 O.2    73  PRO73      -0.2734
     98  CB       165.2620  104.2760  151.4920 C.3    73  PRO73       0.0282
     99  CG       163.8770  104.0570  151.2140 C.3    73  PRO73       0.0208
    100  CD       163.2120  105.3500  151.4170 C.3    73  PRO73       0.0893
    101  N        167.5510  105.4750  149.6780 N.am   74  PRO74      -0.2729
    102  CA       168.2170  105.1190  148.4300 C.3    74  PRO74       0.1401
    103  C        167.8900  103.6970  148.0210 C.2    74  PRO74       0.2269
    104  O        167.1150  103.0140  148.6900 O.2    74  PRO74      -0.2865
    105  CB       169.6980  105.2610  148.7740 C.3    74  PRO74       0.0296
    106  CG       169.7460  106.0730  149.9790 C.3    74  PRO74       0.0237
    107  CD       168.5360  105.7410  150.7330 C.3    74  PRO74       0.0939
    108  N        169.4360  100.6560  150.5720 N.3    77  THR77      -0.1203
    109  CA       168.7710  100.0460  151.7090 C.3    77  THR77       0.1994
    110  C        168.2200   98.6820  151.3480 C.2    77  THR77       0.2618
    111  O        168.3630   97.7260  152.1150 O.2    77  THR77      -0.2717
    112  CB       167.6600  100.9430  152.2100 C.3    77  THR77       0.1784
    113  OG1      166.7170  101.1480  151.1570 O.3    77  THR77      -0.2211
    114  CG2      168.2150  102.2570  152.6560 C.3    77  THR77       0.0376
    115  N        167.5920   98.5690  150.1840 N.am   78  CYS78      -0.1969
    116  CA       167.1280   97.2680  149.7330 C.3    78  CYS78       0.1712
    117  C        168.2940   96.3270  149.5270 C.2    78  CYS78       0.2296
    118  O        168.1780   95.1180  149.7610 O.2    78  CYS78      -0.2864
    119  CB       166.3390   97.4140  148.4450 C.3    78  CYS78       0.0983
    120  SG       164.8860   98.4540  148.6560 S.3    78  CYS78      -0.0798
    121  N        169.5080   93.7900  152.3270 N.3    81  CYS81      -0.1221
    122  CA       168.8530   92.5060  152.5260 C.3    81  CYS81       0.1808
    123  C        168.4150   91.8670  151.2080 C.2    81  CYS81       0.2601
    124  O        168.5240   90.6490  151.0550 O.2    81  CYS81      -0.2717
    125  CB       167.5870   92.6420  153.4500 C.3    81  CYS81       0.0970
    126  SG       167.3540   93.1220  155.2040 S.3    81  CYS81      -0.0800
    127  N        167.9220   92.6510  150.2450 N.am   82  HIS82      -0.1975
    128  CA       167.5030   92.1010  148.9610 C.3    82  HIS82       0.1656
    129  C        168.6420   91.9620  147.9810 C.2    82  HIS82       0.2291
    130  O        168.4120   91.8930  146.7690 O.2    82  HIS82      -0.2864
    131  CB       166.3830   92.9330  148.3480 C.3    82  HIS82       0.0771
    132  CG       165.1120   92.8650  149.1150 C.ar   82  HIS82       0.0820
    133  ND1      164.3550   91.7200  149.1850 N.ar   82  HIS82      -0.2267
    134  CD2      164.4520   93.7970  149.8310 C.ar   82  HIS82       0.1154
    135  CE1      163.2900   91.9500  149.9290 C.ar   82  HIS82       0.1986
    136  NE2      163.3310   93.2010  150.3310 N.ar   82  HIS82      -0.2212
    137  N        168.5300   87.8490  150.0490 N.3    85  ILE85      -0.1231
    138  CA       167.3930   87.2380  150.7330 C.3    85  ILE85       0.1692
    139  C        166.4450   86.5590  149.7530 C.2    85  ILE85       0.2591
    140  O        165.9340   85.4760  150.0420 O.2    85  ILE85      -0.2718
    141  CB       166.6380   88.2690  151.6030 C.3    85  ILE85       0.0266
    142  CG1      165.6590   87.5640  152.5380 C.3    85  ILE85       0.0019
    143  CG2      165.8830   89.2670  150.7650 C.3    85  ILE85       0.0020
    144  CD1      165.0540   88.4750  153.5390 C.3    85  ILE85       0.0001
    145  N        166.1980   87.1780  148.5990 N.am   86  LEU86      -0.1980
    146  CA       165.1860   86.7160  147.6580 C.3    86  LEU86       0.1596
    147  C        165.7980   86.3110  146.3260 C.2    86  LEU86       0.2287
    148  O        165.6540   85.1560  145.9160 O.2    86  LEU86      -0.2864
    149  CB       164.1470   87.8250  147.4830 C.3    86  LEU86       0.0297
    150  CG       162.8920   87.5450  146.6750 C.3    86  LEU86       0.0022
    151  CD1      162.0900   86.4400  147.3090 C.3    86  LEU86       0.0001
    152  CD2      162.0650   88.7980  146.5950 C.3    86  LEU86       0.0001
    153  N        162.6410   87.2690  142.4200 N.3    89  SER89      -0.1217
    154  CA       161.3460   87.7790  141.9950 C.3    89  SER89       0.1889
    155  C        161.4360   88.4840  140.6460 C.2    89  SER89       0.2288
    156  O        162.4360   89.1460  140.3600 O.2    89  SER89      -0.2866
    157  CB       160.7880   88.7610  143.0080 C.3    89  SER89       0.2089
    158  OG       159.5520   89.2750  142.5610 O.3    89  SER89      -0.2183
    159  N        159.8240   91.1430  140.2140 N.3    91  ARG91      -0.1231
    160  CA       159.1590   92.3300  140.7440 C.3    91  ARG91       0.1694
    161  C        160.1160   93.4840  141.0090 C.2    91  ARG91       0.2591
    162  O        159.6890   94.6410  141.0080 O.2    91  ARG91      -0.2718
    163  CB       158.4310   91.9910  142.0390 C.3    91  ARG91       0.0321
    164  CG       157.5730   93.1240  142.5880 C.3    91  ARG91       0.0489
    165  CD       156.8070   92.6890  143.8170 C.3    91  ARG91       0.2205
    166  NE       155.8330   91.6470  143.5070 N.pl3  91  ARG91      -0.0865
    167  CZ       154.6280   91.8660  142.9860 C.cat  91  ARG91       0.5346
    168  NH1      154.2100   93.0900  142.6960 N.pl3  91  ARG91       0.1354
    169  NH2      153.8290   90.8430  142.7440 N.pl3  91  ARG91       0.1354
    170  N        161.3930   93.1900  141.2610 N.am   92  LEU92      -0.1980
    171  CA       162.3710   94.2070  141.6250 C.3    92  LEU92       0.1596
    172  C        163.6630   94.0350  140.8470 C.2    92  LEU92       0.2287
    173  O        164.7380   94.3960  141.3230 O.2    92  LEU92      -0.2864
    174  CB       162.6270   94.1890  143.1300 C.3    92  LEU92       0.0297
    175  CG       163.0850   92.8900  143.7870 C.3    92  LEU92       0.0022
    176  CD1      164.5890   92.6990  143.7140 C.3    92  LEU92       0.0001
    177  CD2      162.6020   92.8520  145.2220 C.3    92  LEU92       0.0001
    178  N        165.4530   97.0030  140.8330 N.3    95  VAL95      -0.1245
    179  CA       166.2880   97.2850  141.9930 C.3    95  VAL95       0.1561
    180  C        167.6760   96.6870  141.8150 C.2    95  VAL95       0.2260
    181  O        168.6910   97.3800  141.9500 O.2    95  VAL95      -0.2867
    182  CB       165.6190   96.7660  143.2740 C.3    95  VAL95       0.0252
    183  CG1      166.5420   96.9490  144.4470 C.3    95  VAL95       0.0019
    184  CG2      164.2990   97.4680  143.5010 C.3    95  VAL95       0.0019
    185  N        166.0180  104.3070  141.4840 N.3   105  ILE105     -0.1245
    186  CA       164.6940  103.7270  141.3880 C.3   105  ILE105      0.1561
    187  C        163.6880  104.8350  141.1450 C.2   105  ILE105      0.2260
    188  O        163.6490  105.8380  141.8640 O.2   105  ILE105     -0.2867
    189  CB       164.3690  102.9200  142.6460 C.3   105  ILE105      0.0252
    190  CG1      165.2840  101.7040  142.7270 C.3   105  ILE105      0.0019
    191  CG2      162.9410  102.4920  142.6040 C.3   105  ILE105      0.0019
    192  CD1      165.3640  101.0760  144.0780 C.3   105  ILE105      0.0001
    193  N        160.9810  106.4290  141.7370 N.3   107  TRP107     -0.1241
    194  CA       159.9700  106.5470  142.7760 C.3   107  TRP107      0.1605
    195  C        159.0370  107.7170  142.5030 C.2   107  TRP107      0.2264
    196  O        159.4860  108.8550  142.3530 O.2   107  TRP107     -0.2867
    197  CB       160.5890  106.7490  144.1500 C.3   107  TRP107      0.0550
    198  CG       161.3580  105.6240  144.7040 C.ar  107  TRP107      0.0003
    199  CD1      162.6920  105.5770  144.9110 C.ar  107  TRP107      0.0946
    200  CD2      160.8410  104.3760  145.1440 C.ar  107  TRP107      0.0152
    201  NE1      163.0460  104.3800  145.4610 N.ar  107  TRP107     -0.2442
    202  CE2      161.9190  103.6220  145.6130 C.ar  107  TRP107      0.0810
    203  CE3      159.5710  103.8220  145.1880 C.ar  107  TRP107      0.0012
    204  CZ2      161.7680  102.3490  146.0980 C.ar  107  TRP107      0.0191
    205  CZ3      159.4260  102.5610  145.6780 C.ar  107  TRP107      0.0001
    206  CH2      160.5110  101.8370  146.1250 C.ar  107  TRP107      0.0015
@<TRIPOS>BOND
     1   159   160    1
     2   156   155    2
     3   155   154    1
     4   160   161    1
     5   160   163    1
     6   178   179    1
     7   172   173    2
     8   172   171    1
     9   162   161    2
    10   161   170   am
    11   187   186    1
    12   187   188    2
    13   170   171    1
    14   186   185    1
    15   186   189    1
    16     1     7    1
    17     1     2    1
    18   171   174    1
    19   193   194    1
    20   180   181    2
    21   180   179    1
    22   179   182    1
    23   154   153    1
    24   154   157    1
    25   163   164    1
    26     7     6    1
    27     2     5    1
    28     2     3    1
    29   196   195    2
    30   195   194    1
    31   158   157    1
    32   164   165    1
    33   191   189    1
    34   189   190    1
    35   168   167    1
    36   190   192    1
    37   169   167    1
    38   194   197    1
    39    14    13    1
    40    14     8    1
    41     5     6    1
    42   167   166    2
    43   174   175    1
    44   182   184    1
    45   182   183    1
    46    13    12    1
    47     3     8   am
    48     3     4    2
    49   166   165    1
    50   176   175    1
    51     8     9    1
    52   175   177    1
    53   197   198    1
    54   198   199   ar
    55   198   200   ar
    56    12     9    1
    57   199   201   ar
    58     9    10    1
    59   200   203   ar
    60   200   202   ar
    61   203   205   ar
    62   201   202   ar
    63   202   204   ar
    64   205   206   ar
    65   148   147    2
    66   204   206   ar
    67    10    11    2
    68    10    15   am
    69   147   146    1
    70   152   150    1
    71   150   151    1
    72   150   149    1
    73   130   129    2
    74    15    16    1
    75   149   146    1
    76   146   145    1
    77   129   128    1
    78   103   102    1
    79   103   104    2
    80    16    19    1
    81    16    17    1
    82   131   128    1
    83   131   132    1
    84   102   105    1
    85   102   101    1
    86   119   120    1
    87   119   116    1
    88   145   139   am
    89    97    96    2
    90   105   106    1
    91    19    20    1
    92   128   127    1
    93   132   133   ar
    94   132   134   ar
    95   133   135   ar
    96    17    27   am
    97    17    18    2
    98    27    28    1
    99   117   116    1
   100   117   118    2
   101   101    96   am
   102   101   107    1
   103    96    95    1
   104   116   115    1
   105   139   140    2
   106   139   138    1
   107   134   136   ar
   108    31    32    1
   109    31    28    1
   110   135   136   ar
   111   106   107    1
   112   137   138    1
   113   115   110   am
   114    20    21   ar
   115    20    22   ar
   116    21    23   ar
   117   127   123   am
   118    28    29    1
   119   108   109    1
   120   138   141    1
   121   143   141    1
   122    94    95    1
   123    94   100    1
   124    95    98    1
   125   124   123    2
   126   113   112    1
   127   123   122    1
   128    99   100    1
   129    99    98    1
   130    40    38    1
   131   110   109    1
   132   110   111    2
   133    23    25   ar
   134    22    24   ar
   135    49    50   ar
   136    49    47   ar
   137   141   142    1
   138   109   112    1
   139    29    30    2
   140    50    48   ar
   141   112   114    1
   142   121   122    1
   143   122   125    1
   144   142   144    1
   145    47    46   ar
   146    24    25   ar
   147    25    26    1
   148    38    37    1
   149    48    46   ar
   150    37    39    1
   151    37    34    1
   152   125   126    1
   153    46    45    1
   154    59    58    1
   155    91    90    2
   156    33    34    1
   157    92    93    1
   158    92    89    1
   159    34    35    1
   160    45    42    1
   161    58    57    1
   162    41    35   am
   163    41    42    1
   164    90    89    1
   165    35    36    2
   166    89    88    1
   167    42    43    1
   168    85    83   ar
   169    85    86   ar
   170    87    86    1
   171    67    65    1
   172    57    56    1
   173    66    65    1
   174    83    81   ar
   175    86    84   ar
   176    88    78   am
   177    56    55    1
   178    43    44    2
   179    65    64    1
   180    79    78    2
   181    78    77    1
   182    75    73    1
   183    81    82   ar
   184    81    80    1
   185    84    82   ar
   186    64    61    1
   187    55    52    1
   188    80    77    1
   189    74    73    1
   190    51    52    1
   191    77    76    1
   192    60    53   am
   193    60    61    1
   194    73    72    1
   195    53    54    2
   196    53    52    1
   197    61    62    1
   198    72    69    1
   199    62    63    2
   200    71    70    2
   201    69    68    1
   202    69    70    1
