@<TRIPOS>MOLECULE
tmp/6f0kA00.pdb
 148 145 0 0 0
SMALL
GASTEIGER

@<TRIPOS>ATOM
      1  N        139.0480  119.7220  149.5490 N.3    30  TYR30      -0.1241
      2  CA       140.3420  119.0710  149.7340 C.3    30  TYR30       0.1605
      3  C        140.1830  117.6890  150.3530 C.2    30  TYR30       0.2264
      4  O        141.0630  117.2180  151.0710 O.2    30  TYR30      -0.2867
      5  CB       141.2860  119.9350  150.5750 C.3    30  TYR30       0.0534
      6  CG       141.8970  121.1620  149.8990 C.ar   30  TYR30      -0.0201
      7  CD1      141.8010  121.3780  148.5270 C.ar   30  TYR30      -0.0009
      8  CD2      142.6180  122.0840  150.6460 C.ar   30  TYR30      -0.0009
      9  CE1      142.3770  122.4860  147.9350 C.ar   30  TYR30       0.0417
     10  CE2      143.2020  123.1840  150.0630 C.ar   30  TYR30       0.0417
     11  CZ       143.0740  123.3870  148.7110 C.ar   30  TYR30       0.1957
     12  OH       143.6550  124.4950  148.1350 O.3    30  TYR30      -0.2866
     13  N        142.1880  114.7830  146.6090 N.3    34  GLU34      -0.1245
     14  CA       143.4640  114.5180  147.2610 C.3    34  GLU34       0.1567
     15  C        143.9030  113.0640  147.1960 C.2    34  GLU34       0.2260
     16  O        145.0550  112.7780  146.8620 O.2    34  GLU34      -0.2867
     17  CB       143.4090  114.9610  148.7140 C.3    34  GLU34       0.0388
     18  CG       143.2880  116.4650  148.8810 C.3    34  GLU34       0.1160
     19  CD       144.5190  117.2200  148.4020 C.2    34  GLU34       0.3649
     20  OE1      145.6270  116.6530  148.4830 O.co2  34  GLU34      -0.2457
     21  OE2      144.3790  118.3770  147.9490 O.co2  34  GLU34      -0.2457
     22  N        152.7910  118.5340  149.0690 N.3   113  LEU113     -0.1231
     23  CA       152.4410  119.9180  149.2330 C.3   113  LEU113      0.1678
     24  C        153.4200  120.7550  148.4230 C.2   113  LEU113      0.2434
     25  O        154.5420  120.3210  148.1660 O.2   113  LEU113     -0.2733
     26  CB       152.4630  120.3080  150.7080 C.3   113  LEU113      0.0284
     27  CG       153.7010  120.1270  151.5680 C.3   113  LEU113      0.0019
     28  CD1      154.7990  121.0740  151.2120 C.3   113  LEU113      0.0001
     29  CD2      153.2770  120.3920  152.9850 C.3   113  LEU113      0.0001
     30  N        153.0370  121.9570  148.0240 N.am  114  PRO114     -0.2729
     31  CA       153.8670  122.6980  147.0880 C.3   114  PRO114      0.1401
     32  C        155.1890  123.0920  147.7050 C.2   114  PRO114      0.2269
     33  O        155.3660  123.0960  148.9210 O.2   114  PRO114     -0.2865
     34  CB       153.0250  123.9210  146.7740 C.3   114  PRO114      0.0296
     35  CG       152.2080  124.1080  147.9350 C.3   114  PRO114      0.0237
     36  CD       151.8970  122.7710  148.4610 C.3   114  PRO114      0.0939
     37  N        156.4740  125.9790  147.7820 N.3   116  TYR116     -0.1227
     38  CA       156.4810  127.3080  148.3710 C.3   116  TYR116      0.1736
     39  C        155.9770  127.3010  149.7980 C.2   116  TYR116      0.2595
     40  O        155.7060  128.3680  150.3520 O.2   116  TYR116     -0.2718
     41  CB       155.6520  128.2920  147.5540 C.3   116  TYR116      0.0548
     42  CG       154.2230  127.8930  147.2810 C.ar  116  TYR116     -0.0200
     43  CD1      153.8500  127.4300  146.0460 C.ar  116  TYR116     -0.0009
     44  CD2      153.2610  127.9670  148.2500 C.ar  116  TYR116     -0.0009
     45  CE1      152.5600  127.0830  145.7760 C.ar  116  TYR116      0.0417
     46  CE2      151.9780  127.5880  147.9940 C.ar  116  TYR116      0.0417
     47  CZ       151.6270  127.1610  146.7550 C.ar  116  TYR116      0.1957
     48  OH       150.3350  126.7900  146.4920 O.3   116  TYR116     -0.2866
     49  N        155.8080  126.1300  150.3930 N.am  117  ALA117     -0.1980
     50  CA       155.3530  126.0090  151.7720 C.3   117  ALA117      0.1597
     51  C        156.1910  124.9000  152.3830 C.2   117  ALA117      0.2287
     52  O        155.8160  123.7290  152.3490 O.2   117  ALA117     -0.2864
     53  CB       153.8740  125.7130  151.8570 C.3   117  ALA117      0.0319
     54  N        146.8760  116.7100  153.8740 N.3   150  LEU150     -0.1231
     55  CA       148.0690  117.5490  153.9270 C.3   150  LEU150      0.1693
     56  C        147.8480  118.8130  153.1040 C.2   150  LEU150      0.2593
     57  O        148.5530  119.1200  152.1460 O.2   150  LEU150     -0.2718
     58  CB       149.3260  116.7940  153.4870 C.3   150  LEU150      0.0284
     59  CG       150.0130  115.9630  154.5700 C.3   150  LEU150      0.0019
     60  CD1      150.5070  116.8470  155.7100 C.3   150  LEU150      0.0001
     61  CD2      149.0950  114.8710  155.0950 C.3   150  LEU150      0.0001
     62  N        146.8090  119.5210  153.5000 N.am  151  SER151     -0.1938
     63  CA       146.5510  120.8810  153.0890 C.3   151  SER151      0.2055
     64  C        146.5850  121.7860  154.3070 C.2   151  SER151      0.2642
     65  O        146.6300  121.3380  155.4540 O.2   151  SER151     -0.2714
     66  CB       145.2050  120.9970  152.3910 C.3   151  SER151      0.2130
     67  OG       144.1480  120.7080  153.2830 O.3   151  SER151     -0.2179
     68  N        146.5420  123.0780  154.0340 N.am  152  MET152     -0.1976
     69  CA       146.7600  124.0650  155.0770 C.3   152  MET152      0.1605
     70  C        145.6640  124.0330  156.1210 C.2   152  MET152      0.2287
     71  O        145.9400  124.0570  157.3240 O.2   152  MET152     -0.2864
     72  CB       146.8570  125.4340  154.4490 C.3   152  MET152      0.0413
     73  CG       146.8730  126.5720  155.3860 C.3   152  MET152      0.0598
     74  SD       146.9870  128.0720  154.4850 S.3   152  MET152     -0.1393
     75  CE       146.5510  129.1820  155.7640 C.3   152  MET152      0.0692
     76  N        146.4590  121.2490  158.0800 N.3   155  CYS155     -0.1221
     77  CA       147.7850  121.4430  158.6510 C.3   155  CYS155      0.1808
     78  C        147.7430  122.3640  159.8510 C.2   155  CYS155      0.2601
     79  O        148.5290  122.2070  160.7870 O.2   155  CYS155     -0.2717
     80  CB       148.7310  122.0290  157.6140 C.3   155  CYS155      0.0970
     81  SG       150.4210  122.2810  158.1700 S.3   155  CYS155     -0.0800
     82  N        146.8270  123.3160  159.8500 N.am  156  LEU156     -0.1979
     83  CA       146.7930  124.3610  160.8510 C.3   156  LEU156      0.1596
     84  C        145.9290  124.0190  162.0610 C.2   156  LEU156      0.2287
     85  O        146.0960  124.6450  163.1180 O.2   156  LEU156     -0.2864
     86  CB       146.3130  125.6420  160.1820 C.3   156  LEU156      0.0297
     87  CG       146.3660  126.9480  160.9460 C.3   156  LEU156      0.0022
     88  CD1      146.7220  128.0380  159.9970 C.3   156  LEU156      0.0001
     89  CD2      145.0460  127.2610  161.5880 C.3   156  LEU156      0.0001
     90  N        148.1900  123.3840  164.7890 N.3   159  HIS159     -0.1241
     91  CA       148.8980  124.5360  165.3150 C.3   159  HIS159      0.1621
     92  C        147.9810  125.5050  166.0360 C.2   159  HIS159      0.2264
     93  O        148.4770  126.4620  166.6370 O.2   159  HIS159     -0.2867
     94  CB       149.6400  125.2510  164.2050 C.3   159  HIS159      0.0745
     95  CG       150.7570  124.4610  163.6400 C.ar  159  HIS159      0.0817
     96  ND1      151.5400  124.9040  162.6000 N.ar  159  HIS159     -0.2268
     97  CD2      151.2090  123.2360  163.9590 C.ar  159  HIS159      0.1154
     98  CE1      152.4430  123.9840  162.3190 C.ar  159  HIS159      0.1986
     99  NE2      152.2440  122.9630  163.1230 N.ar  159  HIS159     -0.2212
    100  N        153.4590  127.4920  165.5020 N.3   199  PRO199     -0.2102
    101  CA       153.3400  128.7200  164.7240 C.3   199  PRO199      0.1504
    102  C        151.9750  128.9000  164.0880 C.2   199  PRO199      0.2576
    103  O        151.3350  127.9510  163.6380 O.2   199  PRO199     -0.2718
    104  CB       154.3990  128.5220  163.6420 C.3   199  PRO199      0.0282
    105  CG       154.3810  127.1360  163.4130 C.3   199  PRO199      0.0208
    106  CD       154.1340  126.4660  164.7120 C.3   199  PRO199      0.0893
    107  N        151.5590  130.1590  164.0320 N.am  200  THR200     -0.1939
    108  CA       150.2830  130.5620  163.4760 C.3   200  THR200      0.2028
    109  C        150.4500  131.4950  162.2850 C.2   200  THR200      0.2642
    110  O        149.4600  131.8450  161.6350 O.2   200  THR200     -0.2714
    111  CB       149.4600  131.2390  164.5780 C.3   200  THR200      0.1808
    112  OG1      149.3350  130.3430  165.6880 O.3   200  THR200     -0.2208
    113  CG2      148.0740  131.6280  164.0980 C.3   200  THR200      0.0379
    114  N        151.6760  131.8440  161.9370 N.am  201  ASN201     -0.1957
    115  CA       151.9700  133.0070  161.1280 C.3   201  ASN201      0.1819
    116  C        152.2270  132.6200  159.6790 C.2   201  ASN201      0.2621
    117  O        152.0370  131.4790  159.2660 O.2   201  ASN201     -0.2715
    118  CB       153.1500  133.7430  161.7410 C.3   201  ASN201      0.1195
    119  CG       154.3950  132.9020  161.8070 C.2   201  ASN201      0.2630
    120  OD1      154.5160  131.8740  161.1500 O.2   201  ASN201     -0.2716
    121  ND2      155.3100  133.2980  162.6700 N.am  201  ASN201     -0.0877
    122  N        152.6530  133.5960  158.8900 N.am  202  CYS202     -0.1968
    123  CA       153.0880  133.3650  157.5210 C.3   202  CYS202      0.1712
    124  C        154.5300  133.0140  157.4070 C.2   202  CYS202      0.2296
    125  O        154.9490  132.4790  156.3790 O.2   202  CYS202     -0.2864
    126  CB       152.8130  134.5930  156.7390 C.3   202  CYS202      0.0983
    127  SG       151.1750  134.2820  157.0920 S.3   202  CYS202     -0.0798
    128  N        156.2970  130.8200  158.9690 N.3   204  ALA204     -0.1231
    129  CA       156.7420  129.4890  159.3480 C.3   204  ALA204      0.1694
    130  C        157.1110  128.6560  158.1390 C.2   204  ALA204      0.2592
    131  O        158.2660  128.2490  157.9830 O.2   204  ALA204     -0.2718
    132  CB       155.6560  128.7930  160.1400 C.3   204  ALA204      0.0304
    133  N        156.1420  128.3890  157.2760 N.am  205  CYS205     -0.1956
    134  CA       156.3160  127.4990  156.1410 C.3   205  CYS205      0.1843
    135  C        156.2710  128.1930  154.7930 C.2   205  CYS205      0.2625
    136  O        157.0230  127.8120  153.8980 O.2   205  CYS205     -0.2714
    137  CB       155.2700  126.3830  156.1980 C.3   205  CYS205      0.0997
    138  SG       153.5620  126.8820  156.5400 S.3   205  CYS205     -0.0797
    139  N        155.4460  129.2180  154.6170 N.am  206  HIS206     -0.1973
    140  CA       155.3870  129.8820  153.3250 C.3   206  HIS206      0.1656
    141  C        156.6120  130.7180  153.0160 C.2   206  HIS206      0.2291
    142  O        156.8270  131.0530  151.8480 O.2   206  HIS206     -0.2864
    143  CB       154.1980  130.7930  153.2390 C.3   206  HIS206      0.0771
    144  CG       152.9120  130.0840  153.0860 C.ar  206  HIS206      0.0820
    145  ND1      152.5150  129.5040  151.9040 N.ar  206  HIS206     -0.2267
    146  CD2      151.9160  129.8750  153.9620 C.ar  206  HIS206      0.1154
    147  CE1      151.3280  128.9580  152.0710 C.ar  206  HIS206      0.1986
    148  NE2      150.9630  129.1630  153.3110 N.ar  206  HIS206     -0.2212
@<TRIPOS>BOND
     1    45    43   ar
     2    45    47   ar
     3    43    42   ar
     4    48    47    1
     5    13    14    1
     6    47    46   ar
     7    34    31    1
     8    34    35    1
     9    16    15    2
    10    31    32    1
    11    31    30    1
    12    15    14    1
    13    14    17    1
    14    42    41    1
    15    42    44   ar
    16    41    38    1
    17    32    33    2
    18    37    38    1
    19     9     7   ar
    20     9    11   ar
    21    35    36    1
    22    21    19   ar
    23    46    44   ar
    24    30    24   am
    25    30    36    1
    26    12    11    1
    27    25    24    2
    28    38    39    1
    29    19    20   ar
    30    19    18    1
    31    24    23    1
    32     7     6   ar
    33    11    10   ar
    34    17    18    1
    35    22    23    1
    36    23    26    1
    37     1     2    1
    38     2     3    1
    39     2     5    1
    40    39    40    2
    41    39    49   am
    42     6     5    1
    43     6     8   ar
    44    10     8   ar
    45     3     4    2
    46    49    50    1
    47    26    27    1
    48    28    27    1
    49    27    29    1
    50    50    53    1
    51    50    51    1
    52   142   141    2
    53   145   147   ar
    54   145   144   ar
    55   147   148   ar
    56    57    56    2
    57    52    51    2
    58    66    63    1
    59    66    67    1
    60   141   140    1
    61   144   143    1
    62   144   146   ar
    63    63    62    1
    64    63    64    1
    65    56    62   am
    66    56    55    1
    67   143   140    1
    68   148   146   ar
    69   140   139    1
    70    58    55    1
    71    58    59    1
    72    54    55    1
    73   136   135    2
    74    68    64   am
    75    68    69    1
    76    64    65    2
    77    72    69    1
    78    72    73    1
    79    74    73    1
    80    74    75    1
    81    59    61    1
    82    59    60    1
    83   139   135   am
    84   135   134    1
    85    69    70    1
    86    70    71    2
    87   134   137    1
    88   134   133    1
    89   137   138    1
    90   125   124    2
    91   126   127    1
    92   126   123    1
    93   133   130   am
    94   124   123    1
    95   123   122    1
    96    80    81    1
    97    80    77    1
    98   131   130    2
    99    76    77    1
   100   130   129    1
   101    77    78    1
   102   122   116   am
   103   128   129    1
   104   117   116    2
   105   129   132    1
   106   116   115    1
   107    82    78   am
   108    82    83    1
   109    78    79    2
   110    88    87    1
   111    86    83    1
   112    86    87    1
   113    83    84    1
   114    87    89    1
   115   115   118    1
   116   115   114    1
   117   120   119    2
   118   110   109    2
   119   118   119    1
   120   119   121   am
   121   114   109   am
   122    84    85    2
   123   109   108    1
   124    98    96   ar
   125    98    99   ar
   126    96    95   ar
   127    99    97   ar
   128   105   104    1
   129   105   106    1
   130   108   107    1
   131   108   111    1
   132   103   102    2
   133    95    97   ar
   134    95    94    1
   135   104   101    1
   136   107   102   am
   137   102   101    1
   138   113   111    1
   139    94    91    1
   140   111   112    1
   141   106   100    1
   142   101   100    1
   143    90    91    1
   144    91    92    1
   145    92    93    2
