@<TRIPOS>MOLECULE
tmp/6f0kA01.pdb
 226 223 0 0 0
SMALL
GASTEIGER

@<TRIPOS>ATOM
      1  N        152.7910  118.5340  149.0690 N.3   113  LEU113     -0.1245
      2  CA       152.4410  119.9180  149.2330 C.3   113  LEU113      0.1561
      3  C        153.4200  120.7550  148.4230 C.2   113  LEU113      0.2260
      4  O        154.5420  120.3210  148.1660 O.2   113  LEU113     -0.2867
      5  CB       152.4630  120.3080  150.7080 C.3   113  LEU113      0.0270
      6  CG       153.7010  120.1270  151.5680 C.3   113  LEU113      0.0019
      7  CD1      154.7990  121.0740  151.2120 C.3   113  LEU113      0.0001
      8  CD2      153.2770  120.3920  152.9850 C.3   113  LEU113      0.0001
      9  N        155.8080  126.1300  150.3930 N.3   117  ALA117     -0.1231
     10  CA       155.3530  126.0090  151.7720 C.3   117  ALA117      0.1694
     11  C        156.1910  124.9000  152.3830 C.2   117  ALA117      0.2592
     12  O        155.8160  123.7290  152.3490 O.2   117  ALA117     -0.2718
     13  CB       153.8740  125.7130  151.8570 C.3   117  ALA117      0.0304
     14  N        157.3230  125.2820  152.9440 N.am  118  HIS118     -0.1962
     15  CA       158.2850  124.3060  153.3980 C.3   118  HIS118      0.1787
     16  C        157.8000  123.6500  154.6860 C.2   118  HIS118      0.2620
     17  O        156.7390  123.9630  155.2190 O.2   118  HIS118     -0.2715
     18  CB       159.6480  124.9670  153.5390 C.3   118  HIS118      0.0785
     19  CG       160.3090  125.2460  152.2280 C.ar  118  HIS118      0.0821
     20  ND1      161.0010  124.2810  151.5310 N.ar  118  HIS118     -0.2267
     21  CD2      160.3400  126.3590  151.4620 C.ar  118  HIS118      0.1154
     22  CE1      161.4600  124.8000  150.4070 C.ar  118  HIS118      0.1986
     23  NE2      161.0740  126.0610  150.3430 N.ar  118  HIS118     -0.2212
     24  N        158.5910  122.7080  155.1740 N.am  119  PHE119     -0.1960
     25  CA       158.1550  121.7630  156.1810 C.3   119  PHE119      0.1771
     26  C        159.3900  121.0900  156.7380 C.2   119  PHE119      0.2620
     27  O        160.4250  121.0280  156.0780 O.2   119  PHE119     -0.2715
     28  CB       157.2040  120.7430  155.5790 C.3   119  PHE119      0.0574
     29  CG       156.7380  119.7080  156.5290 C.ar  119  PHE119     -0.0200
     30  CD1      155.6990  119.9400  157.3690 C.ar  119  PHE119     -0.0042
     31  CD2      157.3760  118.5100  156.6050 C.ar  119  PHE119     -0.0042
     32  CE1      155.2760  118.9970  158.2340 C.ar  119  PHE119     -0.0003
     33  CE2      156.9650  117.5580  157.4860 C.ar  119  PHE119     -0.0003
     34  CZ       155.9080  117.8130  158.3100 C.ar  119  PHE119     -0.0000
     35  N        159.2650  120.5700  157.9490 N.am  120  SER120     -0.1950
     36  CA       160.3710  119.8990  158.6090 C.3   120  SER120      0.1924
     37  C        159.8080  118.8610  159.5600 C.2   120  SER120      0.2314
     38  O        159.1470  119.2130  160.5410 O.2   120  SER120     -0.2863
     39  CB       161.2260  120.8920  159.3500 C.3   120  SER120      0.2116
     40  OG       162.2250  120.2090  160.0700 O.3   120  SER120     -0.2180
     41  N        161.3510  119.1220  163.1490 N.3   123  SER123     -0.1202
     42  CA       160.7400  120.1660  163.9540 C.3   123  SER123      0.2020
     43  C        159.4790  119.6640  164.6300 C.2   123  SER123      0.2618
     44  O        159.1110  120.1580  165.6970 O.2   123  SER123     -0.2717
     45  CB       160.4440  121.3810  163.0840 C.3   123  SER123      0.2103
     46  OG       159.8740  122.4360  163.8320 O.3   123  SER123     -0.2182
     47  N        158.8190  118.6720  164.0400 N.am  124  HIS124     -0.1975
     48  CA       157.6430  118.0550  164.6290 C.3   124  HIS124      0.1656
     49  C        157.9920  116.8320  165.4680 C.2   124  HIS124      0.2291
     50  O        157.6520  116.7620  166.6530 O.2   124  HIS124     -0.2864
     51  CB       156.6820  117.6650  163.5210 C.3   124  HIS124      0.0771
     52  CG       156.2270  118.8140  162.7000 C.ar  124  HIS124      0.0820
     53  ND1      156.9150  119.2300  161.5890 N.ar  124  HIS124     -0.2267
     54  CD2      155.1680  119.6400  162.8190 C.ar  124  HIS124      0.1154
     55  CE1      156.3050  120.2670  161.0590 C.ar  124  HIS124      0.1986
     56  NE2      155.2320  120.5150  161.7670 N.ar  124  HIS124     -0.2212
     57  N        159.5190  117.0540  168.7020 N.3   127  ASN127     -0.1240
     58  CA       158.5790  117.6640  169.6240 C.3   127  ASN127      0.1653
     59  C        157.3060  116.8490  169.7960 C.2   127  ASN127      0.2266
     60  O        156.3240  117.3590  170.3390 O.2   127  ASN127     -0.2867
     61  CB       158.2500  119.0710  169.1550 C.3   127  ASN127      0.1155
     62  CG       159.4370  119.9870  169.2060 C.2   127  ASN127      0.2627
     63  OD1      159.8940  120.4820  168.1870 O.2   127  ASN127     -0.2716
     64  ND2      159.9460  120.2210  170.3990 N.am  127  ASN127     -0.0877
     65  N        155.1520  114.4010  167.5670 N.3   129  VAL129     -0.1245
     66  CA       154.0290  114.1880  166.6690 C.3   129  VAL129      0.1561
     67  C        154.2700  112.9140  165.8870 C.2   129  VAL129      0.2260
     68  O        155.3750  112.6760  165.3980 O.2   129  VAL129     -0.2867
     69  CB       153.8170  115.3650  165.7070 C.3   129  VAL129      0.0252
     70  CG1      152.6200  115.1250  164.8830 C.3   129  VAL129      0.0019
     71  CG2      153.6600  116.6340  166.4600 C.3   129  VAL129      0.0019
     72  N        148.9400  110.2530  162.8870 N.3   133  THR133     -0.1203
     73  CA       148.1400  111.4640  162.7760 C.3   133  THR133      0.1994
     74  C        148.1550  112.0140  161.3620 C.2   133  THR133      0.2618
     75  O        147.1160  112.4380  160.8450 O.2   133  THR133     -0.2717
     76  CB       148.6660  112.5270  163.7220 C.3   133  THR133      0.1784
     77  OG1      150.0100  112.8360  163.3610 O.3   133  THR133     -0.2211
     78  CG2      148.6250  112.0450  165.1420 C.3   133  THR133      0.0376
     79  N        149.3190  112.0040  160.7210 N.am  134  CYS134     -0.1969
     80  CA       149.5670  112.8340  159.5510 C.3   134  CYS134      0.1712
     81  C        149.7350  112.0230  158.2760 C.2   134  CYS134      0.2296
     82  O        149.1410  112.3710  157.2510 O.2   134  CYS134     -0.2864
     83  CB       150.8160  113.7300  159.7510 C.3   134  CYS134      0.0983
     84  SG       150.9620  115.2860  160.6620 S.3   134  CYS134     -0.0798
     85  N        146.8760  116.7100  153.8740 N.3   150  LEU150     -0.1231
     86  CA       148.0690  117.5490  153.9270 C.3   150  LEU150      0.1693
     87  C        147.8480  118.8130  153.1040 C.2   150  LEU150      0.2593
     88  O        148.5530  119.1200  152.1460 O.2   150  LEU150     -0.2718
     89  CB       149.3260  116.7940  153.4870 C.3   150  LEU150      0.0284
     90  CG       150.0130  115.9630  154.5700 C.3   150  LEU150      0.0019
     91  CD1      150.5070  116.8470  155.7100 C.3   150  LEU150      0.0001
     92  CD2      149.0950  114.8710  155.0950 C.3   150  LEU150      0.0001
     93  N        146.8090  119.5210  153.5000 N.am  151  SER151     -0.1938
     94  CA       146.5510  120.8810  153.0890 C.3   151  SER151      0.2055
     95  C        146.5850  121.7860  154.3070 C.2   151  SER151      0.2642
     96  O        146.6300  121.3380  155.4540 O.2   151  SER151     -0.2714
     97  CB       145.2050  120.9970  152.3910 C.3   151  SER151      0.2130
     98  OG       144.1480  120.7080  153.2830 O.3   151  SER151     -0.2179
     99  N        146.5420  123.0780  154.0340 N.am  152  MET152     -0.1976
    100  CA       146.7600  124.0650  155.0770 C.3   152  MET152      0.1605
    101  C        145.6640  124.0330  156.1210 C.2   152  MET152      0.2287
    102  O        145.9400  124.0570  157.3240 O.2   152  MET152     -0.2864
    103  CB       146.8570  125.4340  154.4490 C.3   152  MET152      0.0413
    104  CG       146.8730  126.5720  155.3860 C.3   152  MET152      0.0598
    105  SD       146.9870  128.0720  154.4850 S.3   152  MET152     -0.1393
    106  CE       146.5510  129.1820  155.7640 C.3   152  MET152      0.0692
    107  N        143.8660  121.8540  157.2710 N.3   154  TRP154     -0.1227
    108  CA       144.0730  120.7700  158.2060 C.3   154  TRP154      0.1737
    109  C        145.4540  120.8090  158.8310 C.2   154  TRP154      0.2595
    110  O        145.6130  120.4150  159.9900 O.2   154  TRP154     -0.2718
    111  CB       143.8910  119.4340  157.5080 C.3   154  TRP154      0.0564
    112  CG       144.1130  118.3190  158.4330 C.ar  154  TRP154      0.0003
    113  CD1      143.2460  117.8300  159.3660 C.ar  154  TRP154      0.0946
    114  CD2      145.3210  117.5910  158.5870 C.ar  154  TRP154      0.0152
    115  NE1      143.8370  116.8100  160.0650 N.ar  154  TRP154     -0.2442
    116  CE2      145.1150  116.6520  159.6030 C.ar  154  TRP154      0.0810
    117  CE3      146.5570  117.6410  157.9560 C.ar  154  TRP154      0.0012
    118  CZ2      146.0890  115.7680  159.9870 C.ar  154  TRP154      0.0191
    119  CZ3      147.5120  116.7720  158.3320 C.ar  154  TRP154      0.0001
    120  CH2      147.2850  115.8440  159.3380 C.ar  154  TRP154      0.0015
    121  N        146.4590  121.2490  158.0800 N.am  155  CYS155     -0.1970
    122  CA       147.7850  121.4430  158.6510 C.3   155  CYS155      0.1712
    123  C        147.7430  122.3640  159.8510 C.2   155  CYS155      0.2296
    124  O        148.5290  122.2070  160.7870 O.2   155  CYS155     -0.2864
    125  CB       148.7310  122.0290  157.6140 C.3   155  CYS155      0.0983
    126  SG       150.4210  122.2810  158.1700 S.3   155  CYS155     -0.0798
    127  N        146.2040  121.6360  163.9750 N.3   158  CYS158     -0.1221
    128  CA       147.0930  121.2320  165.0490 C.3   158  CYS158      0.1808
    129  C        147.8220  122.4280  165.6250 C.2   158  CYS158      0.2601
    130  O        148.0350  122.5040  166.8360 O.2   158  CYS158     -0.2717
    131  CB       148.0820  120.2010  164.5420 C.3   158  CYS158      0.0970
    132  SG       149.2570  119.6000  165.7530 S.3   158  CYS158     -0.0800
    133  N        148.1900  123.3840  164.7890 N.am  159  HIS159     -0.1975
    134  CA       148.8980  124.5360  165.3150 C.3   159  HIS159      0.1656
    135  C        147.9810  125.5050  166.0360 C.2   159  HIS159      0.2291
    136  O        148.4770  126.4620  166.6370 O.2   159  HIS159     -0.2864
    137  CB       149.6400  125.2510  164.2050 C.3   159  HIS159      0.0771
    138  CG       150.7570  124.4610  163.6400 C.ar  159  HIS159      0.0820
    139  ND1      151.5400  124.9040  162.6000 N.ar  159  HIS159     -0.2267
    140  CD2      151.2090  123.2360  163.9590 C.ar  159  HIS159      0.1154
    141  CE1      152.4430  123.9840  162.3190 C.ar  159  HIS159      0.1986
    142  NE2      152.2440  122.9630  163.1230 N.ar  159  HIS159     -0.2212
    143  N        146.7400  121.9090  169.2390 N.3   162  PRO162     -0.2116
    144  CA       147.7480  120.8450  169.1850 C.3   162  PRO162      0.1372
    145  C        147.4900  119.7000  170.1330 C.2   162  PRO162      0.2244
    146  O        147.5950  118.5380  169.7240 O.2   162  PRO162     -0.2868
    147  CB       149.0420  121.5850  169.5240 C.3   162  PRO162      0.0268
    148  CG       148.6300  122.7710  170.2330 C.3   162  PRO162      0.0207
    149  CD       147.3160  123.1780  169.6870 C.3   162  PRO162      0.0892
    150  N        146.6080  115.9000  169.6800 N.3   165  TYR165     -0.1227
    151  CA       147.3530  115.0430  168.7640 C.3   165  TYR165      0.1736
    152  C        148.7060  114.5890  169.2840 C.2   165  TYR165      0.2595
    153  O        149.0710  113.4320  169.0840 O.2   165  TYR165     -0.2718
    154  CB       147.5800  115.7800  167.4430 C.3   165  TYR165      0.0548
    155  CG       146.3510  116.1280  166.6280 C.ar  165  TYR165     -0.0200
    156  CD1      145.1230  115.5440  166.8680 C.ar  165  TYR165     -0.0009
    157  CD2      146.4340  117.0490  165.6040 C.ar  165  TYR165     -0.0009
    158  CE1      144.0200  115.8700  166.1140 C.ar  165  TYR165      0.0417
    159  CE2      145.3370  117.3770  164.8470 C.ar  165  TYR165      0.0417
    160  CZ       144.1340  116.7880  165.1050 C.ar  165  TYR165      0.1957
    161  OH       143.0430  117.1220  164.3410 O.3   165  TYR165     -0.2866
    162  N        149.4620  115.4620  169.9410 N.am  166  LEU166     -0.1980
    163  CA       150.8880  115.2470  170.1380 C.3   166  LEU166      0.1596
    164  C        151.1690  114.0400  171.0210 C.2   166  LEU166      0.2287
    165  O        150.4430  113.7580  171.9730 O.2   166  LEU166     -0.2864
    166  CB       151.5260  116.4700  170.7690 C.3   166  LEU166      0.0297
    167  CG       151.8050  117.7290  169.9740 C.3   166  LEU166      0.0022
    168  CD1      150.5320  118.4220  169.6340 C.3   166  LEU166      0.0001
    169  CD2      152.6680  118.6300  170.7970 C.3   166  LEU166      0.0001
    170  N        158.0790  121.8900  178.1090 N.3   194  GLU194     -0.1231
    171  CA       158.8030  121.8260  176.8500 C.3   194  GLU194      0.1699
    172  C        158.7170  123.1360  176.0820 C.2   194  GLU194      0.2593
    173  O        159.6290  123.4560  175.3140 O.2   194  GLU194     -0.2718
    174  CB       158.2540  120.6820  176.0020 C.3   194  GLU194      0.0402
    175  CG       159.0310  120.3720  174.7460 C.3   194  GLU194      0.1161
    176  CD       160.3960  119.7890  175.0310 C.2   194  GLU194      0.3649
    177  OE1      160.5770  119.1940  176.1100 O.co2 194  GLU194     -0.2457
    178  OE2      161.2930  119.9150  174.1720 O.co2 194  GLU194     -0.2457
    179  N        157.6380  123.8940  176.2620 N.am  195  GLY195     -0.1942
    180  CA       157.5120  125.1960  175.6390 C.3   195  GLY195      0.2014
    181  C        157.6050  125.1460  174.1320 C.2   195  GLY195      0.2639
    182  O        158.5420  125.6860  173.5370 O.2   195  GLY195     -0.2714
    183  N        156.6310  124.4980  173.5050 N.am  196  ILE196     -0.1963
    184  CA       156.7080  124.2540  172.0720 C.3   196  ILE196      0.1727
    185  C        156.2230  125.4640  171.2830 C.2   196  ILE196      0.2616
    186  O        156.9090  125.9240  170.3640 O.2   196  ILE196     -0.2715
    187  CB       155.9550  122.9590  171.7050 C.3   196  ILE196      0.0290
    188  CG1      154.4930  122.9710  172.1420 C.3   196  ILE196      0.0022
    189  CG2      156.6630  121.7580  172.2960 C.3   196  ILE196      0.0023
    190  CD1      153.7680  121.7650  171.7240 C.3   196  ILE196      0.0001
    191  N        155.0620  126.0170  171.6390 N.am  197  ARG197     -0.1964
    192  CA       154.5610  127.2550  171.0510 C.3   197  ARG197      0.1714
    193  C        154.4370  127.1540  169.5330 C.2   197  ARG197      0.2458
    194  O        155.2590  127.7350  168.8160 O.2   197  ARG197     -0.2730
    195  CB       155.4810  128.4100  171.4320 C.3   197  ARG197      0.0347
    196  CG       155.5220  128.6640  172.9110 C.3   197  ARG197      0.0492
    197  CD       156.3020  129.9080  173.2430 C.3   197  ARG197      0.2205
    198  NE       157.7160  129.7840  172.9130 N.pl3 197  ARG197     -0.0865
    199  CZ       158.6360  129.2210  173.6930 C.cat 197  ARG197      0.5346
    200  NH1      159.8940  129.1770  173.2860 N.pl3 197  ARG197      0.1354
    201  NH2      158.3180  128.6850  174.8680 N.pl3 197  ARG197      0.1354
    202  N        153.4660  126.4130  169.0100 N.am  198  PRO198     -0.2716
    203  CA       153.3930  126.1900  167.5730 C.3   198  PRO198      0.1521
    204  C        153.2070  127.4850  166.8090 C.2   198  PRO198      0.2440
    205  O        152.8310  128.5050  167.3990 O.2   198  PRO198     -0.2731
    206  CB       152.1710  125.2870  167.4240 C.3   198  PRO198      0.0310
    207  CG       152.0420  124.6340  168.6990 C.3   198  PRO198      0.0237
    208  CD       152.4570  125.6230  169.7180 C.3   198  PRO198      0.0939
    209  N        153.4590  127.4920  165.5020 N.am  199  PRO199     -0.2727
    210  CA       153.3400  128.7200  164.7240 C.3   199  PRO199      0.1402
    211  C        151.9750  128.9000  164.0880 C.2   199  PRO199      0.2269
    212  O        151.3350  127.9510  163.6380 O.2   199  PRO199     -0.2865
    213  CB       154.3990  128.5220  163.6420 C.3   199  PRO199      0.0296
    214  CG       154.3810  127.1360  163.4130 C.3   199  PRO199      0.0237
    215  CD       154.1340  126.4660  164.7120 C.3   199  PRO199      0.0939
    216  N        156.2970  130.8200  158.9690 N.3   204  ALA204     -0.1231
    217  CA       156.7420  129.4890  159.3480 C.3   204  ALA204      0.1694
    218  C        157.1110  128.6560  158.1390 C.2   204  ALA204      0.2592
    219  O        158.2660  128.2490  157.9830 O.2   204  ALA204     -0.2718
    220  CB       155.6560  128.7930  160.1400 C.3   204  ALA204      0.0304
    221  N        156.1420  128.3890  157.2760 N.am  205  CYS205     -0.1970
    222  CA       156.3160  127.4990  156.1410 C.3   205  CYS205      0.1712
    223  C        156.2710  128.1930  154.7930 C.2   205  CYS205      0.2296
    224  O        157.0230  127.8120  153.8980 O.2   205  CYS205     -0.2864
    225  CB       155.2700  126.3830  156.1980 C.3   205  CYS205      0.0983
    226  SG       153.5620  126.8820  156.5400 S.3   205  CYS205     -0.0798
@<TRIPOS>BOND
     1     4     3    2
     2     3     2    1
     3     1     2    1
     4     2     5    1
     5    23    22   ar
     6    23    21   ar
     7     9    10    1
     8    22    20   ar
     9     5     6    1
    10     7     6    1
    11    21    19   ar
    12    20    19   ar
    13     6     8    1
    14    10    13    1
    15    10    11    1
    16    88    87    2
    17    19    18    1
    18    12    11    2
    19    11    14   am
    20    97    94    1
    21    97    98    1
    22    14    15    1
    23    94    93    1
    24    94    95    1
    25    87    93   am
    26    87    86    1
    27    15    18    1
    28    15    16    1
    29    89    86    1
    30    89    90    1
    31    85    86    1
    32   224   223    2
    33    99    95   am
    34    99   100    1
    35    95    96    2
    36   103   100    1
    37   103   104    1
    38   105   104    1
    39   105   106    1
    40    90    92    1
    41    90    91    1
    42    16    24   am
    43    16    17    2
    44   223   222    1
    45   100   101    1
    46    24    25    1
    47    28    25    1
    48    28    29    1
    49    27    26    2
    50   101   102    2
    51   222   225    1
    52   222   221    1
    53    25    26    1
    54   225   226    1
    55    29    31   ar
    56    29    30   ar
    57    31    33   ar
    58    26    35   am
    59    82    81    2
    60   107   108    1
    61   221   218   am
    62    30    32   ar
    63    33    34   ar
    64   111   108    1
    65   111   112    1
    66   125   126    1
    67   125   122    1
    68    35    36    1
    69   117   119   ar
    70   117   114   ar
    71   219   218    2
    72   121   122    1
    73   121   109   am
    74   218   217    1
    75   108   109    1
    76    32    34   ar
    77    81    80    1
    78   119   120   ar
    79   112   114   ar
    80   112   113   ar
    81   114   116   ar
    82    36    39    1
    83    36    37    1
    84   122   123    1
    85   109   110    2
    86   216   217    1
    87   120   118   ar
    88   217   220    1
    89    39    40    1
    90   113   115   ar
    91    80    83    1
    92    80    79    1
    93    37    38    2
    94   116   118   ar
    95   116   115   ar
    96    83    84    1
    97   123   124    2
    98    79    74   am
    99    75    74    2
   100    55    53   ar
   101    55    56   ar
   102    74    73    1
   103    53    52   ar
   104    56    54   ar
   105   141   139   ar
   106   141   142   ar
   107   139   138   ar
   108    52    54   ar
   109    52    51    1
   110    73    72    1
   111    73    76    1
   112    45    46    1
   113    45    42    1
   114   142   140   ar
   115    41    42    1
   116    77    76    1
   117   214   213    1
   118   214   215    1
   119    51    48    1
   120   212   211    2
   121   138   140   ar
   122   138   137    1
   123   213   210    1
   124    76    78    1
   125    42    43    1
   126   127   128    1
   127    47    48    1
   128    47    43   am
   129   211   210    1
   130   137   134    1
   131   161   160    1
   132   131   128    1
   133   131   132    1
   134    48    49    1
   135    43    44    2
   136   215   209    1
   137   210   209    1
   138   133   134    1
   139   133   129   am
   140   159   160   ar
   141   159   157   ar
   142    70    69    1
   143   128   129    1
   144   160   158   ar
   145   134   135    1
   146    68    67    2
   147    49    50    2
   148   209   204   am
   149   157   155   ar
   150   129   130    2
   151    69    71    1
   152    69    66    1
   153    67    66    1
   154   135   136    2
   155   158   156   ar
   156   155   156   ar
   157   155   154    1
   158    66    65    1
   159   204   205    2
   160   204   203    1
   161   206   203    1
   162   206   207    1
   163   154   151    1
   164   203   202    1
   165    63    62    2
   166   207   208    1
   167    57    58    1
   168   151   152    1
   169   151   150    1
   170   194   193    2
   171   202   193   am
   172   202   208    1
   173   153   152    2
   174    61    62    1
   175    61    58    1
   176   144   143    1
   177   144   147    1
   178   144   145    1
   179    62    64   am
   180   143   149    1
   181   152   162   am
   182   147   148    1
   183   193   192    1
   184    58    59    1
   185   168   167    1
   186   149   148    1
   187   146   145    2
   188    59    60    2
   189   162   163    1
   190   167   166    1
   191   167   169    1
   192   163   166    1
   193   163   164    1
   194   186   185    2
   195   164   165    2
   196   192   195    1
   197   192   191    1
   198   185   191   am
   199   185   184    1
   200   195   196    1
   201   187   184    1
   202   187   188    1
   203   187   189    1
   204   190   188    1
   205   184   183    1
   206   196   197    1
   207   198   197    1
   208   198   199    2
   209   200   199    1
   210   183   181   am
   211   182   181    2
   212   199   201    1
   213   181   180    1
   214   178   176   ar
   215   175   176    1
   216   175   174    1
   217   176   177   ar
   218   173   172    2
   219   180   179    1
   220   174   171    1
   221   172   179   am
   222   172   171    1
   223   171   170    1
