@<TRIPOS>MOLECULE
tmp/6f0kA02.pdb
 229 225 0 0 0
SMALL
GASTEIGER

@<TRIPOS>ATOM
      1  N        160.2640  102.8570  161.6010 N.3    57  CYS57      -0.1235
      2  CA       160.2760  103.6820  160.4160 C.3    57  CYS57       0.1677
      3  C        161.6060  104.3720  160.1960 C.2    57  CYS57       0.2270
      4  O        161.8950  104.7820  159.0720 O.2    57  CYS57      -0.2867
      5  CB       159.1610  104.7070  160.5350 C.3    57  CYS57       0.0956
      6  SG       157.6020  103.9330  160.9230 S.3    57  CYS57      -0.0801
      7  N        163.5650  105.2400  156.2550 N.3    61  HIS61      -0.1241
      8  CA       163.2470  106.6630  156.2300 C.3    61  HIS61       0.1621
      9  C        164.1120  107.4040  157.2250 C.2    61  HIS61       0.2264
     10  O        163.6460  108.1180  158.1050 O.2    61  HIS61      -0.2867
     11  CB       161.7790  106.8850  156.4950 C.3    61  HIS61       0.0745
     12  CG       160.8980  106.3470  155.4260 C.ar   61  HIS61       0.0817
     13  ND1      160.9000  106.8650  154.1560 N.ar   61  HIS61      -0.2268
     14  CD2      159.9740  105.3610  155.4300 C.ar   61  HIS61       0.1154
     15  CE1      160.0140  106.2230  153.4230 C.ar   61  HIS61       0.1986
     16  NE2      159.4540  105.2990  154.1690 N.ar   61  HIS61      -0.2212
     17  N        164.6520  111.5840  159.3910 N.3    64  VAL64      -0.1245
     18  CA       163.3950  112.2000  159.7650 C.3    64  VAL64       0.1561
     19  C        163.4520  112.7500  161.1760 C.2    64  VAL64       0.2260
     20  O        162.6160  113.5910  161.5300 O.2    64  VAL64      -0.2867
     21  CB       162.2300  111.2090  159.6110 C.3    64  VAL64       0.0252
     22  CG1      162.2860  110.1460  160.6610 C.3    64  VAL64       0.0019
     23  CG2      160.9240  111.9070  159.6590 C.3    64  VAL64       0.0019
     24  N        162.0890  117.5390  155.3650 N.3    69  LYS69      -0.1231
     25  CA       161.7410  116.8150  154.1520 C.3    69  LYS69       0.1693
     26  C        162.5450  115.5150  154.0810 C.2    69  LYS69       0.2592
     27  O        163.4130  115.3220  153.2340 O.2    69  LYS69      -0.2718
     28  CB       161.9640  117.7040  152.9260 C.3    69  LYS69       0.0285
     29  CG       161.5390  117.1110  151.6010 C.3    69  LYS69       0.0035
     30  CD       161.6910  118.1430  150.5020 C.3    69  LYS69       0.0206
     31  CE       161.4790  117.5570  149.1300 C.3    69  LYS69       0.1093
     32  NZ       160.0880  117.1440  148.8990 N.3    69  LYS69      -0.1314
     33  N        162.2430  114.6530  155.0460 N.am   70  ALA70      -0.1966
     34  CA       162.9620  113.4020  155.2300 C.3    70  ALA70       0.1728
     35  C        162.9530  112.5780  153.9590 C.2    70  ALA70       0.2616
     36  O        162.0400  112.6720  153.1390 O.2    70  ALA70      -0.2715
     37  CB       162.3440  112.5940  156.3610 C.3    70  ALA70       0.0334
     38  N        163.9840  111.7670  153.7930 N.am   71  ASN71      -0.1958
     39  CA       164.2260  111.1410  152.5120 C.3    71  ASN71       0.1819
     40  C        163.4950  109.8230  152.3880 C.2    71  ASN71       0.2621
     41  O        163.3810  109.0540  153.3420 O.2    71  ASN71      -0.2715
     42  CB       165.7210  110.9310  152.2450 C.3    71  ASN71       0.1195
     43  CG       166.3840  109.9660  153.1940 C.2    71  ASN71       0.2630
     44  OD1      165.7860  109.4600  154.1280 O.2    71  ASN71      -0.2716
     45  ND2      167.6390  109.6740  152.9200 N.am   71  ASN71      -0.0877
     46  N        162.9380  109.6140  151.2100 N.am   72  ILE72      -0.1977
     47  CA       162.7350  108.2700  150.6950 C.3    72  ILE72       0.1596
     48  C        164.0950  107.5900  150.6760 C.2    72  ILE72       0.2287
     49  O        165.1060  108.2720  150.4350 O.2    72  ILE72      -0.2864
     50  CB       162.1200  108.3590  149.2940 C.3    72  ILE72       0.0276
     51  CG1      161.6330  107.0150  148.8170 C.3    72  ILE72       0.0022
     52  CG2      163.1050  108.9450  148.3290 C.3    72  ILE72       0.0022
     53  CD1      160.7850  107.0950  147.5660 C.3    72  ILE72       0.0001
     54  N        155.8950  109.9290  144.2900 N.3   109  LYS109     -0.1231
     55  CA       155.6840  110.3570  145.6600 C.3   109  LYS109      0.1693
     56  C        154.2400  110.7680  145.8500 C.2   109  LYS109      0.2592
     57  O        153.4580  110.8700  144.9040 O.2   109  LYS109     -0.2718
     58  CB       156.6050  111.5100  146.0610 C.3   109  LYS109      0.0285
     59  CG       156.3110  112.8530  145.4190 C.3   109  LYS109      0.0035
     60  CD       157.3230  113.9040  145.8440 C.3   109  LYS109      0.0206
     61  CE       157.1050  114.3540  147.2680 C.3   109  LYS109      0.1093
     62  NZ       158.0530  115.4120  147.6610 N.3   109  LYS109     -0.1314
     63  N        153.9120  111.0070  147.1080 N.am  110  VAL110     -0.1966
     64  CA       152.6280  111.5010  147.5400 C.3   110  VAL110      0.1727
     65  C        152.8740  112.6000  148.5660 C.2   110  VAL110      0.2616
     66  O        154.0150  112.9420  148.8780 O.2   110  VAL110     -0.2715
     67  CB       151.7530  110.3770  148.1170 C.3   110  VAL110      0.0290
     68  CG1      151.3540  109.4530  147.0380 C.3   110  VAL110      0.0023
     69  CG2      152.5190  109.5870  149.1400 C.3   110  VAL110      0.0023
     70  N        151.7900  113.1650  149.0810 N.am  111  HIS111     -0.1959
     71  CA       151.8330  114.2250  150.0810 C.3   111  HIS111      0.1787
     72  C        152.5370  115.4770  149.5810 C.2   111  HIS111      0.2620
     73  O        152.8720  116.3570  150.3710 O.2   111  HIS111     -0.2715
     74  CB       152.5040  113.7430  151.3660 C.3   111  HIS111      0.0785
     75  CG       151.7690  112.6590  152.0740 C.ar  111  HIS111      0.0821
     76  ND1      150.6550  112.8950  152.8450 N.ar  111  HIS111     -0.2267
     77  CD2      152.0020  111.3320  152.1430 C.ar  111  HIS111      0.1154
     78  CE1      150.2280  111.7540  153.3530 C.ar  111  HIS111      0.1986
     79  NE2      151.0250  110.7890  152.9380 N.ar  111  HIS111     -0.2212
     80  N        152.7530  115.6060  148.2780 N.am  112  HIS112     -0.1959
     81  CA       153.5710  116.6920  147.7490 C.3   112  HIS112      0.1787
     82  C        152.7970  117.9940  147.8630 C.2   112  HIS112      0.2620
     83  O        152.2150  118.5060  146.9050 O.2   112  HIS112     -0.2715
     84  CB       153.9680  116.4290  146.3080 C.3   112  HIS112      0.0785
     85  CG       154.8920  117.4560  145.7420 C.ar  112  HIS112      0.0821
     86  ND1      156.2350  117.5050  146.0470 N.ar  112  HIS112     -0.2267
     87  CD2      154.6630  118.4810  144.8900 C.ar  112  HIS112      0.1154
     88  CE1      156.7980  118.5090  145.3980 C.ar  112  HIS112      0.1986
     89  NE2      155.8660  119.1150  144.6850 N.ar  112  HIS112     -0.2212
     90  N        152.7910  118.5340  149.0690 N.am  113  LEU113     -0.1977
     91  CA       152.4410  119.9180  149.2330 C.3   113  LEU113      0.1596
     92  C        153.4200  120.7550  148.4230 C.2   113  LEU113      0.2287
     93  O        154.5420  120.3210  148.1660 O.2   113  LEU113     -0.2864
     94  CB       152.4630  120.3080  150.7080 C.3   113  LEU113      0.0297
     95  CG       153.7010  120.1270  151.5680 C.3   113  LEU113      0.0022
     96  CD1      154.7990  121.0740  151.2120 C.3   113  LEU113      0.0001
     97  CD2      153.2770  120.3920  152.9850 C.3   113  LEU113      0.0001
     98  N        157.3230  125.2820  152.9440 N.3   118  HIS118     -0.1226
     99  CA       158.2850  124.3060  153.3980 C.3   118  HIS118      0.1752
    100  C        157.8000  123.6500  154.6860 C.2   118  HIS118      0.2596
    101  O        156.7390  123.9630  155.2190 O.2   118  HIS118     -0.2718
    102  CB       159.6480  124.9670  153.5390 C.3   118  HIS118      0.0759
    103  CG       160.3090  125.2460  152.2280 C.ar  118  HIS118      0.0818
    104  ND1      161.0010  124.2810  151.5310 N.ar  118  HIS118     -0.2268
    105  CD2      160.3400  126.3590  151.4620 C.ar  118  HIS118      0.1154
    106  CE1      161.4600  124.8000  150.4070 C.ar  118  HIS118      0.1986
    107  NE2      161.0740  126.0610  150.3430 N.ar  118  HIS118     -0.2212
    108  N        158.5910  122.7080  155.1740 N.am  119  PHE119     -0.1976
    109  CA       158.1550  121.7630  156.1810 C.3   119  PHE119      0.1639
    110  C        159.3900  121.0900  156.7380 C.2   119  PHE119      0.2290
    111  O        160.4250  121.0280  156.0780 O.2   119  PHE119     -0.2864
    112  CB       157.2040  120.7430  155.5790 C.3   119  PHE119      0.0560
    113  CG       156.7380  119.7080  156.5290 C.ar  119  PHE119     -0.0200
    114  CD1      155.6990  119.9400  157.3690 C.ar  119  PHE119     -0.0042
    115  CD2      157.3760  118.5100  156.6050 C.ar  119  PHE119     -0.0042
    116  CE1      155.2760  118.9970  158.2340 C.ar  119  PHE119     -0.0003
    117  CE2      156.9650  117.5580  157.4860 C.ar  119  PHE119     -0.0003
    118  CZ       155.9080  117.8130  158.3100 C.ar  119  PHE119     -0.0000
    119  N        160.0770  117.5910  159.2780 N.3   121  HIS121     -0.1241
    120  CA       159.6350  116.5450  160.1720 C.3   121  HIS121      0.1621
    121  C        160.3050  116.6730  161.5140 C.2   121  HIS121      0.2264
    122  O        159.6520  116.5580  162.5410 O.2   121  HIS121     -0.2867
    123  CB       159.9360  115.1920  159.5860 C.3   121  HIS121      0.0745
    124  CG       159.2670  114.9470  158.2930 C.ar  121  HIS121      0.0817
    125  ND1      159.8060  115.3780  157.1100 N.ar  121  HIS121     -0.2268
    126  CD2      158.1230  114.3070  157.9780 C.ar  121  HIS121      0.1154
    127  CE1      159.0210  115.0250  156.1160 C.ar  121  HIS121      0.1986
    128  NE2      157.9890  114.3820  156.6160 N.ar  121  HIS121     -0.2212
    129  N        158.8190  118.6720  164.0400 N.3   124  HIS124     -0.1226
    130  CA       157.6430  118.0550  164.6290 C.3   124  HIS124      0.1752
    131  C        157.9920  116.8320  165.4680 C.2   124  HIS124      0.2595
    132  O        157.6520  116.7620  166.6530 O.2   124  HIS124     -0.2718
    133  CB       156.6820  117.6650  163.5210 C.3   124  HIS124      0.0759
    134  CG       156.2270  118.8140  162.7000 C.ar  124  HIS124      0.0818
    135  ND1      156.9150  119.2300  161.5890 N.ar  124  HIS124     -0.2268
    136  CD2      155.1680  119.6400  162.8190 C.ar  124  HIS124      0.1154
    137  CE1      156.3050  120.2670  161.0590 C.ar  124  HIS124      0.1986
    138  NE2      155.2320  120.5150  161.7670 N.ar  124  HIS124     -0.2212
    139  N        158.6620  115.8640  164.8520 N.am  125  VAL125     -0.1980
    140  CA       158.9080  114.5680  165.4600 C.3   125  VAL125      0.1595
    141  C        159.6470  114.7250  166.7730 C.2   125  VAL125      0.2287
    142  O        159.2590  114.1340  167.7840 O.2   125  VAL125     -0.2864
    143  CB       159.6770  113.6560  164.4960 C.3   125  VAL125      0.0276
    144  CG1      160.0440  112.3790  165.1780 C.3   125  VAL125      0.0022
    145  CG2      158.8700  113.3660  163.2960 C.3   125  VAL125      0.0022
    146  N        155.1520  114.4010  167.5670 N.3   129  VAL129     -0.1231
    147  CA       154.0290  114.1880  166.6690 C.3   129  VAL129      0.1692
    148  C        154.2700  112.9140  165.8870 C.2   129  VAL129      0.2593
    149  O        155.3750  112.6760  165.3980 O.2   129  VAL129     -0.2718
    150  CB       153.8170  115.3650  165.7070 C.3   129  VAL129      0.0266
    151  CG1      152.6200  115.1250  164.8830 C.3   129  VAL129      0.0020
    152  CG2      153.6600  116.6340  166.4600 C.3   129  VAL129      0.0020
    153  N        153.2160  112.1360  165.7130 N.am  130  GLY130     -0.1942
    154  CA       153.3200  110.7980  165.1690 C.3   130  GLY130      0.2014
    155  C        152.7980  110.6610  163.7610 C.2   130  GLY130      0.2639
    156  O        152.0670  111.5170  163.2610 O.2   130  GLY130     -0.2714
    157  N        153.1530  109.5570  163.1260 N.am  131  CYS131     -0.1967
    158  CA       152.8370  109.3580  161.7300 C.3   131  CYS131      0.1712
    159  C        151.4170  108.8730  161.5300 C.2   131  CYS131      0.2296
    160  O        150.8510  109.0700  160.4510 O.2   131  CYS131     -0.2864
    161  CB       153.8220  108.3690  161.1400 C.3   131  CYS131      0.0983
    162  SG       155.5500  108.9260  161.2480 S.3   131  CYS131     -0.0798
    163  N        149.3190  112.0040  160.7210 N.3   134  CYS134     -0.1221
    164  CA       149.5670  112.8340  159.5510 C.3   134  CYS134      0.1808
    165  C        149.7350  112.0230  158.2760 C.2   134  CYS134      0.2601
    166  O        149.1410  112.3710  157.2510 O.2   134  CYS134     -0.2717
    167  CB       150.8160  113.7300  159.7510 C.3   134  CYS134      0.0970
    168  SG       150.9620  115.2860  160.6620 S.3   134  CYS134     -0.0800
    169  N        150.5350  110.9640  158.2940 N.am  135  HIS135     -0.1975
    170  CA       150.7270  110.1120  157.1340 C.3   135  HIS135      0.1656
    171  C        149.8540  108.8740  157.1530 C.2   135  HIS135      0.2291
    172  O        149.9700  108.0390  156.2550 O.2   135  HIS135     -0.2864
    173  CB       152.1780  109.7070  157.0250 C.3   135  HIS135      0.0771
    174  CG       153.0610  110.8180  156.5950 C.ar  135  HIS135      0.0820
    175  ND1      153.1080  111.2480  155.2920 N.ar  135  HIS135     -0.2267
    176  CD2      153.9100  111.6070  157.2840 C.ar  135  HIS135      0.1154
    177  CE1      153.9680  112.2410  155.1920 C.ar  135  HIS135      0.1986
    178  NE2      154.4330  112.4970  156.3900 N.ar  135  HIS135     -0.2212
    179  N        150.0770  103.2890  158.3590 N.3   138  ILE138     -0.1245
    180  CA       150.7150  102.6390  157.2220 C.3   138  ILE138      0.1561
    181  C        150.8880  101.1360  157.4180 C.2   138  ILE138      0.2260
    182  O        151.0500  100.4130  156.4290 O.2   138  ILE138     -0.2867
    183  CB       152.0620  103.3260  156.9500 C.3   138  ILE138      0.0252
    184  CG1      151.8370  104.7500  156.4770 C.3   138  ILE138      0.0019
    185  CG2      152.8650  102.5810  155.9200 C.3   138  ILE138      0.0019
    186  CD1      153.0860  105.6270  156.5030 C.3   138  ILE138      0.0001
    187  N        146.8760  116.7100  153.8740 N.3   150  LEU150     -0.1245
    188  CA       148.0690  117.5490  153.9270 C.3   150  LEU150      0.1561
    189  C        147.8480  118.8130  153.1040 C.2   150  LEU150      0.2260
    190  O        148.5530  119.1200  152.1460 O.2   150  LEU150     -0.2867
    191  CB       149.3260  116.7940  153.4870 C.3   150  LEU150      0.0270
    192  CG       150.0130  115.9630  154.5700 C.3   150  LEU150      0.0019
    193  CD1      150.5070  116.8470  155.7100 C.3   150  LEU150      0.0001
    194  CD2      149.0950  114.8710  155.0950 C.3   150  LEU150      0.0001
    195  N        143.8660  121.8540  157.2710 N.3   154  TRP154     -0.1227
    196  CA       144.0730  120.7700  158.2060 C.3   154  TRP154      0.1737
    197  C        145.4540  120.8090  158.8310 C.2   154  TRP154      0.2595
    198  O        145.6130  120.4150  159.9900 O.2   154  TRP154     -0.2718
    199  CB       143.8910  119.4340  157.5080 C.3   154  TRP154      0.0564
    200  CG       144.1130  118.3190  158.4330 C.ar  154  TRP154      0.0003
    201  CD1      143.2460  117.8300  159.3660 C.ar  154  TRP154      0.0946
    202  CD2      145.3210  117.5910  158.5870 C.ar  154  TRP154      0.0152
    203  NE1      143.8370  116.8100  160.0650 N.ar  154  TRP154     -0.2442
    204  CE2      145.1150  116.6520  159.6030 C.ar  154  TRP154      0.0810
    205  CE3      146.5570  117.6410  157.9560 C.ar  154  TRP154      0.0012
    206  CZ2      146.0890  115.7680  159.9870 C.ar  154  TRP154      0.0191
    207  CZ3      147.5120  116.7720  158.3320 C.ar  154  TRP154      0.0001
    208  CH2      147.2850  115.8440  159.3380 C.ar  154  TRP154      0.0015
    209  N        146.4590  121.2490  158.0800 N.am  155  CYS155     -0.1970
    210  CA       147.7850  121.4430  158.6510 C.3   155  CYS155      0.1712
    211  C        147.7430  122.3640  159.8510 C.2   155  CYS155      0.2296
    212  O        148.5290  122.2070  160.7870 O.2   155  CYS155     -0.2864
    213  CB       148.7310  122.0290  157.6140 C.3   155  CYS155      0.0983
    214  SG       150.4210  122.2810  158.1700 S.3   155  CYS155     -0.0798
    215  N        157.3820  106.8430  169.4240 N.3   172  ILE172     -0.1231
    216  CA       156.4800  107.6780  168.6450 C.3   172  ILE172      0.1692
    217  C        155.9560  106.9340  167.4280 C.2   172  ILE172      0.2592
    218  O        154.7970  107.1010  167.0360 O.2   172  ILE172     -0.2718
    219  CB       157.1960  108.9760  168.2470 C.3   172  ILE172      0.0266
    220  CG1      156.2130  109.9750  167.6960 C.3   172  ILE172      0.0019
    221  CG2      158.2440  108.7440  167.2070 C.3   172  ILE172      0.0020
    222  CD1      156.7950  111.3210  167.5590 C.3   172  ILE172      0.0001
    223  N        156.7960  106.1190  166.8020 N.am  173  THR173     -0.1953
    224  CA       156.4190  105.3860  165.6030 C.3   173  THR173      0.1897
    225  C        155.8110  104.0620  166.0330 C.2   173  THR173      0.2313
    226  O        156.4380  103.0030  166.0000 O.2   173  THR173     -0.2863
    227  CB       157.6210  105.1940  164.6990 C.3   173  THR173      0.1794
    228  OG1      158.6250  104.4470  165.3920 O.3   173  THR173     -0.2208
    229  CG2      158.1740  106.5180  164.3230 C.3   173  THR173      0.0378
@<TRIPOS>BOND
     1    54    55    1
     2    89    87   ar
     3    89    88   ar
     4    87    85   ar
     5    57    56    2
     6    88    86   ar
     7    59    60    1
     8    59    58    1
     9    55    56    1
    10    55    58    1
    11    85    86   ar
    12    85    84    1
    13    60    61    1
    14    56    63   am
    15    84    81    1
    16    83    82    2
    17    68    67    1
    18    63    64    1
    19    61    62    1
    20    64    67    1
    21    64    65    1
    22    53    51    1
    23    81    82    1
    24    81    80    1
    25    82    90   am
    26    67    69    1
    27    93    92    2
    28    80    72   am
    29    52    50    1
    30    92    91    1
    31    65    66    2
    32    65    70   am
    33    51    50    1
    34    32    31    1
    35    90    91    1
    36    70    71    1
    37    31    30    1
    38    91    94    1
    39    50    47    1
    40    72    71    1
    41    72    73    2
    42    71    74    1
    43   107   106   ar
    44   107   105   ar
    45   106   104   ar
    46    49    48    2
    47    30    29    1
    48    48    47    1
    49    47    46    1
    50    94    95    1
    51    46    40   am
    52    96    95    1
    53    74    75    1
    54   105   103   ar
    55   104   103   ar
    56    95    97    1
    57    29    28    1
    58    75    77   ar
    59    75    76   ar
    60    77    79   ar
    61   190   189    2
    62   103   102    1
    63    42    39    1
    64    42    43    1
    65    40    39    1
    66    40    41    2
    67    39    38    1
    68    76    78   ar
    69    45    43   am
    70    28    25    1
    71    79    78   ar
    72    98    99    1
    73   189   188    1
    74    36    35    2
    75    43    44    2
    76    27    26    2
    77    99   102    1
    78    99   100    1
    79    15    13   ar
    80    15    16   ar
    81   191   188    1
    82   191   192    1
    83    38    35   am
    84   187   188    1
    85    35    34    1
    86    26    25    1
    87    26    33   am
    88    25    24    1
    89    13    12   ar
    90    16    14   ar
    91   192   194    1
    92   192   193    1
    93   100   108   am
    94   100   101    2
    95    33    34    1
    96   108   109    1
    97   177   175   ar
    98   177   178   ar
    99    34    37    1
   100   175   174   ar
   101    12    14   ar
   102    12    11    1
   103   112   109    1
   104   112   113    1
   105   185   183    1
   106   111   110    2
   107   127   128   ar
   108   127   125   ar
   109   109   110    1
   110     8     7    1
   111     8    11    1
   112     8     9    1
   113   172   171    2
   114   178   176   ar
   115   182   181    2
   116   184   186    1
   117   184   183    1
   118   113   115   ar
   119   113   114   ar
   120   174   173    1
   121   174   176   ar
   122   115   117   ar
   123   128   126   ar
   124   183   180    1
   125   173   170    1
   126   125   124   ar
   127   170   171    1
   128   170   169    1
   129   180   181    1
   130   180   179    1
   131     9    10    2
   132   166   165    2
   133   195   196    1
   134   114   116   ar
   135   117   118   ar
   136   199   196    1
   137   199   200    1
   138   213   214    1
   139   213   210    1
   140   205   207   ar
   141   205   202   ar
   142   126   124   ar
   143   209   210    1
   144   209   197   am
   145   196   197    1
   146   116   118   ar
   147   165   169   am
   148   165   164    1
   149   124   123    1
   150   207   208   ar
   151   200   202   ar
   152   200   201   ar
   153   202   204   ar
   154   210   211    1
   155   197   198    2
   156     4     3    2
   157   119   120    1
   158   208   206   ar
   159   201   203   ar
   160    17    18    1
   161   164   167    1
   162   164   163    1
   163   123   120    1
   164   204   206   ar
   165   204   203   ar
   166    21    23    1
   167    21    18    1
   168    21    22    1
   169   167   168    1
   170    18    19    1
   171   211   212    2
   172   120   121    1
   173     3     2    1
   174     2     5    1
   175     2     1    1
   176   160   159    2
   177     5     6    1
   178   137   135   ar
   179   137   138   ar
   180   161   162    1
   181   161   158    1
   182    19    20    2
   183   121   122    2
   184   159   158    1
   185   135   134   ar
   186   158   157    1
   187   138   136   ar
   188   134   136   ar
   189   134   133    1
   190   157   155   am
   191   156   155    2
   192   145   143    1
   193   133   130    1
   194   155   154    1
   195   129   130    1
   196   229   227    1
   197   143   144    1
   198   143   140    1
   199   130   131    1
   200   227   228    1
   201   227   224    1
   202   139   140    1
   203   139   131   am
   204   151   150    1
   205   154   153    1
   206   149   148    2
   207   140   141    1
   208   131   132    2
   209   224   225    1
   210   224   223    1
   211   150   152    1
   212   150   147    1
   213   153   148   am
   214   148   147    1
   215   226   225    2
   216   147   146    1
   217   141   142    2
   218   223   217   am
   219   218   217    2
   220   221   219    1
   221   217   216    1
   222   222   220    1
   223   220   219    1
   224   219   216    1
   225   216   215    1
