@<TRIPOS>MOLECULE
tmp/6f0kA03.pdb
 222 218 0 0 0
SMALL
GASTEIGER

@<TRIPOS>ATOM
      1  N        153.3640  102.3960  141.8050 N.3    40  TYR40      -0.1241
      2  CA       154.7930  102.6350  141.8610 C.3    40  TYR40       0.1605
      3  C        155.5020  101.9050  140.7300 C.2    40  TYR40       0.2264
      4  O        154.8850  101.2340  139.8970 O.2    40  TYR40      -0.2867
      5  CB       155.3430  102.1680  143.1930 C.3    40  TYR40       0.0534
      6  CG       154.8320  102.9330  144.3660 C.ar   40  TYR40      -0.0201
      7  CD1      155.3130  104.1900  144.6340 C.ar   40  TYR40      -0.0009
      8  CD2      153.8990  102.3850  145.2320 C.ar   40  TYR40      -0.0009
      9  CE1      154.8730  104.9030  145.7110 C.ar   40  TYR40       0.0417
     10  CE2      153.4440  103.0920  146.3270 C.ar   40  TYR40       0.0417
     11  CZ       153.9350  104.3560  146.5590 C.ar   40  TYR40       0.1957
     12  OH       153.4910  105.0730  147.6460 O.3    40  TYR40      -0.2866
     13  N        156.2810   98.5830  147.0110 N.3    44  TYR44      -0.1241
     14  CA       157.0030   98.4220  148.2660 C.3    44  TYR44       0.1605
     15  C        156.2380   97.5430  149.2310 C.2    44  TYR44       0.2264
     16  O        156.8010   96.6270  149.8350 O.2    44  TYR44      -0.2867
     17  CB       157.2290   99.7750  148.8940 C.3    44  TYR44       0.0534
     18  CG       157.9920   99.8100  150.1910 C.ar   44  TYR44      -0.0201
     19  CD1      159.3630   99.7250  150.2070 C.ar   44  TYR44      -0.0009
     20  CD2      157.3400   99.9880  151.3950 C.ar   44  TYR44      -0.0009
     21  CE1      160.0750   99.7970  151.3910 C.ar   44  TYR44       0.0417
     22  CE2      158.0390  100.0570  152.5930 C.ar   44  TYR44       0.0417
     23  CZ       159.4190   99.9420  152.6040 C.ar   44  TYR44       0.1957
     24  OH       160.1770  100.0810  153.7980 O.3    44  TYR44      -0.2866
     25  N        154.4210   98.4300  152.2820 N.3    46  HIS46      -0.1241
     26  CA       154.6610   98.7130  153.6950 C.3    46  HIS46       0.1621
     27  C        154.0280   97.6840  154.6200 C.2    46  HIS46       0.2264
     28  O        154.5270   97.4740  155.7330 O.2    46  HIS46      -0.2867
     29  CB       154.1280  100.0880  154.0690 C.3    46  HIS46       0.0745
     30  CG       154.8950  101.2310  153.4950 C.ar   46  HIS46       0.0817
     31  ND1      154.6710  101.7030  152.2260 N.ar   46  HIS46      -0.2268
     32  CD2      155.8270  102.0470  154.0400 C.ar   46  HIS46       0.1154
     33  CE1      155.4660  102.7290  151.9940 C.ar   46  HIS46       0.1986
     34  NE2      156.1800  102.9570  153.0780 N.ar   46  HIS46      -0.2212
     35  N        156.9870   94.9040  155.0850 N.3    49  HIS49      -0.1226
     36  CA       158.1610   95.3610  155.8030 C.3    49  HIS49       0.1752
     37  C        157.8360   95.8100  157.2170 C.2    49  HIS49       0.2595
     38  O        158.7230   95.7800  158.0740 O.2    49  HIS49      -0.2718
     39  CB       158.8070   96.4870  155.0370 C.3    49  HIS49       0.0759
     40  CG       159.2850   96.0920  153.6860 C.ar   49  HIS49       0.0818
     41  ND1      158.4850   96.1490  152.5700 N.ar   49  HIS49      -0.2268
     42  CD2      160.4770   95.6200  153.2690 C.ar   49  HIS49       0.1154
     43  CE1      159.1720   95.7340  151.5200 C.ar   49  HIS49       0.1986
     44  NE2      160.3870   95.4290  151.9180 N.ar   49  HIS49      -0.2212
     45  N        156.5930   96.2060  157.4850 N.am   50  VAL50      -0.1980
     46  CA       156.1790   96.6720  158.8030 C.3    50  VAL50       0.1595
     47  C        155.2560   95.6700  159.4840 C.2    50  VAL50       0.2287
     48  O        155.5390   95.1990  160.5840 O.2    50  VAL50      -0.2864
     49  CB       155.5170   98.0600  158.7040 C.3    50  VAL50       0.0276
     50  CG1      155.0280   98.4940  160.0440 C.3    50  VAL50       0.0022
     51  CG2      156.4770   99.0440  158.1090 C.3    50  VAL50       0.0022
     52  N        159.6590   96.2060  161.3580 N.3    55  LEU55      -0.1231
     53  CA       160.5860   97.3200  161.2560 C.3    55  LEU55       0.1693
     54  C        159.8960   98.5980  161.6630 C.2    55  LEU55       0.2592
     55  O        158.7780   98.8750  161.2290 O.2    55  LEU55      -0.2718
     56  CB       161.1270   97.4840  159.8480 C.3    55  LEU55       0.0284
     57  CG       162.3100   96.6380  159.4370 C.3    55  LEU55       0.0019
     58  CD1      161.8900   95.2220  159.1650 C.3    55  LEU55       0.0001
     59  CD2      162.9550   97.2460  158.2440 C.3    55  LEU55       0.0001
     60  N        160.5630   99.3710  162.5000 N.am   56  ASP56      -0.1960
     61  CA       160.1580  100.7380  162.7330 C.3    56  ASP56       0.1840
     62  C        160.6030  101.5850  161.5520 C.2    56  ASP56       0.2622
     63  O        161.2480  101.1110  160.6160 O.2    56  ASP56      -0.2715
     64  CB       160.7210  101.2480  164.0540 C.3    56  ASP56       0.1450
     65  CG       160.0370  100.6240  165.2660 C.2    56  ASP56       0.3671
     66  OD1      158.8480  100.2540  165.1610 O.co2  56  ASP56      -0.2456
     67  OD2      160.6810  100.5140  166.3300 O.co2  56  ASP56      -0.2456
     68  N        160.2640  102.8570  161.6010 N.am   57  CYS57      -0.1968
     69  CA       160.2760  103.6820  160.4160 C.3    57  CYS57       0.1712
     70  C        161.6060  104.3720  160.1960 C.2    57  CYS57       0.2296
     71  O        161.8950  104.7820  159.0720 O.2    57  CYS57      -0.2864
     72  CB       159.1610  104.7070  160.5350 C.3    57  CYS57       0.0983
     73  SG       157.6020  103.9330  160.9230 S.3    57  CYS57      -0.0798
     74  N        164.4320  103.1030  159.9590 N.3    59  TYR59      -0.1227
     75  CA       165.3970  102.2800  159.2480 C.3    59  TYR59       0.1736
     76  C        165.7280  102.8750  157.8990 C.2    59  TYR59       0.2596
     77  O        166.8530  103.3240  157.6720 O.2    59  TYR59      -0.2718
     78  CB       164.8640  100.8710  159.0410 C.3    59  TYR59       0.0548
     79  CG       165.8090   99.9560  158.3000 C.ar   59  TYR59      -0.0200
     80  CD1      166.7740   99.2560  158.9670 C.ar   59  TYR59      -0.0009
     81  CD2      165.7560   99.8240  156.9310 C.ar   59  TYR59      -0.0009
     82  CE1      167.6430   98.4330  158.3120 C.ar   59  TYR59       0.0417
     83  CE2      166.6320   99.0130  156.2630 C.ar   59  TYR59       0.0417
     84  CZ       167.5740   98.3180  156.9630 C.ar   59  TYR59       0.1957
     85  OH       168.4550   97.4980  156.3070 O.3    59  TYR59      -0.2866
     86  N        164.7490  102.8810  157.0050 N.am   60  CYS60      -0.1956
     87  CA       164.9450  103.3180  155.6390 C.3    60  CYS60       0.1843
     88  C        164.3950  104.7060  155.3740 C.2    60  CYS60       0.2625
     89  O        164.7550  105.3080  154.3640 O.2    60  CYS60      -0.2714
     90  CB       164.3540  102.2950  154.6580 C.3    60  CYS60       0.0997
     91  SG       162.6300  101.7750  154.8250 S.3    60  CYS60      -0.0797
     92  N        163.5650  105.2400  156.2550 N.am   61  HIS61      -0.1973
     93  CA       163.2470  106.6630  156.2300 C.3    61  HIS61       0.1656
     94  C        164.1120  107.4040  157.2250 C.2    61  HIS61       0.2291
     95  O        163.6460  108.1180  158.1050 O.2    61  HIS61      -0.2864
     96  CB       161.7790  106.8850  156.4950 C.3    61  HIS61       0.0771
     97  CG       160.8980  106.3470  155.4260 C.ar   61  HIS61       0.0820
     98  ND1      160.9000  106.8650  154.1560 N.ar   61  HIS61      -0.2267
     99  CD2      159.9740  105.3610  155.4300 C.ar   61  HIS61       0.1154
    100  CE1      160.0140  106.2230  153.4230 C.ar   61  HIS61       0.1986
    101  NE2      159.4540  105.2990  154.1690 N.ar   61  HIS61      -0.2212
    102  N        162.9380  109.6140  151.2100 N.3    72  ILE72      -0.1231
    103  CA       162.7350  108.2700  150.6950 C.3    72  ILE72       0.1678
    104  C        164.0950  107.5900  150.6760 C.2    72  ILE72       0.2434
    105  O        165.1060  108.2720  150.4350 O.2    72  ILE72      -0.2733
    106  CB       162.1200  108.3590  149.2940 C.3    72  ILE72       0.0265
    107  CG1      161.6330  107.0150  148.8170 C.3    72  ILE72       0.0019
    108  CG2      163.1050  108.9450  148.3290 C.3    72  ILE72       0.0020
    109  CD1      160.7850  107.0950  147.5660 C.3    72  ILE72       0.0001
    110  N        164.2200  106.3010  150.9590 N.am   73  PRO73      -0.2729
    111  CA       165.5410  105.7010  151.0310 C.3    73  PRO73       0.1401
    112  C        166.2390  105.6800  149.6900 C.2    73  PRO73       0.2269
    113  O        165.5930  105.8210  148.6440 O.2    73  PRO73      -0.2865
    114  CB       165.2620  104.2760  151.4920 C.3    73  PRO73       0.0296
    115  CG       163.8770  104.0570  151.2140 C.3    73  PRO73       0.0237
    116  CD       163.2120  105.3500  151.4170 C.3    73  PRO73       0.0939
    117  N        169.4360  100.6560  150.5720 N.3    77  THR77      -0.1203
    118  CA       168.7710  100.0460  151.7090 C.3    77  THR77       0.1994
    119  C        168.2200   98.6820  151.3480 C.2    77  THR77       0.2618
    120  O        168.3630   97.7260  152.1150 O.2    77  THR77      -0.2717
    121  CB       167.6600  100.9430  152.2100 C.3    77  THR77       0.1784
    122  OG1      166.7170  101.1480  151.1570 O.3    77  THR77      -0.2211
    123  CG2      168.2150  102.2570  152.6560 C.3    77  THR77       0.0376
    124  N        167.5920   98.5690  150.1840 N.am   78  CYS78      -0.1969
    125  CA       167.1280   97.2680  149.7330 C.3    78  CYS78       0.1712
    126  C        168.2940   96.3270  149.5270 C.2    78  CYS78       0.2296
    127  O        168.1780   95.1180  149.7610 O.2    78  CYS78      -0.2864
    128  CB       166.3390   97.4140  148.4450 C.3    78  CYS78       0.0983
    129  SG       164.8860   98.4540  148.6560 S.3    78  CYS78      -0.0798
    130  N        160.9810  106.4290  141.7370 N.3   107  TRP107     -0.1227
    131  CA       159.9700  106.5470  142.7760 C.3   107  TRP107      0.1737
    132  C        159.0370  107.7170  142.5030 C.2   107  TRP107      0.2595
    133  O        159.4860  108.8550  142.3530 O.2   107  TRP107     -0.2718
    134  CB       160.5890  106.7490  144.1500 C.3   107  TRP107      0.0564
    135  CG       161.3580  105.6240  144.7040 C.ar  107  TRP107      0.0003
    136  CD1      162.6920  105.5770  144.9110 C.ar  107  TRP107      0.0946
    137  CD2      160.8410  104.3760  145.1440 C.ar  107  TRP107      0.0152
    138  NE1      163.0460  104.3800  145.4610 N.ar  107  TRP107     -0.2442
    139  CE2      161.9190  103.6220  145.6130 C.ar  107  TRP107      0.0810
    140  CE3      159.5710  103.8220  145.1880 C.ar  107  TRP107      0.0012
    141  CZ2      161.7680  102.3490  146.0980 C.ar  107  TRP107      0.0191
    142  CZ3      159.4260  102.5610  145.6780 C.ar  107  TRP107      0.0001
    143  CH2      160.5110  101.8370  146.1250 C.ar  107  TRP107      0.0015
    144  N        157.7400  107.4350  142.4670 N.am  108  VAL108     -0.1966
    145  CA       156.7250  108.4720  142.5450 C.3   108  VAL108      0.1727
    146  C        156.6040  108.8450  144.0030 C.2   108  VAL108      0.2616
    147  O        157.1520  108.1550  144.8660 O.2   108  VAL108     -0.2715
    148  CB       155.3720  108.0250  141.9720 C.3   108  VAL108      0.0290
    149  CG1      155.4930  107.7690  140.4870 C.3   108  VAL108      0.0023
    150  CG2      154.8420  106.7850  142.6750 C.3   108  VAL108      0.0023
    151  N        155.8950  109.9290  144.2900 N.am  109  LYS109     -0.1963
    152  CA       155.6840  110.3570  145.6600 C.3   109  LYS109      0.1728
    153  C        154.2400  110.7680  145.8500 C.2   109  LYS109      0.2616
    154  O        153.4580  110.8700  144.9040 O.2   109  LYS109     -0.2715
    155  CB       156.6050  111.5100  146.0610 C.3   109  LYS109      0.0311
    156  CG       156.3110  112.8530  145.4190 C.3   109  LYS109      0.0038
    157  CD       157.3230  113.9040  145.8440 C.3   109  LYS109      0.0206
    158  CE       157.1050  114.3540  147.2680 C.3   109  LYS109      0.1093
    159  NZ       158.0530  115.4120  147.6610 N.3   109  LYS109     -0.1314
    160  N        153.9120  111.0070  147.1080 N.am  110  VAL110     -0.1963
    161  CA       152.6280  111.5010  147.5400 C.3   110  VAL110      0.1727
    162  C        152.8740  112.6000  148.5660 C.2   110  VAL110      0.2616
    163  O        154.0150  112.9420  148.8780 O.2   110  VAL110     -0.2715
    164  CB       151.7530  110.3770  148.1170 C.3   110  VAL110      0.0290
    165  CG1      151.3540  109.4530  147.0380 C.3   110  VAL110      0.0023
    166  CG2      152.5190  109.5870  149.1400 C.3   110  VAL110      0.0023
    167  N        151.7900  113.1650  149.0810 N.am  111  HIS111     -0.1973
    168  CA       151.8330  114.2250  150.0810 C.3   111  HIS111      0.1656
    169  C        152.5370  115.4770  149.5810 C.2   111  HIS111      0.2291
    170  O        152.8720  116.3570  150.3710 O.2   111  HIS111     -0.2864
    171  CB       152.5040  113.7430  151.3660 C.3   111  HIS111      0.0771
    172  CG       151.7690  112.6590  152.0740 C.ar  111  HIS111      0.0820
    173  ND1      150.6550  112.8950  152.8450 N.ar  111  HIS111     -0.2267
    174  CD2      152.0020  111.3320  152.1430 C.ar  111  HIS111      0.1154
    175  CE1      150.2280  111.7540  153.3530 C.ar  111  HIS111      0.1986
    176  NE2      151.0250  110.7890  152.9380 N.ar  111  HIS111     -0.2212
    177  N        153.1530  109.5570  163.1260 N.3   131  CYS131     -0.1235
    178  CA       152.8370  109.3580  161.7300 C.3   131  CYS131      0.1677
    179  C        151.4170  108.8730  161.5300 C.2   131  CYS131      0.2270
    180  O        150.8510  109.0700  160.4510 O.2   131  CYS131     -0.2867
    181  CB       153.8220  108.3690  161.1400 C.3   131  CYS131      0.0956
    182  SG       155.5500  108.9260  161.2480 S.3   131  CYS131     -0.0801
    183  N        150.5350  110.9640  158.2940 N.3   135  HIS135     -0.1241
    184  CA       150.7270  110.1120  157.1340 C.3   135  HIS135      0.1621
    185  C        149.8540  108.8740  157.1530 C.2   135  HIS135      0.2264
    186  O        149.9700  108.0390  156.2550 O.2   135  HIS135     -0.2867
    187  CB       152.1780  109.7070  157.0250 C.3   135  HIS135      0.0745
    188  CG       153.0610  110.8180  156.5950 C.ar  135  HIS135      0.0817
    189  ND1      153.1080  111.2480  155.2920 N.ar  135  HIS135     -0.2268
    190  CD2      153.9100  111.6070  157.2840 C.ar  135  HIS135      0.1154
    191  CE1      153.9680  112.2410  155.1920 C.ar  135  HIS135      0.1986
    192  NE2      154.4330  112.4970  156.3900 N.ar  135  HIS135     -0.2212
    193  N        150.0770  103.2890  158.3590 N.3   138  ILE138     -0.1245
    194  CA       150.7150  102.6390  157.2220 C.3   138  ILE138      0.1561
    195  C        150.8880  101.1360  157.4180 C.2   138  ILE138      0.2260
    196  O        151.0500  100.4130  156.4290 O.2   138  ILE138     -0.2867
    197  CB       152.0620  103.3260  156.9500 C.3   138  ILE138      0.0252
    198  CG1      151.8370  104.7500  156.4770 C.3   138  ILE138      0.0019
    199  CG2      152.8650  102.5810  155.9200 C.3   138  ILE138      0.0019
    200  CD1      153.0860  105.6270  156.5030 C.3   138  ILE138      0.0001
    201  N        150.0720  103.6260  149.0240 N.3   144  VAL144     -0.1245
    202  CA       149.7680  104.7370  149.9120 C.3   144  VAL144      0.1561
    203  C        148.4430  105.3760  149.5200 C.2   144  VAL144      0.2260
    204  O        148.2420  105.7720  148.3670 O.2   144  VAL144     -0.2867
    205  CB       150.9030  105.7640  149.9030 C.3   144  VAL144      0.0252
    206  CG1      150.5340  106.9130  150.7960 C.3   144  VAL144      0.0019
    207  CG2      152.1840  105.1300  150.3560 C.3   144  VAL144      0.0019
    208  N        156.7960  106.1190  166.8020 N.3   173  THR173     -0.1218
    209  CA       156.4190  105.3860  165.6030 C.3   173  THR173      0.1862
    210  C        155.8110  104.0620  166.0330 C.2   173  THR173      0.2287
    211  O        156.4380  103.0030  166.0000 O.2   173  THR173     -0.2866
    212  CB       157.6210  105.1940  164.6990 C.3   173  THR173      0.1770
    213  OG1      158.6250  104.4470  165.3920 O.3   173  THR173     -0.2211
    214  CG2      158.1740  106.5180  164.3230 C.3   173  THR173      0.0375
    215  N        152.1450  102.4150  165.2140 N.3   175  MET175     -0.1245
    216  CA       150.8720  102.5250  164.5240 C.3   175  MET175      0.1570
    217  C        149.7240  102.0030  165.3710 C.2   175  MET175      0.2261
    218  O        148.6020  102.5080  165.2670 O.2   175  MET175     -0.2867
    219  CB       150.9510  101.7700  163.2060 C.3   175  MET175      0.0387
    220  CG       151.9490  102.3550  162.2200 C.3   175  MET175      0.0595
    221  SD       151.5320  104.0080  161.6650 S.3   175  MET175     -0.1393
    222  CE       152.6360  104.9520  162.6880 C.3   175  MET175      0.0692
@<TRIPOS>BOND
     1     4     3    2
     2   149   148    1
     3     3     2    1
     4   130   131    1
     5     1     2    1
     6     2     5    1
     7   148   145    1
     8   148   150    1
     9   133   132    2
    10   144   132   am
    11   144   145    1
    12   132   131    1
    13   145   146    1
    14   131   134    1
    15     5     6    1
    16   146   151   am
    17   146   147    2
    18   134   135    1
    19   151   152    1
    20     6     7   ar
    21     6     8   ar
    22     7     9   ar
    23   135   136   ar
    24   135   137   ar
    25   154   153    2
    26   136   138   ar
    27   137   140   ar
    28   137   139   ar
    29   140   142   ar
    30     8    10   ar
    31   156   157    1
    32   156   155    1
    33   138   139   ar
    34   139   141   ar
    35   152   153    1
    36   152   155    1
    37   142   143   ar
    38     9    11   ar
    39   157   158    1
    40   153   160   am
    41   141   143   ar
    42    10    11   ar
    43    11    12    1
    44    13    14    1
    45   165   164    1
    46   160   161    1
    47   158   159    1
    48   161   164    1
    49   161   162    1
    50   109   107    1
    51   164   166    1
    52    14    17    1
    53    14    15    1
    54   108   106    1
    55   204   203    2
    56   128   129    1
    57   128   125    1
    58   162   163    2
    59   162   167   am
    60   113   112    2
    61   107   106    1
    62    17    18    1
    63   201   202    1
    64   167   168    1
    65    15    16    2
    66   106   103    1
    67   203   202    1
    68   126   125    1
    69   126   127    2
    70   169   168    1
    71   169   170    2
    72   112   111    1
    73   125   124    1
    74   205   202    1
    75   205   207    1
    76   205   206    1
    77   168   171    1
    78   124   119   am
    79    18    19   ar
    80    18    20   ar
    81    19    21   ar
    82   105   104    2
    83   117   118    1
    84   104   103    1
    85   104   110   am
    86   103   102    1
    87   110   111    1
    88   110   116    1
    89   111   114    1
    90   122   121    1
    91   115   116    1
    92   115   114    1
    93   119   118    1
    94   119   120    2
    95   171   172    1
    96    21    23   ar
    97    20    22   ar
    98    43    44   ar
    99    43    41   ar
   100   118   121    1
   101    44    42   ar
   102    33    31   ar
   103    33    34   ar
   104   172   174   ar
   105   172   173   ar
   106   174   176   ar
   107   121   123    1
   108    31    30   ar
   109    25    26    1
   110    41    40   ar
   111    22    23   ar
   112    23    24    1
   113   173   175   ar
   114   176   175   ar
   115    34    32   ar
   116    42    40   ar
   117   100    98   ar
   118   100   101   ar
   119    30    32   ar
   120    30    29    1
   121    40    39    1
   122    26    29    1
   123    26    27    1
   124    98    97   ar
   125   101    99   ar
   126    89    88    2
   127    27    28    2
   128    90    91    1
   129    90    87    1
   130    39    36    1
   131    35    36    1
   132   191   189   ar
   133   191   192   ar
   134   189   188   ar
   135    88    87    1
   136    88    92   am
   137    97    99   ar
   138    97    96    1
   139    87    86    1
   140    36    37    1
   141   199   197    1
   142    93    92    1
   143    93    96    1
   144    93    94    1
   145   186   185    2
   146    83    81   ar
   147    83    84   ar
   148    85    84    1
   149   192   190   ar
   150   196   195    2
   151   198   200    1
   152   198   197    1
   153   188   187    1
   154   188   190   ar
   155    81    79   ar
   156   197   194    1
   157    84    82   ar
   158    86    76   am
   159   187   184    1
   160   184   185    1
   161   184   183    1
   162    37    45   am
   163    37    38    2
   164   194   195    1
   165   194   193    1
   166    94    95    2
   167    45    46    1
   168    77    76    2
   169    76    75    1
   170    51    49    1
   171    59    57    1
   172    79    80   ar
   173    79    78    1
   174    82    80   ar
   175    49    46    1
   176    49    50    1
   177    46    47    1
   178    78    75    1
   179    71    70    2
   180    58    57    1
   181    75    74    1
   182    57    56    1
   183    47    48    2
   184    56    53    1
   185    70    69    1
   186    69    72    1
   187    69    68    1
   188   180   179    2
   189    72    73    1
   190    63    62    2
   191   181   182    1
   192   181   178    1
   193    55    54    2
   194    53    52    1
   195    53    54    1
   196   179   178    1
   197    62    68   am
   198    62    61    1
   199    54    60   am
   200   221   220    1
   201   221   222    1
   202   178   177    1
   203   220   219    1
   204    60    61    1
   205    61    64    1
   206   219   216    1
   207    64    65    1
   208   214   212    1
   209   216   215    1
   210   216   217    1
   211   212   213    1
   212   212   209    1
   213    66    65   ar
   214    65    67   ar
   215   218   217    2
   216   209   210    1
   217   209   208    1
   218   211   210    2
