@<TRIPOS>MOLECULE
tmp/6f0lD01.pdb
 103 99 0 0 0
SMALL
GASTEIGER

@<TRIPOS>ATOM
      1  N        204.0460   96.5990  171.9670 N.3   321  SER321     -0.1202
      2  CA       203.2880   96.3770  173.1850 C.3   321  SER321      0.2020
      3  C        202.2480   95.2830  173.0570 C.2   321  SER321      0.2619
      4  O        201.7780   94.7770  174.0760 O.2   321  SER321     -0.2717
      5  CB       202.5820   97.6680  173.6190 C.3   321  SER321      0.2103
      6  OG       201.7790   97.4320  174.7610 O.3   321  SER321     -0.2182
      7  N        201.8670   94.9110  171.8420 N.am  322  ILE322     -0.1965
      8  CA       200.8460   93.8890  171.6530 C.3   322  ILE322      0.1727
      9  C        201.4320   92.7720  170.8030 C.2   322  ILE322      0.2616
     10  O        201.8600   92.9980  169.6660 O.2   322  ILE322     -0.2715
     11  CB       199.5780   94.4700  171.0120 C.3   322  ILE322      0.0290
     12  CG1      198.8890   95.4710  171.9510 C.3   322  ILE322      0.0022
     13  CG2      198.6200   93.3520  170.6380 C.3   322  ILE322      0.0023
     14  CD1      199.2550   96.9360  171.7190 C.3   322  ILE322      0.0001
     15  N        201.4500   91.5660  171.3540 N.am  323  PHE323     -0.1974
     16  CA       202.0340   90.4150  170.6910 C.3   323  PHE323      0.1639
     17  C        200.9980   89.7380  169.8020 C.2   323  PHE323      0.2290
     18  O        199.8190   89.6410  170.1510 O.2   323  PHE323     -0.2864
     19  CB       202.5720   89.4320  171.7300 C.3   323  PHE323      0.0560
     20  CG       203.2790   88.2540  171.1410 C.ar  323  PHE323     -0.0200
     21  CD1      204.5520   88.3920  170.6160 C.ar  323  PHE323     -0.0042
     22  CD2      202.6770   87.0050  171.1230 C.ar  323  PHE323     -0.0042
     23  CE1      205.2120   87.3070  170.0750 C.ar  323  PHE323     -0.0003
     24  CE2      203.3290   85.9150  170.5840 C.ar  323  PHE323     -0.0003
     25  CZ       204.5990   86.0660  170.0590 C.ar  323  PHE323     -0.0000
     26  N        198.7530   89.1670  166.2030 N.3   325  ASN325     -0.1240
     27  CA       197.8810   89.9260  165.2980 C.3   325  ASN325      0.1653
     28  C        198.6800   90.5440  164.1500 C.2   325  ASN325      0.2266
     29  O        198.5460   91.7210  163.8150 O.2   325  ASN325     -0.2867
     30  CB       197.0790   90.9880  166.0570 C.3   325  ASN325      0.1155
     31  CG       196.0280   90.3820  166.9570 C.2   325  ASN325      0.2627
     32  OD1      195.3430   89.4340  166.5750 O.2   325  ASN325     -0.2716
     33  ND2      195.8960   90.9210  168.1630 N.am  325  ASN325     -0.0877
     34  N        186.1770   90.1400  173.1770 N.3   362  PRO362     -0.2102
     35  CA       186.8410   91.0720  174.0930 C.3   362  PRO362      0.1504
     36  C        188.1040   90.4580  174.6700 C.2   362  PRO362      0.2576
     37  O        188.2710   89.2370  174.7050 O.2   362  PRO362     -0.2718
     38  CB       185.7900   91.3130  175.1820 C.3   362  PRO362      0.0282
     39  CG       184.9460   90.0920  175.1560 C.3   362  PRO362      0.0208
     40  CD       184.8920   89.6620  173.7190 C.3   362  PRO362      0.0893
     41  N        188.9950   91.3230  175.1350 N.am  363  GLY363     -0.1943
     42  CA       190.3260   90.9110  175.5110 C.3   363  GLY363      0.2014
     43  C        191.3440   91.0520  174.4070 C.2   363  GLY363      0.2640
     44  O        192.5240   90.7500  174.6270 O.2   363  GLY363     -0.2714
     45  N        190.9180   91.5150  173.2300 N.am  364  THR364     -0.1936
     46  CA       191.7990   91.6830  172.0830 C.3   364  THR364      0.2028
     47  C        192.8020   92.8140  172.3020 C.2   364  THR364      0.2642
     48  O        193.8680   92.8140  171.6710 O.2   364  THR364     -0.2714
     49  CB       190.9280   91.9360  170.8420 C.3   364  THR364      0.1808
     50  OG1      189.8910   90.9490  170.7910 O.3   364  THR364     -0.2208
     51  CG2      191.7210   91.8190  169.5470 C.3   364  THR364      0.0379
     52  N        192.4910   93.7380  173.2260 N.am  365  ALA365     -0.1963
     53  CA       193.1630   95.0340  173.3930 C.3   365  ALA365      0.1728
     54  C        193.1350   95.8300  172.0920 C.2   365  ALA365      0.2616
     55  O        194.0620   96.5750  171.7690 O.2   365  ALA365     -0.2715
     56  CB       194.5900   94.8960  173.9400 C.3   365  ALA365      0.0334
     57  N        192.0420   95.6740  171.3430 N.am  366  LYS366     -0.1963
     58  CA       191.7720   96.5600  170.2240 C.3   366  LYS366      0.1728
     59  C        191.4290   97.9580  170.7130 C.2   366  LYS366      0.2617
     60  O        191.5950   98.9320  169.9700 O.2   366  LYS366     -0.2715
     61  CB       190.6470   95.9790  169.3720 C.3   366  LYS366      0.0311
     62  CG       189.3480   95.7860  170.1300 C.3   366  LYS366      0.0038
     63  CD       188.2920   95.1130  169.2810 C.3   366  LYS366      0.0206
     64  CE       187.0000   94.9560  170.0620 C.3   366  LYS366      0.1093
     65  NZ       187.1630   94.0160  171.2060 N.3   366  LYS366     -0.1314
     66  N        190.9400   98.0650  171.9520 N.am  367  SER367     -0.1936
     67  CA       190.7930   99.3570  172.6060 C.3   367  SER367      0.2055
     68  C        192.1430  100.0400  172.7580 C.2   367  SER367      0.2642
     69  O        192.2730  101.2410  172.4990 O.2   367  SER367     -0.2714
     70  CB       190.1330   99.1680  173.9710 C.3   367  SER367      0.2130
     71  OG       188.8470   98.5890  173.8420 O.3   367  SER367     -0.2179
     72  N        193.1570   99.2790  173.1740 N.am  368  GLN368     -0.1976
     73  CA       194.5220   99.7830  173.1940 C.3   368  GLN368      0.1601
     74  C        195.0190  100.0850  171.7890 C.2   368  GLN368      0.2287
     75  O        195.7770  101.0430  171.5940 O.2   368  GLN368     -0.2864
     76  CB       195.4320   98.7610  173.8720 C.3   368  GLN368      0.0394
     77  CG       196.8740   99.1900  174.0370 C.3   368  GLN368      0.0908
     78  CD       197.7110   98.1260  174.7110 C.2   368  GLN368      0.2608
     79  OE1      197.2180   97.0470  175.0340 O.2   368  GLN368     -0.2717
     80  NE2      198.9870   98.4200  174.9180 N.am  368  GLN368     -0.0878
     81  N        181.1490   93.9830  167.4760 N.3   468  ASN468     -0.1240
     82  CA       181.1980   93.0460  168.5740 C.3   468  ASN468      0.1653
     83  C        180.2420   91.9060  168.2420 C.2   468  ASN468      0.2266
     84  O        179.0310   92.1440  168.0870 O.2   468  ASN468     -0.2867
     85  CB       180.8030   93.7100  169.8950 C.3   468  ASN468      0.1155
     86  CG       181.8080   94.7490  170.3470 C.2   468  ASN468      0.2627
     87  OD1      183.0160   94.5490  170.2380 O.2   468  ASN468     -0.2716
     88  ND2      181.3100   95.8680  170.8610 N.am  468  ASN468     -0.0877
     89  N        202.1410   84.5620  175.3050 N.3   512  ILE512     -0.1245
     90  CA       201.3160   85.7620  175.3150 C.3   512  ILE512      0.1561
     91  C        201.3030   86.3760  176.7130 C.2   512  ILE512      0.2260
     92  O        201.0480   87.5740  176.8710 O.2   512  ILE512     -0.2867
     93  CB       199.8980   85.4490  174.7850 C.3   512  ILE512      0.0252
     94  CG1      199.1660   86.7320  174.3930 C.3   512  ILE512      0.0019
     95  CG2      199.0550   84.6930  175.8040 C.3   512  ILE512      0.0019
     96  CD1      199.7920   87.4550  173.2410 C.3   512  ILE512      0.0001
     97  N        204.2000   90.1530  178.2590 N.3   516  VAL516     -0.1245
     98  CA       203.5310   91.3750  178.6840 C.3   516  VAL516      0.1561
     99  C        203.8950   91.7210  180.1290 C.2   516  VAL516      0.2260
    100  O        203.8300   92.8870  180.5390 O.2   516  VAL516     -0.2867
    101  CB       202.0180   91.2000  178.4510 C.3   516  VAL516      0.0252
    102  CG1      201.2140   92.4580  178.7540 C.3   516  VAL516      0.0019
    103  CG2      201.7920   90.7720  177.0130 C.3   516  VAL516      0.0019
@<TRIPOS>BOND
     1    29    28    2
     2    28    27    1
     3    27    30    1
     4    27    26    1
     5    30    31    1
     6    32    31    2
     7    31    33   am
     8    81    82    1
     9    84    83    2
    10    83    82    1
    11    82    85    1
    12    63    64    1
    13    63    62    1
    14    61    62    1
    15    61    58    1
    16    51    49    1
    17    10     9    2
    18    17    18    2
    19    17    16    1
    20    85    86    1
    21    60    59    2
    22    25    23   ar
    23    25    24   ar
    24    64    65    1
    25    23    21   ar
    26    58    59    1
    27    58    57    1
    28    87    86    2
    29    86    88   am
    30    24    22   ar
    31    21    20   ar
    32    13    11    1
    33    16    15    1
    34    16    19    1
    35    59    66   am
    36    50    49    1
    37     9    15   am
    38     9     8    1
    39    49    46    1
    40    11     8    1
    41    11    12    1
    42    22    20   ar
    43    20    19    1
    44    57    54   am
    45    75    74    2
    46     8     7    1
    47    48    47    2
    48    14    12    1
    49    55    54    2
    50    74    73    1
    51     7     3   am
    52    66    67    1
    53     1     2    1
    54    46    47    1
    55    46    45    1
    56    54    53    1
    57    47    52   am
    58    69    68    2
    59    67    68    1
    60    67    70    1
    61    68    72   am
    62     3     2    1
    63     3     4    2
    64    72    73    1
    65    34    40    1
    66    34    35    1
    67     2     5    1
    68    73    76    1
    69    52    53    1
    70    45    43   am
    71    96    94    1
    72    53    56    1
    73     5     6    1
    74    40    39    1
    75    71    70    1
    76    76    77    1
    77    77    78    1
    78    35    36    1
    79    35    38    1
    80    94    93    1
    81    43    44    2
    82    43    42    1
    83    36    37    2
    84    36    41   am
    85    78    80   am
    86    78    79    2
    87    93    90    1
    88    93    95    1
    89    41    42    1
    90    39    38    1
    91    89    90    1
    92    90    91    1
    93    91    92    2
    94   103   101    1
    95    97    98    1
    96   101    98    1
    97   101   102    1
    98    98    99    1
    99    99   100    2
