@<TRIPOS>MOLECULE
tmp/6f0oA00.pdb
 94 90 0 0 0
SMALL
GASTEIGER

@<TRIPOS>ATOM
      1  N         10.2030   -7.7230    7.0430 N.3    30  TYR30      -0.1227
      2  CA        10.1150   -6.2630    6.9860 C.3    30  TYR30       0.1736
      3  C          9.2760   -5.7300    8.1290 C.2    30  TYR30       0.2595
      4  O          8.4200   -6.4220    8.6860 O.2    30  TYR30      -0.2718
      5  CB         9.5190   -5.8190    5.6670 C.3    30  TYR30       0.0548
      6  CG        10.2190   -6.4220    4.4750 C.ar   30  TYR30      -0.0200
      7  CD1       11.3820   -5.8590    3.9860 C.ar   30  TYR30      -0.0009
      8  CD2        9.7470   -7.6010    3.8850 C.ar   30  TYR30      -0.0009
      9  CE1       12.0470   -6.4220    2.9100 C.ar   30  TYR30       0.0417
     10  CE2       10.4040   -8.1750    2.8050 C.ar   30  TYR30       0.0417
     11  CZ        11.5580   -7.5850    2.3190 C.ar   30  TYR30       0.1957
     12  OH        12.2320   -8.1580    1.2370 O.3    30  TYR30      -0.2866
     13  N          9.4980   -4.4790    8.4960 N.am   31  TYR31      -0.1962
     14  CA         8.8230   -3.8860    9.6160 C.3    31  TYR31       0.1771
     15  C          8.1350   -2.6450    9.1030 C.2    31  TYR31       0.2620
     16  O          8.7070   -1.9400    8.2810 O.2    31  TYR31      -0.2715
     17  CB         9.7890   -3.5050   10.7310 C.3    31  TYR31       0.0574
     18  CG        10.6980   -4.6560   11.1260 C.ar   31  TYR31      -0.0198
     19  CD1       10.2090   -5.7270   11.8710 C.ar   31  TYR31      -0.0009
     20  CD2       12.0290   -4.6790   10.7210 C.ar   31  TYR31      -0.0009
     21  CE1       11.0170   -6.7980   12.2100 C.ar   31  TYR31       0.0417
     22  CE2       12.8530   -5.7380   11.0670 C.ar   31  TYR31       0.0417
     23  CZ        12.3380   -6.7950   11.8040 C.ar   31  TYR31       0.1957
     24  OH        13.1570   -7.8420   12.1660 O.3    31  TYR31      -0.2866
     25  N          6.9140   -2.4070    9.5630 N.am   32  ASP32      -0.1957
     26  CA         6.1660   -1.2410    9.0790 C.3    32  ASP32       0.1840
     27  C          6.8460    0.0760    9.5290 C.2    32  ASP32       0.2622
     28  O          7.4070    0.1610   10.6380 O.2    32  ASP32      -0.2715
     29  CB         4.7410   -1.2670    9.6720 C.3    32  ASP32       0.1450
     30  CG         3.9300   -0.0920    9.2350 C.2    32  ASP32       0.3671
     31  OD1        3.4990   -0.1210    8.0810 O.co2  32  ASP32      -0.2456
     32  OD2        3.7200    0.8300   10.0550 O.co2  32  ASP32      -0.2456
     33  N          6.6760    1.1260    8.7330 N.am   33  SER33      -0.1950
     34  CA         7.3410    2.4170    9.0300 C.3    33  SER33       0.1924
     35  C          6.7710    3.2400   10.1820 C.2    33  SER33       0.2314
     36  O          7.4400    4.1410   10.6790 O.2    33  SER33      -0.2863
     37  CB         7.3300    3.2600    7.7720 C.3    33  SER33       0.2116
     38  OG         6.0020    3.6420    7.4490 O.3    33  SER33      -0.2180
     39  N          6.0680   -7.8720    8.5340 N.3    40  LYS40      -0.1245
     40  CA         5.5620   -8.4070    7.2690 C.3    40  LYS40       0.1561
     41  C          6.3090   -9.6630    6.8640 C.2    40  LYS40       0.2260
     42  O          7.5380   -9.6210    6.7710 O.2    40  LYS40      -0.2867
     43  CB         5.6890   -7.3900    6.1660 C.3    40  LYS40       0.0271
     44  CG         5.0230   -7.8810    4.8940 C.3    40  LYS40       0.0035
     45  CD         4.7330   -6.7730    3.9130 C.3    40  LYS40       0.0206
     46  CE         5.8950   -6.4650    3.0240 C.3    40  LYS40       0.1093
     47  NZ         5.3960   -5.3480    2.1290 N.3    40  LYS40      -0.1314
     48  N          6.3540  -12.4360    3.6810 N.3    42  ILE42      -0.1245
     49  CA         5.9030  -12.5630    2.2930 C.3    42  ILE42       0.1561
     50  C          6.1410  -13.9960    1.8500 C.2    42  ILE42       0.2260
     51  O          6.7780  -14.7650    2.5600 O.2    42  ILE42      -0.2867
     52  CB         6.6030  -11.5300    1.3790 C.3    42  ILE42       0.0252
     53  CG1        8.1300  -11.7550    1.3460 C.3    42  ILE42       0.0019
     54  CG2        6.2610  -10.1280    1.8980 C.3    42  ILE42       0.0019
     55  CD1        8.8730  -10.8570    0.3680 C.3    42  ILE42       0.0001
     56  N          2.1710  -13.8780   -4.4430 N.3   189  ARG189     -0.1245
     57  CA         2.0010  -12.5090   -4.0440 C.3   189  ARG189      0.1563
     58  C          1.4960  -12.4250   -2.6040 C.2   189  ARG189      0.2260
     59  O          1.3360  -11.3190   -2.0990 O.2   189  ARG189     -0.2867
     60  CB         1.0390  -11.7650   -4.9830 C.3   189  ARG189      0.0307
     61  CG         1.5140  -11.6160   -6.4400 C.3   189  ARG189      0.0489
     62  CD         0.7350  -10.5460   -7.2060 C.3   189  ARG189      0.2205
     63  NE         1.4920   -9.2930   -7.3680 N.pl3 189  ARG189     -0.0865
     64  CZ         1.2940   -8.1330   -6.7130 C.cat 189  ARG189      0.5346
     65  NH1        2.0770   -7.0850   -6.9950 N.pl3 189  ARG189      0.1354
     66  NH2        0.3420   -7.9850   -5.7820 N.pl3 189  ARG189      0.1354
     67  N          1.0470  -12.3040    1.3990 N.3   191  TYR191     -0.1241
     68  CA         1.7660  -11.9250    2.5850 C.3   191  TYR191      0.1605
     69  C          0.7880  -11.8210    3.7810 C.2   191  TYR191      0.2264
     70  O         -0.4100  -11.8840    3.5950 O.2   191  TYR191     -0.2867
     71  CB         2.5130  -10.5980    2.3870 C.3   191  TYR191      0.0534
     72  CG         1.6540   -9.3870    2.1660 C.ar  191  TYR191     -0.0201
     73  CD1        1.2610   -9.0310    0.8910 C.ar  191  TYR191     -0.0009
     74  CD2        1.2120   -8.6060    3.2450 C.ar  191  TYR191     -0.0009
     75  CE1        0.4510   -7.8880    0.6780 C.ar  191  TYR191      0.0417
     76  CE2        0.4380   -7.4740    3.0350 C.ar  191  TYR191      0.0417
     77  CZ         0.0270   -7.1540    1.7590 C.ar  191  TYR191      0.1957
     78  OH        -0.7730   -6.0270    1.6000 O.3   191  TYR191     -0.2866
     79  N          0.7340   -9.6150    7.8310 N.3   193  MET193     -0.1245
     80  CA         1.4070   -8.8710    8.8910 C.3   193  MET193      0.1570
     81  C          1.0410   -9.4780   10.2570 C.2   193  MET193      0.2261
     82  O         -0.0840   -9.9010   10.4570 O.2   193  MET193     -0.2867
     83  CB         1.1110   -7.3770    8.7560 C.3   193  MET193      0.0387
     84  CG         1.6280   -6.8760    7.3930 C.3   193  MET193      0.0595
     85  SD         1.1840   -5.1910    7.3010 S.3   193  MET193     -0.1393
     86  CE         2.6080   -4.4720    8.1400 C.3   193  MET193      0.0692
     87  N         -2.7300   -1.2980    0.2320 N.3   401  ASP401     -0.1239
     88  CA        -2.2940   -2.2980   -0.7460 C.3   401  ASP401      0.1674
     89  C         -3.0280   -3.6250   -0.5320 C.2   401  ASP401      0.2266
     90  O         -3.2950   -4.3400   -1.4900 O.2   401  ASP401     -0.2867
     91  CB        -0.7920   -2.5640   -0.4970 C.3   401  ASP401      0.1410
     92  CG        -0.2430   -3.6830   -1.3540 C.2   401  ASP401      0.3668
     93  OD1        0.0540   -3.4030   -2.5400 O.co2 401  ASP401     -0.2456
     94  OD2       -0.1170   -4.8420   -0.8430 O.co2 401  ASP401     -0.2456
@<TRIPOS>BOND
     1    63    62    1
     2    63    64    2
     3    62    61    1
     4    65    64    1
     5    64    66    1
     6    61    60    1
     7    60    57    1
     8    56    57    1
     9    57    58    1
    10    58    59    2
    11    93    92   ar
    12    90    89    2
    13    92    94   ar
    14    92    91    1
    15    88    89    1
    16    88    91    1
    17    88    87    1
    18    55    53    1
    19    75    73   ar
    20    75    77   ar
    21    73    72   ar
    22    12    11    1
    23    53    52    1
    24    52    54    1
    25    52    49    1
    26    67    68    1
    27    78    77    1
    28    77    76   ar
    29    50    49    1
    30    50    51    2
    31    47    46    1
    32    72    71    1
    33    72    74   ar
    34    49    48    1
    35    11    10   ar
    36    11     9   ar
    37    71    68    1
    38    68    69    1
    39    10     8   ar
    40     9     7   ar
    41    46    45    1
    42    76    74   ar
    43    70    69    2
    44     8     6   ar
    45    45    44    1
    46     7     6   ar
    47     6     5    1
    48    44    43    1
    49     5     2    1
    50    43    40    1
    51    42    41    2
    52    41    40    1
    53     2     1    1
    54     2     3    1
    55    40    39    1
    56    85    84    1
    57    85    86    1
    58    84    83    1
    59    38    37    1
    60    37    34    1
    61    79    80    1
    62    31    30   ar
    63     3    13   am
    64     3     4    2
    65    16    15    2
    66    13    14    1
    67    33    34    1
    68    33    27   am
    69    83    80    1
    70    80    81    1
    71    34    35    1
    72    26    27    1
    73    26    25    1
    74    26    29    1
    75    15    25   am
    76    15    14    1
    77    30    29    1
    78    30    32   ar
    79    27    28    2
    80    14    17    1
    81    35    36    2
    82    81    82    2
    83    20    22   ar
    84    20    18   ar
    85    17    18    1
    86    22    23   ar
    87    18    19   ar
    88    23    24    1
    89    23    21   ar
    90    19    21   ar
