@<TRIPOS>MOLECULE
tmp/6f0wA00.pdb
 156 146 0 0 0
SMALL
GASTEIGER

@<TRIPOS>ATOM
      1  N         -3.4180    4.2970  -25.9610 N.3    72  ARG72      -0.1245
      2  CA        -2.9580    4.7040  -24.6400 C.3    72  ARG72       0.1563
      3  C         -1.8070    3.7810  -24.2430 C.2    72  ARG72       0.2260
      4  O         -2.0320    2.5910  -24.0550 O.2    72  ARG72      -0.2867
      5  CB        -4.1440    4.6030  -23.6760 C.3    72  ARG72       0.0307
      6  CG        -3.8460    4.9710  -22.3320 C.3    72  ARG72       0.0489
      7  CD        -4.9630    4.6940  -21.2910 C.3    72  ARG72       0.2205
      8  NE        -4.3040    5.0350  -20.0620 N.pl3  72  ARG72      -0.0865
      9  CZ        -4.8570    5.2060  -18.8920 C.cat  72  ARG72       0.5346
     10  NH1       -6.1650    5.0940  -18.7330 N.pl3  72  ARG72       0.1354
     11  NH2       -4.1140    5.5900  -17.9020 N.pl3  72  ARG72       0.1354
     12  N          0.5550    3.9370  -21.5720 N.3    74  ASP74      -0.1239
     13  CA         1.1380    3.9730  -20.2380 C.3    74  ASP74       0.1674
     14  C          0.9040    2.6880  -19.4610 C.2    74  ASP74       0.2266
     15  O          0.0330    1.8730  -19.7640 O.2    74  ASP74      -0.2867
     16  CB         0.6360    5.1560  -19.4020 C.3    74  ASP74       0.1410
     17  CG        -0.8760    5.2590  -19.3190 C.2    74  ASP74       0.3668
     18  OD1       -1.5910    4.6270  -20.1410 O.co2  74  ASP74      -0.2456
     19  OD2       -1.3450    5.9680  -18.3870 O.co2  74  ASP74      -0.2456
     20  N         -3.7350    7.5800   -9.4470 N.3   119  MET119     -0.1245
     21  CA        -3.3250    6.7930  -10.6040 C.3   119  MET119      0.1570
     22  C         -1.8760    7.1460  -10.9010 C.2   119  MET119      0.2261
     23  O         -1.5820    8.1850  -11.4980 O.2   119  MET119     -0.2867
     24  CB        -4.1880    7.0390  -11.8250 C.3   119  MET119      0.0387
     25  CG        -3.8890    6.0520  -12.9710 C.3   119  MET119      0.0595
     26  SD        -4.7060    6.4680  -14.5480 S.3   119  MET119     -0.1393
     27  CE        -3.8410    7.9390  -15.0750 C.3   119  MET119      0.0692
     28  N          1.3770    6.7280  -13.0260 N.3   121  ALA121     -0.1245
     29  CA         1.5250    6.3310  -14.4300 C.3   121  ALA121      0.1562
     30  C          2.9430    6.5450  -14.9220 C.2   121  ALA121      0.2260
     31  O          3.5960    7.5440  -14.5810 O.2   121  ALA121     -0.2867
     32  CB         0.5850    7.1000  -15.3290 C.3   121  ALA121      0.0290
     33  N          4.7920    6.3990  -18.8150 N.3   123  TYR123     -0.1241
     34  CA         4.9090    6.1090  -20.2470 C.3   123  TYR123      0.1605
     35  C          6.3510    5.6940  -20.4380 C.2   123  TYR123      0.2264
     36  O          7.2430    6.5540  -20.3030 O.2   123  TYR123     -0.2867
     37  CB         4.5850    7.3390  -21.1110 C.3   123  TYR123      0.0534
     38  CG         3.1370    7.7510  -21.0700 C.ar  123  TYR123     -0.0201
     39  CD1        2.6530    8.5300  -20.0230 C.ar  123  TYR123     -0.0009
     40  CD2        2.2610    7.3260  -22.0210 C.ar  123  TYR123     -0.0009
     41  CE1        1.3210    8.8990  -19.9580 C.ar  123  TYR123      0.0417
     42  CE2        0.9480    7.6470  -21.9800 C.ar  123  TYR123      0.0417
     43  CZ         0.4680    8.4370  -20.9260 C.ar  123  TYR123      0.1957
     44  OH        -0.8850    8.7750  -20.8300 O.3   123  TYR123     -0.2866
     45  N         -0.6390    9.1310  -25.4280 N.3   130  TYR130     -0.1241
     46  CA        -2.0870    8.9570  -25.3110 C.3   130  TYR130      0.1605
     47  C         -2.7210    9.9280  -26.2990 C.2   130  TYR130      0.2264
     48  O         -2.5870   11.1330  -26.1430 O.2   130  TYR130     -0.2867
     49  CB        -2.5390    9.2150  -23.8880 C.3   130  TYR130      0.0534
     50  CG        -3.9160    8.7410  -23.4760 C.ar  130  TYR130     -0.0201
     51  CD1       -4.2280    8.6480  -22.1270 C.ar  130  TYR130     -0.0009
     52  CD2       -4.9000    8.4160  -24.3770 C.ar  130  TYR130     -0.0009
     53  CE1       -5.4780    8.2530  -21.6790 C.ar  130  TYR130      0.0417
     54  CE2       -6.1680    8.0290  -23.9470 C.ar  130  TYR130      0.0417
     55  CZ        -6.4520    7.9160  -22.5880 C.ar  130  TYR130      0.1957
     56  OH        -7.6910    7.5450  -22.1080 O.3   130  TYR130     -0.2866
     57  N         -8.0440   12.9140  -26.3370 N.3   133  HIS133     -0.1241
     58  CA        -9.2000   12.3480  -25.6750 C.3   133  HIS133      0.1621
     59  C         -9.7900   13.3600  -24.7170 C.2   133  HIS133      0.2264
     60  O         -9.2110   14.4020  -24.4010 O.2   133  HIS133     -0.2867
     61  CB        -8.8240   11.0670  -24.9320 C.3   133  HIS133      0.0745
     62  CG        -7.9120   11.3180  -23.7800 C.ar  133  HIS133      0.0817
     63  ND1       -6.5450   11.4080  -23.9220 N.ar  133  HIS133     -0.2268
     64  CD2       -8.1750   11.5190  -22.4710 C.ar  133  HIS133      0.1154
     65  CE1       -6.0080   11.6870  -22.7480 C.ar  133  HIS133      0.1986
     66  NE2       -6.9910   11.7500  -21.8430 N.ar  133  HIS133     -0.2212
     67  N        -11.3850   13.2410  -20.7940 N.3   135  ASP135     -0.1239
     68  CA       -11.3770   12.3680  -19.6340 C.3   135  ASP135      0.1674
     69  C        -12.7790   11.8720  -19.3040 C.2   135  ASP135      0.2266
     70  O        -12.9370   10.7040  -18.9260 O.2   135  ASP135     -0.2867
     71  CB       -10.7250   13.0650  -18.4450 C.3   135  ASP135      0.1410
     72  CG        -9.1840   13.0510  -18.5240 C.2   135  ASP135      0.3668
     73  OD1       -8.5850   12.5010  -19.5200 O.co2 135  ASP135     -0.2456
     74  OD2       -8.7090   13.7540  -17.5480 O.co2 135  ASP135     -0.2456
     75  N         -3.1290   16.4960  -12.3020 N.3   147  LEU147     -0.1245
     76  CA        -1.8990   15.8170  -12.6360 C.3   147  LEU147      0.1561
     77  C         -0.7580   16.4320  -11.8620 C.2   147  LEU147      0.2260
     78  O         -0.6050   17.6570  -11.7800 O.2   147  LEU147     -0.2867
     79  CB        -1.6140   15.9650  -14.1510 C.3   147  LEU147      0.0270
     80  CG        -2.4420   14.9820  -14.9960 C.3   147  LEU147      0.0019
     81  CD1       -3.0380   15.6370  -16.2030 C.3   147  LEU147      0.0001
     82  CD2       -1.5670   13.7420  -15.3670 C.3   147  LEU147      0.0001
     83  N          3.3700   16.1030  -11.9270 N.3   149  TYR149     -0.1241
     84  CA         4.4520   15.5820  -12.7490 C.3   149  TYR149      0.1605
     85  C          5.7440   15.4010  -11.9640 C.2   149  TYR149      0.2264
     86  O          6.0430   16.1350  -11.0300 O.2   149  TYR149     -0.2867
     87  CB         4.6990   16.5160  -13.9420 C.3   149  TYR149      0.0534
     88  CG         3.5140   16.5390  -14.8830 C.ar  149  TYR149     -0.0201
     89  CD1        3.2050   15.4350  -15.6480 C.ar  149  TYR149     -0.0009
     90  CD2        2.6790   17.6520  -14.9950 C.ar  149  TYR149     -0.0009
     91  CE1        2.1060   15.4260  -16.4990 C.ar  149  TYR149      0.0417
     92  CE2        1.5860   17.6550  -15.8290 C.ar  149  TYR149      0.0417
     93  CZ         1.3170   16.5700  -16.6100 C.ar  149  TYR149      0.1957
     94  OH         0.2240   16.5930  -17.4500 O.3   149  TYR149     -0.2866
     95  N          1.9990   17.4840  -22.4760 N.3   162  LEU162     -0.1245
     96  CA         0.5460   17.4450  -22.4780 C.3   162  LEU162      0.1561
     97  C          0.0860   18.6020  -23.3520 C.2   162  LEU162      0.2260
     98  O          0.4180   19.7580  -23.0740 O.2   162  LEU162     -0.2867
     99  CB         0.0510   17.6140  -21.0440 C.3   162  LEU162      0.0270
    100  CG        -1.4450   17.5370  -20.7240 C.3   162  LEU162      0.0019
    101  CD1       -2.2440   18.7360  -21.2170 C.3   162  LEU162      0.0001
    102  CD2       -2.0680   16.2380  -21.2140 C.3   162  LEU162      0.0001
    103  N         -7.4110   16.7170  -24.7510 N.3   192  HIS192     -0.1241
    104  CA        -5.9610   16.7740  -24.5110 C.3   192  HIS192      0.1621
    105  C         -5.3020   15.4800  -24.9640 C.2   192  HIS192      0.2264
    106  O         -5.9500   14.4440  -25.1320 O.2   192  HIS192     -0.2867
    107  CB        -5.6390   17.0840  -23.0400 C.3   192  HIS192      0.0745
    108  CG        -6.2580   16.1030  -22.0810 C.ar  192  HIS192      0.0817
    109  ND1       -7.6120   16.1140  -21.7720 N.ar  192  HIS192     -0.2268
    110  CD2       -5.7370   14.9960  -21.4630 C.ar  192  HIS192      0.1154
    111  CE1       -7.8590   15.0750  -20.9670 C.ar  192  HIS192      0.1986
    112  NE2       -6.7910   14.3450  -20.7890 N.ar  192  HIS192     -0.2212
    113  N         -1.3180   13.2350  -24.6750 N.3   194  VAL194     -0.1245
    114  CA         0.0650   13.0910  -24.2230 C.3   194  VAL194      0.1561
    115  C          0.8740   12.7630  -25.4610 C.2   194  VAL194      0.2260
    116  O          0.6600   11.7200  -26.0930 O.2   194  VAL194     -0.2867
    117  CB         0.2110   11.9780  -23.1790 C.3   194  VAL194      0.0252
    118  CG1        1.6820   11.7940  -22.8450 C.3   194  VAL194      0.0019
    119  CG2       -0.5700   12.3090  -21.9360 C.3   194  VAL194      0.0019
    120  N          8.5200    8.5560  -18.5170 N.3   201  ARG201     -0.1245
    121  CA         7.7740    9.7520  -18.1120 C.3   201  ARG201      0.1563
    122  C          6.7820    9.3920  -17.0160 C.2   201  ARG201      0.2260
    123  O          5.8950    8.5850  -17.2430 O.2   201  ARG201     -0.2867
    124  CB         7.0100   10.2530  -19.3170 C.3   201  ARG201      0.0307
    125  CG         6.1230   11.5160  -19.0760 C.3   201  ARG201      0.0489
    126  CD         5.1720   11.6860  -20.1850 C.3   201  ARG201      0.2205
    127  NE         4.4220   12.9270  -20.2210 N.pl3 201  ARG201     -0.0865
    128  CZ         3.2060   13.1200  -19.7060 C.cat 201  ARG201      0.5346
    129  NH1        2.6620   12.2630  -18.8700 N.pl3 201  ARG201      0.1354
    130  NH2        2.5730   14.2300  -19.9750 N.pl3 201  ARG201      0.1354
    131  N          4.0460   10.4340  -13.7550 N.3   203  ALA203     -0.1245
    132  CA         3.0540   11.4000  -13.2730 C.3   203  ALA203      0.1562
    133  C          2.0820   10.6660  -12.3610 C.2   203  ALA203      0.2260
    134  O          1.9640    9.4440  -12.4130 O.2   203  ALA203     -0.2867
    135  CB         2.2730   12.0510  -14.4140 C.3   203  ALA203      0.0290
    136  N         -2.0970   11.0410  -11.2200 N.3   205  THR205     -0.1218
    137  CA        -3.3830   11.6640  -11.4580 C.3   205  THR205      0.1862
    138  C         -4.3570   11.3960  -10.3230 C.2   205  THR205      0.2287
    139  O         -4.4340   10.2840   -9.7790 O.2   205  THR205     -0.2866
    140  CB        -4.0660   11.1510  -12.7270 C.3   205  THR205      0.1770
    141  OG1       -3.2850   11.4680  -13.8420 O.3   205  THR205     -0.2211
    142  CG2       -5.4560   11.7490  -12.9620 C.3   205  THR205      0.0375
    143  N         -8.5460   12.2030   -9.9380 N.3   207  TRP207     -0.1241
    144  CA        -9.7740   12.7210  -10.4900 C.3   207  TRP207      0.1605
    145  C        -10.7560   12.9540   -9.3490 C.2   207  TRP207      0.2264
    146  O        -11.0470   12.0390   -8.5760 O.2   207  TRP207     -0.2867
    147  CB       -10.4080   11.7870  -11.5000 C.3   207  TRP207      0.0550
    148  CG        -9.8020   11.8000  -12.8620 C.ar  207  TRP207      0.0003
    149  CD1       -9.8810   12.7760  -13.7970 C.ar  207  TRP207      0.0946
    150  CD2       -8.9870   10.7560  -13.4530 C.ar  207  TRP207      0.0152
    151  NE1       -9.2400   12.3780  -14.9480 N.ar  207  TRP207     -0.2442
    152  CE2       -8.6800   11.1500  -14.7570 C.ar  207  TRP207      0.0810
    153  CE3       -8.5030    9.5160  -12.9880 C.ar  207  TRP207      0.0012
    154  CZ2       -7.9090   10.3760  -15.6240 C.ar  207  TRP207      0.0191
    155  CZ3       -7.7200    8.7490  -13.8520 C.ar  207  TRP207      0.0001
    156  CH2       -7.4600    9.1740  -15.1670 C.ar  207  TRP207      0.0015
@<TRIPOS>BOND
     1    57    58    1
     2    47    48    2
     3    47    46    1
     4   116   115    2
     5     1     2    1
     6    58    61    1
     7    58    59    1
     8   115   114    1
     9    45    46    1
    10    46    49    1
    11   106   105    2
    12   105   104    1
    13    61    62    1
    14   103   104    1
    15    59    60    2
    16   113   114    1
    17     2     3    1
    18     2     5    1
    19   104   107    1
    20    52    54   ar
    21    52    50   ar
    22     3     4    2
    23   114   117    1
    24    54    55   ar
    25    63    62   ar
    26    63    65   ar
    27    49    50    1
    28    62    64   ar
    29     5     6    1
    30    50    51   ar
    31    97    98    2
    32    97    96    1
    33   117   118    1
    34   117   119    1
    35   107   108    1
    36    65    66   ar
    37    55    56    1
    38    55    53   ar
    39    96    95    1
    40    96    99    1
    41    64    66   ar
    42     6     7    1
    43    51    53   ar
    44   108   109   ar
    45   108   110   ar
    46    40    42   ar
    47    40    38   ar
    48    42    43   ar
    49   109   111   ar
    50    12    13    1
    51   110   112   ar
    52     7     8    1
    53   101   100    1
    54   102   100    1
    55    37    38    1
    56    37    34    1
    57    38    39   ar
    58    99   100    1
    59   111   112   ar
    60    43    44    1
    61    43    41   ar
    62    67    68    1
    63    35    36    2
    64    35    34    1
    65    34    33    1
    66    13    14    1
    67    13    16    1
    68   127   126    1
    69   127   128    2
    70   126   125    1
    71    18    17   ar
    72     8     9    2
    73    39    41   ar
    74   130   128    1
    75    15    14    2
    76   128   129    1
    77    68    69    1
    78    68    71    1
    79    73    72   ar
    80    16    17    1
    81    17    19   ar
    82   124   125    1
    83   124   121    1
    84    69    70    2
    85     9    10    1
    86     9    11    1
    87    72    71    1
    88    72    74   ar
    89   120   121    1
    90   121   122    1
    91    94    93    1
    92   123   122    2
    93    93    91   ar
    94    93    92   ar
    95    91    89   ar
    96    81    80    1
    97    92    90   ar
    98    89    88   ar
    99   154   156   ar
   100   154   152   ar
   101    82    80    1
   102    32    29    1
   103   156   155   ar
   104    27    26    1
   105    80    79    1
   106    90    88   ar
   107   151   152   ar
   108   151   149   ar
   109    30    31    2
   110    30    29    1
   111    88    87    1
   112   152   150   ar
   113    26    25    1
   114    29    28    1
   115   135   132    1
   116    79    76    1
   117    87    84    1
   118   155   153   ar
   119   141   140    1
   120   149   148   ar
   121   131   132    1
   122   150   153   ar
   123   150   148   ar
   124   132   133    1
   125    25    24    1
   126   142   140    1
   127   148   147    1
   128    84    85    1
   129    84    83    1
   130   140   137    1
   131    76    75    1
   132    76    77    1
   133   134   133    2
   134    85    86    2
   135    77    78    2
   136    24    21    1
   137   147   144    1
   138    23    22    2
   139   137   136    1
   140   137   138    1
   141    22    21    1
   142    21    20    1
   143   144   143    1
   144   144   145    1
   145   138   139    2
   146   145   146    2
