@<TRIPOS>MOLECULE
tmp/6f0xE01.pdb
 156 149 0 0 0
SMALL
GASTEIGER

@<TRIPOS>ATOM
      1  N        115.3650  108.5690  139.3050 N.3   104  LEU104     -0.1245
      2  CA       113.9760  108.4810  138.8900 C.3   104  LEU104      0.1561
      3  C        113.2760  107.2760  139.4990 C.2   104  LEU104      0.2260
      4  O        112.0420  107.2400  139.5430 O.2   104  LEU104     -0.2867
      5  CB       113.9290  108.4490  137.3670 C.3   104  LEU104      0.0270
      6  CG       112.5700  108.4590  136.6950 C.3   104  LEU104      0.0019
      7  CD1      111.8070  109.6740  137.1380 C.3   104  LEU104      0.0001
      8  CD2      112.7760  108.4900  135.2000 C.3   104  LEU104      0.0001
      9  N        112.2500  108.5060  142.7050 N.3   107  SER107     -0.1202
     10  CA       111.3990  109.6380  142.3870 C.3   107  SER107      0.2020
     11  C        109.9530  109.3360  142.7390 C.2   107  SER107      0.2619
     12  O        109.3520  109.9910  143.5960 O.2   107  SER107     -0.2717
     13  CB       111.5170  109.9590  140.9050 C.3   107  SER107      0.2103
     14  OG       110.9620  108.8970  140.1530 O.3   107  SER107     -0.2182
     15  N        109.3830  108.3290  142.0910 N.am  108  LEU108     -0.1965
     16  CA       107.9660  108.0650  142.2270 C.3   108  LEU108      0.1728
     17  C        107.6580  107.4970  143.6060 C.2   108  LEU108      0.2616
     18  O        108.5390  107.0350  144.3330 O.2   108  LEU108     -0.2715
     19  CB       107.5050  107.0910  141.1550 C.3   108  LEU108      0.0311
     20  CG       107.8040  107.5320  139.7290 C.3   108  LEU108      0.0022
     21  CD1      107.2580  106.5100  138.7690 C.3   108  LEU108      0.0001
     22  CD2      107.2410  108.8990  139.4500 C.3   108  LEU108      0.0001
     23  N        106.3800  107.5450  143.9660 N.am  109  VAL109     -0.1963
     24  CA       105.8990  106.9950  145.2260 C.3   109  VAL109      0.1727
     25  C        104.5140  106.4190  144.9900 C.2   109  VAL109      0.2616
     26  O        103.6860  107.0250  144.3060 O.2   109  VAL109     -0.2715
     27  CB       105.8660  108.0590  146.3420 C.3   109  VAL109      0.0290
     28  CG1      105.2510  107.4830  147.5950 C.3   109  VAL109      0.0023
     29  CG2      107.2600  108.5740  146.6480 C.3   109  VAL109      0.0023
     30  N        104.2600  105.2480  145.5660 N.am  110  TYR110     -0.1974
     31  CA       102.9520  104.6140  145.4570 C.3   110  TYR110      0.1639
     32  C        102.6910  103.8230  146.7250 C.2   110  TYR110      0.2290
     33  O        103.4090  102.8610  147.0080 O.2   110  TYR110     -0.2864
     34  CB       102.8880  103.6990  144.2460 C.3   110  TYR110      0.0560
     35  CG       103.0890  104.4170  142.9470 C.ar  110  TYR110     -0.0198
     36  CD1      102.0740  105.1650  142.3840 C.ar  110  TYR110     -0.0009
     37  CD2      104.2970  104.3420  142.2800 C.ar  110  TYR110     -0.0009
     38  CE1      102.2560  105.8220  141.1910 C.ar  110  TYR110      0.0417
     39  CE2      104.4900  104.9900  141.0850 C.ar  110  TYR110      0.0417
     40  CZ       103.4680  105.7310  140.5440 C.ar  110  TYR110      0.1957
     41  OH       103.6600  106.3840  139.3490 O.3   110  TYR110     -0.2866
     42  N         95.1730  108.8370  133.3480 N.3   150  PRO150     -0.2102
     43  CA        96.2990  109.1960  132.4850 C.3   150  PRO150      0.1504
     44  C         97.3340  110.0190  133.2320 C.2   150  PRO150      0.2576
     45  O         97.0630  110.6170  134.2740 O.2   150  PRO150     -0.2718
     46  CB        95.6410  110.0120  131.3700 C.3   150  PRO150      0.0282
     47  CG        94.4220  110.5810  132.0080 C.3   150  PRO150      0.0208
     48  CD        93.9400  109.5460  132.9780 C.3   150  PRO150      0.0893
     49  N         98.5460  110.0250  132.6850 N.am  151  GLY151     -0.1943
     50  CA        99.5930  110.8640  133.2210 C.3   151  GLY151      0.2014
     51  C        100.0720  110.4950  134.6000 C.2   151  GLY151      0.2640
     52  O        100.6910  111.3230  135.2700 O.2   151  GLY151     -0.2714
     53  N         99.8470  109.2620  135.0360 N.am  152  THR152     -0.1936
     54  CA       100.0580  108.8960  136.4340 C.3   152  THR152      0.2028
     55  C        101.4660  108.3620  136.6520 C.2   152  THR152      0.2643
     56  O        101.7060  107.4370  137.4290 O.2   152  THR152     -0.2714
     57  CB        98.9890  107.8930  136.8650 C.3   152  THR152      0.1808
     58  OG1       97.7050  108.4070  136.4900 O.3   152  THR152     -0.2208
     59  CG2       98.9670  107.7090  138.3880 C.3   152  THR152      0.0379
     60  N        102.4260  108.9220  135.9220 N.am  153  GLY153     -0.1939
     61  CA       103.7950  108.4690  136.0410 C.3   153  GLY153      0.2014
     62  C        103.9700  107.0420  135.5970 C.2   153  GLY153      0.2639
     63  O        104.8730  106.3480  136.0750 O.2   153  GLY153     -0.2714
     64  N        103.1160  106.5780  134.6920 N.am  154  LYS154     -0.1963
     65  CA       103.1320  105.1680  134.3380 C.3   154  LYS154      0.1728
     66  C        104.4050  104.8210  133.5760 C.2   154  LYS154      0.2617
     67  O        105.2240  104.0110  134.0330 O.2   154  LYS154     -0.2715
     68  CB       101.8790  104.8590  133.5280 C.3   154  LYS154      0.0311
     69  CG       100.6220  105.1570  134.3230 C.3   154  LYS154      0.0038
     70  CD        99.3720  105.0810  133.4790 C.3   154  LYS154      0.0206
     71  CE        99.3560  106.2090  132.4580 C.3   154  LYS154      0.1093
     72  NZ        99.4020  107.5690  133.0750 N.3   154  LYS154     -0.1314
     73  N        104.5950  105.4550  132.4190 N.am  155  THR155     -0.1937
     74  CA       105.8290  105.2880  131.6650 C.3   155  THR155      0.2028
     75  C        107.0370  105.5680  132.5410 C.2   155  THR155      0.2642
     76  O        108.0620  104.8710  132.4660 O.2   155  THR155     -0.2714
     77  CB       105.8090  106.2270  130.4660 C.3   155  THR155      0.1808
     78  OG1      104.6390  105.9680  129.6800 O.3   155  THR155     -0.2208
     79  CG2      107.0420  106.0250  129.6230 C.3   155  THR155      0.0379
     80  N        106.9280  106.5980  133.3750 N.am  156  SER156     -0.1949
     81  CA       107.9500  106.8850  134.3670 C.3   156  SER156      0.1924
     82  C        108.2730  105.6450  135.1860 C.2   156  SER156      0.2314
     83  O        109.4360  105.2510  135.3160 O.2   156  SER156     -0.2863
     84  CB       107.4750  108.0190  135.2740 C.3   156  SER156      0.2116
     85  OG       107.2300  109.2020  134.5350 O.3   156  SER156     -0.2180
     86  N        103.3950  101.8380  126.1010 N.3   221  ASP221     -0.1225
     87  CA       102.3140  102.6810  126.5730 C.3   221  ASP221      0.1805
     88  C        101.2020  102.7040  125.5290 C.2   221  ASP221      0.2597
     89  O        101.3600  102.2220  124.4040 O.2   221  ASP221     -0.2718
     90  CB       102.8400  104.0910  126.8640 C.3   221  ASP221      0.1424
     91  CG       101.8310  104.9680  127.5880 C.2   221  ASP221      0.3668
     92  OD1      100.6800  104.5230  127.7790 O.co2 221  ASP221     -0.2456
     93  OD2      102.1980  106.0980  127.9840 O.co2 221  ASP221     -0.2456
     94  N        100.0550  103.2540  125.9210 N.am  222  GLN222     -0.1979
     95  CA        98.9420  103.4690  125.0040 C.3   222  GLN222      0.1601
     96  C         98.4460  102.1570  124.4150 C.2   222  GLN222      0.2287
     97  O         98.0600  102.0930  123.2470 O.2   222  GLN222     -0.2864
     98  CB        99.3330  104.4380  123.8880 C.3   222  GLN222      0.0394
     99  CG        99.7940  105.7800  124.3970 C.3   222  GLN222      0.0908
    100  CD        98.7210  106.4910  125.1800 C.2   222  GLN222      0.2608
    101  OE1       98.7960  106.5950  126.4030 O.2   222  GLN222     -0.2717
    102  NE2       97.7150  106.9930  124.4810 N.am  222  GLN222     -0.0878
    103  N         95.2790  103.8110  129.2060 N.3   269  ASN269     -0.1240
    104  CA        94.4870  104.9000  129.7510 C.3   269  ASN269      0.1653
    105  C         93.1000  104.4230  130.1480 C.2   269  ASN269      0.2266
    106  O         92.6950  104.5570  131.3060 O.2   269  ASN269     -0.2867
    107  CB        94.3940  106.0260  128.7290 C.3   269  ASN269      0.1155
    108  CG        95.7240  106.6870  128.4850 C.2   269  ASN269      0.2627
    109  OD1       96.4840  106.9410  129.4180 O.2   269  ASN269     -0.2716
    110  ND2       96.0230  106.9610  127.2240 N.am  269  ASN269     -0.0877
    111  N         97.1060  109.3210  143.7740 N.3   291  PRO291     -0.2116
    112  CA        97.8850  108.9900  144.9670 C.3   291  PRO291      0.1372
    113  C         97.1450  109.4070  146.2260 C.2   291  PRO291      0.2244
    114  O         96.4870  110.4480  146.2610 O.2   291  PRO291     -0.2868
    115  CB        99.1670  109.8080  144.7830 C.3   291  PRO291      0.0268
    116  CG        99.2100  110.1150  143.3180 C.3   291  PRO291      0.0207
    117  CD        97.7920  110.2820  142.9080 C.3   291  PRO291      0.0892
    118  N        101.3240  109.7410  149.5710 N.3   295  ALA295     -0.1245
    119  CA       102.2330  110.0270  148.4680 C.3   295  ALA295      0.1562
    120  C        102.2350  111.5080  148.1330 C.2   295  ALA295      0.2260
    121  O        103.2710  112.0670  147.7610 O.2   295  ALA295     -0.2867
    122  CB       101.8470  109.2020  147.2420 C.3   295  ALA295      0.0290
    123  N        105.5960  113.7090  148.0780 N.3   299  ILE299     -0.1245
    124  CA       106.0480  114.4760  146.9250 C.3   299  ILE299      0.1561
    125  C        106.2670  115.9290  147.3090 C.2   299  ILE299      0.2260
    126  O        107.2310  116.5740  146.8680 O.2   299  ILE299     -0.2867
    127  CB       105.0360  114.3330  145.7780 C.3   299  ILE299      0.0252
    128  CG1      105.0820  112.9050  145.2460 C.3   299  ILE299      0.0019
    129  CG2      105.2990  115.3510  144.6990 C.3   299  ILE299      0.0019
    130  CD1      103.9760  112.5760  144.3030 C.3   299  ILE299      0.0001
    131  N        100.2960  113.2600  139.0470 N.3   354  GLY354     -0.1210
    132  CA       101.7090  113.4900  139.2520 C.3   354  GLY354      0.1956
    133  C        102.2570  114.4680  138.2390 C.2   354  GLY354      0.2611
    134  O        103.1280  115.2830  138.5550 O.2   354  GLY354     -0.2717
    135  N        101.7480  114.3860  137.0100 N.am  355  ARG355     -0.1979
    136  CA       102.0180  115.4120  136.0150 C.3   355  ARG355      0.1597
    137  C        101.7660  116.7920  136.6070 C.2   355  ARG355      0.2287
    138  O        102.6970  117.5740  136.8300 O.2   355  ARG355     -0.2864
    139  CB       101.1300  115.1540  134.8000 C.3   355  ARG355      0.0334
    140  CG       101.4760  115.9040  133.5470 C.3   355  ARG355      0.0492
    141  CD       100.4740  115.5320  132.4630 C.3   355  ARG355      0.2205
    142  NE       100.5260  114.0980  132.1430 N.pl3 355  ARG355     -0.0865
    143  CZ       101.3660  113.5530  131.2650 C.cat 355  ARG355      0.5346
    144  NH1      102.2180  114.3160  130.6110 N.pl3 355  ARG355      0.1354
    145  NH2      101.3520  112.2400  131.0370 N.pl3 355  ARG355      0.1354
    146  N        103.8380  117.3890  140.3780 N.3   358  ARG358     -0.1245
    147  CA       105.1580  117.9770  140.2580 C.3   358  ARG358      0.1563
    148  C        105.2420  118.9990  139.1490 C.2   358  ARG358      0.2260
    149  O        106.3480  119.3830  138.7600 O.2   358  ARG358     -0.2867
    150  CB       106.2170  116.8930  140.0800 C.3   358  ARG358      0.0307
    151  CG       106.4330  116.1050  141.3540 C.3   358  ARG358      0.0489
    152  CD       107.6160  115.1670  141.2670 C.3   358  ARG358      0.2205
    153  NE       107.7450  114.3780  142.4870 N.pl3 358  ARG358     -0.0865
    154  CZ       108.4120  114.7710  143.5660 C.cat 358  ARG358      0.5346
    155  NH1      109.0190  115.9470  143.5830 N.pl3 358  ARG358      0.1354
    156  NH2      108.4720  113.9840  144.6270 N.pl3 358  ARG358      0.1354
@<TRIPOS>BOND
     1    97    96    2
     2    98    99    1
     3    98    95    1
     4    99   100    1
     5    89    88    2
     6    96    95    1
     7   102   100   am
     8    95    94    1
     9   100   101    2
    10    88    94   am
    11    88    87    1
    12    86    87    1
    13    87    90    1
    14    90    91    1
    15   110   108   am
    16    91    92   ar
    17    91    93   ar
    18   108   107    1
    19   108   109    2
    20   107   104    1
    21   103   104    1
    22    79    77    1
    23    78    77    1
    24   104   105    1
    25   105   106    2
    26    77    74    1
    27   144   143    1
    28   145   143    1
    29   143   142    2
    30    46    47    1
    31    46    43    1
    32    74    73    1
    33    74    75    1
    34    47    48    1
    35   142   141    1
    36    73    66   am
    37    71    72    1
    38    71    70    1
    39   141   140    1
    40    76    75    2
    41    43    44    1
    42    43    42    1
    43    75    80   am
    44    49    50    1
    45    49    44   am
    46    48    42    1
    47    50    51    1
    48    44    45    2
    49    80    81    1
    50    70    69    1
    51    68    69    1
    52    68    65    1
    53   140   139    1
    54    66    67    2
    55    66    65    1
    56    65    64    1
    57    81    82    1
    58    81    84    1
    59    85    84    1
    60    51    53   am
    61    51    52    2
    62    64    62   am
    63   139   136    1
    64    53    54    1
    65    82    83    2
    66     8     6    1
    67    62    61    1
    68    62    63    2
    69    60    61    1
    70    60    55   am
    71   136   137    1
    72   136   135    1
    73    54    55    1
    74    54    57    1
    75    58    57    1
    76   137   138    2
    77    55    56    2
    78     6     7    1
    79     6     5    1
    80    57    59    1
    81   135   133   am
    82     5     2    1
    83   133   134    2
    84   133   132    1
    85   149   148    2
    86    21    20    1
    87     2     1    1
    88     2     3    1
    89   131   132    1
    90   148   147    1
    91    41    40    1
    92    22    20    1
    93     3     4    2
    94    20    19    1
    95   150   147    1
    96   150   151    1
    97    14    13    1
    98   147   146    1
    99    40    39   ar
   100    40    38   ar
   101    13    10    1
   102    39    37   ar
   103    19    16    1
   104    38    36   ar
   105   152   151    1
   106   152   153    1
   107    15    16    1
   108    15    11   am
   109    16    17    1
   110    37    35   ar
   111    36    35   ar
   112    10     9    1
   113    10    11    1
   114   153   154    2
   115    11    12    2
   116   117   116    1
   117   117   111    1
   118    35    34    1
   119   116   115    1
   120   154   155    1
   121   154   156    1
   122    17    23   am
   123    17    18    2
   124   111   112    1
   125    23    24    1
   126    34    31    1
   127   130   128    1
   128    26    25    2
   129   129   127    1
   130   115   112    1
   131   112   113    1
   132    25    24    1
   133    25    30   am
   134    24    27    1
   135   128   127    1
   136    31    30    1
   137    31    32    1
   138   127   124    1
   139   113   114    2
   140    27    29    1
   141    27    28    1
   142    32    33    2
   143   126   125    2
   144   124   125    1
   145   124   123    1
   146   122   119    1
   147   121   120    2
   148   120   119    1
   149   119   118    1
