@<TRIPOS>MOLECULE
tmp/6f14A00.pdb
 102 95 0 0 0
SMALL
GASTEIGER

@<TRIPOS>ATOM
      1  N        -27.7800   15.2290    8.0810 N.3    42  LEU42      -0.1231
      2  CA       -28.0240   13.7980    8.2680 C.3    42  LEU42       0.1693
      3  C        -26.8450   12.9160    7.8530 C.2    42  LEU42       0.2592
      4  O        -26.7620   11.7640    8.2990 O.2    42  LEU42      -0.2718
      5  CB       -29.2610   13.3740    7.4520 C.3    42  LEU42       0.0284
      6  CG       -30.6200   13.9690    7.8280 C.3    42  LEU42       0.0019
      7  CD1      -31.6960   13.6560    6.7490 C.3    42  LEU42       0.0001
      8  CD2      -31.0490   13.4430    9.1810 C.3    42  LEU42       0.0001
      9  N        -25.9520   13.4160    7.0070 N.am   43  GLY43      -0.1957
     10  CA       -24.7830   12.6640    6.5930 C.3    43  GLY43       0.1869
     11  C        -23.8700   13.5400    5.7630 C.2    43  GLY43       0.2309
     12  O        -24.2870   14.5690    5.2200 O.2    43  GLY43      -0.2863
     13  N        -25.9510   15.5930    3.1750 N.3    46  VAL46      -0.1245
     14  CA       -27.3970   15.3990    3.0950 C.3    46  VAL46       0.1561
     15  C        -28.0210   16.0820    4.3060 C.2    46  VAL46       0.2260
     16  O        -27.5980   15.8470    5.4400 O.2    46  VAL46      -0.2867
     17  CB       -27.7910   13.9100    3.0520 C.3    46  VAL46       0.0252
     18  CG1      -29.3410   13.7660    3.0700 C.3    46  VAL46       0.0019
     19  CG2      -27.2300   13.2360    1.8130 C.3    46  VAL46       0.0019
     20  N        -35.0720   14.6520    2.6600 N.3    59  ALA59      -0.1245
     21  CA       -33.6160   14.6380    2.7630 C.3    59  ALA59       0.1562
     22  C        -33.0440   15.2590    1.4970 C.2    59  ALA59       0.2260
     23  O        -33.2650   14.7360    0.3960 O.2    59  ALA59      -0.2867
     24  CB       -33.0840   13.2110    2.9370 C.3    59  ALA59       0.0290
     25  N        -34.9460    4.7750   -2.6730 N.3    93  VAL93      -0.1245
     26  CA       -35.4150    6.0630   -2.1810 C.3    93  VAL93       0.1561
     27  C        -35.9430    6.8770   -3.3540 C.2    93  VAL93       0.2260
     28  O        -35.4170    6.8090   -4.4730 O.2    93  VAL93      -0.2867
     29  CB       -34.2950    6.8040   -1.4290 C.3    93  VAL93       0.0252
     30  CG1      -33.2290    7.3180   -2.3930 C.3    93  VAL93       0.0019
     31  CG2      -34.8810    7.9480   -0.6110 C.3    93  VAL93       0.0019
     32  N        -35.0220   14.1560   -1.6800 N.3   109  MET109     -0.1230
     33  CA       -35.5250   12.7920   -1.6320 C.3   109  MET109      0.1702
     34  C        -36.4710   12.6170   -0.4480 C.2   109  MET109      0.2592
     35  O        -36.4480   13.3930    0.5090 O.2   109  MET109     -0.2718
     36  CB       -34.3640   11.7880   -1.5020 C.3   109  MET109      0.0401
     37  CG       -33.3830   11.7890   -2.6950 C.3   109  MET109      0.0596
     38  SD       -31.8540   10.9890   -2.1480 S.3   109  MET109     -0.1393
     39  CE       -31.0440   12.3610   -1.3200 C.3   109  MET109      0.0692
     40  N        -37.3080   11.5850   -0.5240 N.am  110  GLU110     -0.1966
     41  CA       -38.1260   11.2090    0.6240 C.3   110  GLU110      0.1733
     42  C        -37.2330   10.9960    1.8460 C.2   110  GLU110      0.2616
     43  O        -36.1410   10.4270    1.7400 O.2   110  GLU110     -0.2715
     44  CB       -38.9110    9.9390    0.2990 C.3   110  GLU110      0.0429
     45  CG       -39.8680    9.4640    1.3940 C.3   110  GLU110      0.1163
     46  CD       -40.5420    8.1360    1.0340 C.2   110  GLU110      0.3649
     47  OE1      -40.5230    7.1980    1.8670 O.co2 110  GLU110     -0.2457
     48  OE2      -41.0690    8.0230   -0.0950 O.co2 110  GLU110     -0.2457
     49  N        -37.6840   11.4920    3.0030 N.am  111  TYR111     -0.1960
     50  CA       -36.9340   11.3110    4.2400 C.3   111  TYR111      0.1771
     51  C        -37.2380    9.9410    4.8420 C.2   111  TYR111      0.2619
     52  O        -38.4010    9.5880    5.0700 O.2   111  TYR111     -0.2715
     53  CB       -37.2470   12.4280    5.2360 C.3   111  TYR111      0.0574
     54  CG       -36.5940   12.2470    6.6060 C.ar  111  TYR111     -0.0198
     55  CD1      -35.2400   11.9420    6.7210 C.ar  111  TYR111     -0.0009
     56  CD2      -37.3340   12.4100    7.7800 C.ar  111  TYR111     -0.0009
     57  CE1      -34.6370   11.7860    7.9840 C.ar  111  TYR111      0.0417
     58  CE2      -36.7420   12.2550    9.0350 C.ar  111  TYR111      0.0417
     59  CZ       -35.3950   11.9410    9.1310 C.ar  111  TYR111      0.1957
     60  OH       -34.7960   11.7960   10.3780 O.3   111  TYR111     -0.2866
     61  N        -36.1850    9.1670    5.0850 N.am  112  VAL112     -0.1977
     62  CA       -36.3080    7.8180    5.6310 C.3   112  VAL112      0.1596
     63  C        -35.7980    7.8840    7.0670 C.2   112  VAL112      0.2287
     64  O        -34.5800    7.9560    7.2870 O.2   112  VAL112     -0.2864
     65  CB       -35.5260    6.8000    4.7840 C.3   112  VAL112      0.0276
     66  CG1      -35.8220    5.3730    5.2400 C.3   112  VAL112      0.0022
     67  CG2      -35.8400    6.9820    3.2830 C.3   112  VAL112      0.0022
     68  N        -29.4430    4.5970    9.1480 N.3   116  GLU116     -0.1245
     69  CA       -28.6740    3.7090    8.2860 C.3   116  GLU116      0.1567
     70  C        -28.5980    2.3200    8.9100 C.2   116  GLU116      0.2260
     71  O        -28.4300    2.1820   10.1270 O.2   116  GLU116     -0.2867
     72  CB       -27.2530    4.2570    8.0810 C.3   116  GLU116      0.0388
     73  CG       -27.1990    5.6560    7.4380 C.3   116  GLU116      0.1160
     74  CD       -25.8060    6.2700    7.4540 C.2   116  GLU116      0.3649
     75  OE1      -24.8750    5.6500    8.0230 O.co2 116  GLU116     -0.2457
     76  OE2      -25.6380    7.3770    6.8920 O.co2 116  GLU116     -0.2457
     77  N        -31.0150    2.4860    4.1270 N.3   162  LEU162     -0.1245
     78  CA       -31.7800    3.1030    5.2010 C.3   162  LEU162      0.1561
     79  C        -32.9730    2.2220    5.5650 C.2   162  LEU162      0.2260
     80  O        -33.4950    1.4740    4.7350 O.2   162  LEU162     -0.2867
     81  CB       -32.2480    4.5010    4.7870 C.3   162  LEU162      0.0270
     82  CG       -31.1100    5.4720    4.4580 C.3   162  LEU162      0.0019
     83  CD1      -31.5310    6.4230    3.3490 C.3   162  LEU162      0.0001
     84  CD2      -30.6850    6.2550    5.7110 C.3   162  LEU162      0.0001
     85  N        -30.0610    4.2600   -0.9700 N.3   172  THR172     -0.1218
     86  CA       -29.7510    5.6410   -1.2980 C.3   172  THR172      0.1862
     87  C        -28.3550    5.7150   -1.9160 C.2   172  THR172      0.2287
     88  O        -27.5940    4.7450   -1.9080 O.2   172  THR172     -0.2866
     89  CB       -29.8550    6.5380   -0.0550 C.3   172  THR172      0.1770
     90  OG1      -29.7750    7.9180   -0.4470 O.3   172  THR172     -0.2211
     91  CG2      -28.7390    6.2280    0.9350 C.3   172  THR172      0.0375
     92  N        -30.0610    9.0480   13.6640 N.3   315  PHE315     -0.1241
     93  CA       -28.8910    9.4680   12.8960 C.3   315  PHE315      0.1605
     94  C        -27.8410   10.0960   13.8020 C.2   315  PHE315      0.2264
     95  O        -28.1660   10.7290   14.8130 O.2   315  PHE315     -0.2867
     96  CB       -29.2930   10.4670   11.7950 C.3   315  PHE315      0.0534
     97  CG       -30.1080    9.8420   10.6880 C.ar  315  PHE315     -0.0203
     98  CD1      -29.4810    9.2550    9.6020 C.ar  315  PHE315     -0.0042
     99  CD2      -31.5010    9.8220   10.7510 C.ar  315  PHE315     -0.0042
    100  CE1      -30.2240    8.6650    8.5790 C.ar  315  PHE315     -0.0003
    101  CE2      -32.2460    9.2410    9.7320 C.ar  315  PHE315     -0.0003
    102  CZ       -31.6100    8.6650    8.6450 C.ar  315  PHE315     -0.0000
@<TRIPOS>BOND
     1    28    27    2
     2    27    26    1
     3    37    38    1
     4    37    36    1
     5    25    26    1
     6    30    29    1
     7    26    29    1
     8    38    39    1
     9    87    88    2
    10    87    86    1
    11    32    33    1
    12    33    36    1
    13    33    34    1
    14    29    31    1
    15    86    85    1
    16    86    89    1
    17    40    34   am
    18    40    41    1
    19    34    35    2
    20    90    89    1
    21    48    46   ar
    22    89    91    1
    23    44    41    1
    24    44    45    1
    25    23    22    2
    26    41    42    1
    27    46    45    1
    28    46    47   ar
    29    22    21    1
    30    43    42    2
    31    19    17    1
    32    42    49   am
    33    20    21    1
    34    21    24    1
    35    49    50    1
    36    17    18    1
    37    17    14    1
    38    14    13    1
    39    14    15    1
    40    67    65    1
    41    83    82    1
    42    77    78    1
    43    50    51    1
    44    50    53    1
    45    15    16    2
    46    82    81    1
    47    82    84    1
    48    80    79    2
    49    65    66    1
    50    65    62    1
    51    81    78    1
    52    51    52    2
    53    51    61   am
    54    61    62    1
    55    78    79    1
    56    12    11    2
    57    53    54    1
    58    62    63    1
    59    11    10    1
    60    10     9    1
    61    54    55   ar
    62    54    56   ar
    63    55    57   ar
    64     7     6    1
    65    76    74   ar
    66     9     3   am
    67    63    64    2
    68    73    74    1
    69    73    72    1
    70     5     6    1
    71     5     2    1
    72    74    75   ar
    73    56    58   ar
    74     6     8    1
    75     3     2    1
    76     3     4    2
    77    57    59   ar
    78     1     2    1
    79    72    69    1
    80    69    70    1
    81    69    68    1
    82   100   102   ar
    83   100    98   ar
    84   102   101   ar
    85    70    71    2
    86    58    59   ar
    87    59    60    1
    88    98    97   ar
    89   101    99   ar
    90    97    99   ar
    91    97    96    1
    92    96    93    1
    93    93    92    1
    94    93    94    1
    95    94    95    2
