@<TRIPOS>MOLECULE
tmp/6f1jB00.pdb
 137 130 0 0 0
SMALL
GASTEIGER

@<TRIPOS>ATOM
      1  N        -25.6540  -17.0170    7.7940 N.3    28  ARG28      -0.1231
      2  CA       -25.1550  -18.1730    7.0100 C.3    28  ARG28       0.1694
      3  C        -25.1110  -17.8950    5.4990 C.2    28  ARG28       0.2592
      4  O        -25.8020  -17.0040    4.9940 O.2    28  ARG28      -0.2718
      5  CB       -26.0480  -19.4150    7.2390 C.3    28  ARG28       0.0321
      6  CG       -25.9780  -20.0700    8.6160 C.3    28  ARG28       0.0489
      7  CD       -27.2540  -20.8750    8.9020 C.3    28  ARG28       0.2205
      8  NE       -27.1440  -21.8980    9.9540 N.pl3  28  ARG28      -0.0865
      9  CZ       -26.7340  -23.1580    9.7790 C.cat  28  ARG28       0.5346
     10  NH1      -26.6970  -24.0090   10.8070 N.pl3  28  ARG28       0.1354
     11  NH2      -26.3800  -23.5900    8.5620 N.pl3  28  ARG28       0.1354
     12  N        -24.3050  -18.6750    4.7670 N.am   29  ASP29      -0.1974
     13  CA       -24.4630  -18.8190    3.2980 C.3    29  ASP29       0.1709
     14  C        -24.3130  -17.4850    2.5270 C.2    29  ASP29       0.2293
     15  O        -25.1120  -17.1550    1.6220 O.2    29  ASP29      -0.2864
     16  CB       -25.8410  -19.4480    2.9130 C.3    29  ASP29       0.1436
     17  CG       -26.2240  -20.6720    3.7280 C.2    29  ASP29       0.3671
     18  OD1      -25.3810  -21.5930    3.9000 O.co2  29  ASP29      -0.2456
     19  OD2      -27.4220  -20.7120    4.1830 O.co2  29  ASP29      -0.2456
     20  N        -28.3820  -16.0440    4.4820 N.3    44  SER44      -0.1217
     21  CA       -29.4260  -16.6640    5.2900 C.3    44  SER44       0.1889
     22  C        -29.3450  -16.2600    6.7610 C.2    44  SER44       0.2288
     23  O        -28.2990  -15.8070    7.2470 O.2    44  SER44      -0.2866
     24  CB       -29.3460  -18.1990    5.2440 C.3    44  SER44       0.2089
     25  OG       -29.1820  -18.6970    3.9260 O.3    44  SER44      -0.2183
     26  N        -35.3250  -20.8690    9.3070 N.3    52  TYR52      -0.1241
     27  CA       -34.4620  -20.1550    8.3500 C.3    52  TYR52       0.1605
     28  C        -35.1770  -19.0210    7.5900 C.2    52  TYR52       0.2264
     29  O        -36.3320  -19.1870    7.1280 O.2    52  TYR52      -0.2867
     30  CB       -33.8340  -21.1500    7.3330 C.3    52  TYR52       0.0534
     31  CG       -32.8810  -22.1520    7.9630 C.ar   52  TYR52      -0.0201
     32  CD1      -33.3260  -23.3660    8.4930 C.ar   52  TYR52      -0.0009
     33  CD2      -31.5240  -21.8720    8.0640 C.ar   52  TYR52      -0.0009
     34  CE1      -32.4300  -24.2700    9.0870 C.ar   52  TYR52       0.0417
     35  CE2      -30.6240  -22.7690    8.6380 C.ar   52  TYR52       0.0417
     36  CZ       -31.0740  -23.9580    9.1660 C.ar   52  TYR52       0.1957
     37  OH       -30.1470  -24.8410    9.7170 O.3    52  TYR52      -0.2866
     38  N        -33.6310  -17.9990    1.1730 N.3    79  VAL79      -0.1231
     39  CA       -32.5920  -18.7710    1.8480 C.3    79  VAL79       0.1692
     40  C        -31.4840  -19.2360    0.8700 C.2    79  VAL79       0.2591
     41  O        -31.7510  -19.6480   -0.2800 O.2    79  VAL79      -0.2718
     42  CB       -33.2090  -19.9570    2.6320 C.3    79  VAL79       0.0266
     43  CG1      -32.1270  -20.8220    3.3010 C.3    79  VAL79       0.0020
     44  CG2      -34.2320  -19.4550    3.6820 C.3    79  VAL79       0.0020
     45  N        -30.2400  -19.1630    1.3570 N.am   80  ALA80      -0.1980
     46  CA       -29.0270  -19.5470    0.6310 C.3    80  ALA80       0.1597
     47  C        -28.9450  -18.7950   -0.7170 C.2    80  ALA80       0.2287
     48  O        -28.9300  -19.3840   -1.8170 O.2    80  ALA80      -0.2864
     49  CB       -28.8950  -21.0690    0.5000 C.3    80  ALA80       0.0319
     50  N        -33.3810  -20.8410   -2.5660 N.3    97  GLN97      -0.1231
     51  CA       -34.1230  -22.0920   -2.3120 C.3    97  GLN97       0.1698
     52  C        -35.2530  -21.8940   -1.3150 C.2    97  GLN97       0.2592
     53  O        -35.3170  -20.8460   -0.6300 O.2    97  GLN97      -0.2718
     54  CB       -33.1720  -23.1820   -1.7930 C.3    97  GLN97       0.0381
     55  CG       -32.7260  -22.9760   -0.3410 C.3    97  GLN97       0.0905
     56  CD       -31.4270  -23.6740    0.0290 C.2    97  GLN97       0.2608
     57  OE1      -30.5490  -23.8660   -0.8240 O.2    97  GLN97      -0.2717
     58  NE2      -31.2630  -24.0040    1.3160 N.am   97  GLN97      -0.0878
     59  N        -36.1180  -22.9220   -1.2040 N.am   98  TRP98      -0.1976
     60  CA       -37.1720  -23.0060   -0.1540 C.3    98  TRP98       0.1640
     61  C        -38.2920  -21.9530   -0.3040 C.2    98  TRP98       0.2290
     62  O        -39.0750  -21.7410    0.6260 O.2    98  TRP98      -0.2864
     63  CB       -36.5780  -23.0800    1.2700 C.3    98  TRP98       0.0576
     64  CG       -35.6380  -24.2650    1.4920 C.ar   98  TRP98       0.0006
     65  CD1      -35.4680  -25.3760    0.6800 C.ar   98  TRP98       0.0946
     66  CD2      -34.7420  -24.4580    2.6050 C.ar   98  TRP98       0.0152
     67  NE1      -34.5070  -26.2090    1.2160 N.ar   98  TRP98      -0.2442
     68  CE2      -34.0560  -25.6880    2.3980 C.ar   98  TRP98       0.0810
     69  CE3      -34.4340  -23.7010    3.7520 C.ar   98  TRP98       0.0012
     70  CZ2      -33.0760  -26.1620    3.2870 C.ar   98  TRP98       0.0191
     71  CZ3      -33.4900  -24.1950    4.6490 C.ar   98  TRP98       0.0001
     72  CH2      -32.8070  -25.4040    4.3900 C.ar   98  TRP98       0.0015
     73  N        -30.4590  -28.2320   -3.1890 N.3   136  ILE136     -0.1231
     74  CA       -29.9540  -27.2820   -2.1740 C.3   136  ILE136      0.1692
     75  C        -28.7790  -26.4900   -2.7730 C.2   136  ILE136      0.2592
     76  O        -28.0560  -27.0110   -3.6500 O.2   136  ILE136     -0.2718
     77  CB       -29.5730  -28.0290   -0.8510 C.3   136  ILE136      0.0266
     78  CG1      -29.6410  -27.1170    0.3860 C.3   136  ILE136      0.0019
     79  CG2      -28.2480  -28.7840   -0.9610 C.3   136  ILE136      0.0020
     80  CD1      -29.6220  -27.8950    1.7000 C.3   136  ILE136      0.0001
     81  N        -28.5890  -25.2430   -2.2910 N.am  137  ASP137     -0.1974
     82  CA       -27.3480  -24.4790   -2.5560 C.3   137  ASP137      0.1709
     83  C        -27.0430  -24.2240   -4.0310 C.2   137  ASP137      0.2293
     84  O        -25.9620  -24.5870   -4.5440 O.2   137  ASP137     -0.2864
     85  CB       -26.1490  -25.1030   -1.8280 C.3   137  ASP137      0.1436
     86  CG       -26.2610  -24.9780   -0.3090 C.2   137  ASP137      0.3671
     87  OD1      -26.8720  -23.9750    0.1680 O.co2 137  ASP137     -0.2456
     88  OD2      -25.7070  -25.8800    0.3900 O.co2 137  ASP137     -0.2456
     89  N        -26.8920  -32.7640   -0.6930 N.3   154  ASP154     -0.1239
     90  CA       -26.5150  -33.4520    0.5710 C.3   154  ASP154      0.1674
     91  C        -26.3460  -34.9610    0.3340 C.2   154  ASP154      0.2266
     92  O        -26.6970  -35.7830    1.1810 O.2   154  ASP154     -0.2867
     93  CB       -27.5180  -33.1410    1.7210 C.3   154  ASP154      0.1410
     94  CG       -27.2880  -31.8020    2.4110 C.2   154  ASP154      0.3668
     95  OD1      -26.5620  -30.9340    1.8620 O.co2 154  ASP154     -0.2456
     96  OD2      -27.8220  -31.6190    3.5470 O.co2 154  ASP154     -0.2456
     97  N        -22.3420  -30.1080    0.0540 N.3   189  GLU189     -0.1231
     98  CA       -23.2450  -28.9770   -0.2500 C.3   189  GLU189      0.1699
     99  C        -22.4460  -27.6950   -0.5520 C.2   189  GLU189      0.2592
    100  O        -21.2100  -27.7320   -0.7060 O.2   189  GLU189     -0.2718
    101  CB       -24.2740  -28.7970    0.8830 C.3   189  GLU189      0.0402
    102  CG       -23.6830  -28.3330    2.2050 C.3   189  GLU189      0.1161
    103  CD       -24.5900  -28.4990    3.4410 C.2   189  GLU189      0.3649
    104  OE1      -25.7780  -28.9500    3.3400 O.co2 189  GLU189     -0.2457
    105  OE2      -24.1050  -28.1630    4.5530 O.co2 189  GLU189     -0.2457
    106  N        -23.1680  -26.5750   -0.6690 N.am  190  ALA190     -0.1980
    107  CA       -22.5520  -25.2290   -0.7040 C.3   190  ALA190      0.1597
    108  C        -21.5600  -25.0720   -1.8750 C.2   190  ALA190      0.2287
    109  O        -20.5060  -24.4220   -1.7500 O.2   190  ALA190     -0.2864
    110  CB       -21.9590  -24.8460    0.6720 C.3   190  ALA190      0.0319
    111  N        -20.0100  -22.8450    4.1400 N.3   255  SER255     -0.1217
    112  CA       -20.8350  -22.1100    3.1630 C.3   255  SER255      0.1889
    113  C        -20.6790  -20.5770    3.1440 C.2   255  SER255      0.2288
    114  O        -21.1050  -19.8710    4.0850 O.2   255  SER255     -0.2866
    115  CB       -22.3030  -22.4530    3.4140 C.3   255  SER255      0.2089
    116  OG       -23.1700  -21.8850    2.4230 O.3   255  SER255     -0.2183
    117  N        -18.4620  -18.8980    6.4260 N.3   279  GLN279     -0.1245
    118  CA       -19.1200  -19.0210    7.7440 C.3   279  GLN279      0.1566
    119  C        -18.2910  -19.9420    8.6400 C.2   279  GLN279      0.2260
    120  O        -17.8650  -21.0410    8.2360 O.2   279  GLN279     -0.2867
    121  CB       -20.6020  -19.4680    7.6250 C.3   279  GLN279      0.0367
    122  CG       -20.8490  -20.9250    7.2350 C.3   279  GLN279      0.0905
    123  CD       -22.3210  -21.2850    7.0560 C.2   279  GLN279      0.2608
    124  OE1      -23.1850  -20.4330    6.8400 O.2   279  GLN279     -0.2717
    125  NE2      -22.6150  -22.5960    7.1320 N.am  279  GLN279     -0.0878
    126  N        -27.7520  -28.8010   15.0670 N.3   289  TYR289     -0.1241
    127  CA       -27.2120  -28.1390   13.8660 C.3   289  TYR289      0.1605
    128  C        -27.9190  -26.8020   13.5380 C.2   289  TYR289      0.2264
    129  O        -27.2480  -25.8120   13.1930 O.2   289  TYR289     -0.2867
    130  CB       -27.2830  -29.1010   12.6490 C.3   289  TYR289      0.0534
    131  CG       -26.7600  -28.4380   11.4000 C.ar  289  TYR289     -0.0201
    132  CD1      -25.3910  -28.3440   11.1600 C.ar  289  TYR289     -0.0009
    133  CD2      -27.6210  -27.7970   10.5200 C.ar  289  TYR289     -0.0009
    134  CE1      -24.9030  -27.6540   10.0530 C.ar  289  TYR289      0.0417
    135  CE2      -27.1500  -27.1230    9.4010 C.ar  289  TYR289      0.0417
    136  CZ       -25.7790  -27.0440    9.1740 C.ar  289  TYR289      0.1957
    137  OH       -25.2920  -26.3200    8.0850 O.3   289  TYR289     -0.2866
@<TRIPOS>BOND
     1    84    83    2
     2    83    82    1
     3    76    75    2
     4    73    74    1
     5    75    81   am
     6    75    74    1
     7    50    51    1
     8    82    81    1
     9    82    85    1
    10    51    54    1
    11    51    52    1
    12    74    77    1
    13   108   109    2
    14   108   107    1
    15    85    86    1
    16    48    47    2
    17    54    55    1
    18    52    59   am
    19    52    53    2
    20    59    60    1
    21    79    77    1
    22    77    78    1
    23    57    56    2
    24    47    46    1
    25   100    99    2
    26   107   106    1
    27   107   110    1
    28    89    90    1
    29   106    99   am
    30    99    98    1
    31    55    56    1
    32    86    87   ar
    33    86    88   ar
    34    61    60    1
    35    61    62    2
    36    41    40    2
    37    98    97    1
    38    98   101    1
    39    60    63    1
    40    56    58   am
    41    91    90    1
    42    91    92    2
    43    78    80    1
    44    49    46    1
    45    90    93    1
    46    46    45    1
    47    65    67   ar
    48    65    64   ar
    49    40    45   am
    50    40    39    1
    51   101   102    1
    52    38    39    1
    53    67    68   ar
    54    63    64    1
    55    64    66   ar
    56    15    14    2
    57    93    94    1
    58    39    42    1
    59    95    94   ar
    60   102   103    1
    61    68    66   ar
    62    68    70   ar
    63    94    96   ar
    64   116   115    1
    65    14    13    1
    66    66    69   ar
    67    42    43    1
    68    42    44    1
    69    16    13    1
    70    16    17    1
    71   113   112    1
    72   113   114    2
    73   112   115    1
    74   112   111    1
    75    70    72   ar
    76    13    12    1
    77   104   103   ar
    78   103   105   ar
    79    17    18   ar
    80    17    19   ar
    81    69    71   ar
    82    25    24    1
    83    72    71   ar
    84    20    21    1
    85    12     3   am
    86     4     3    2
    87    24    21    1
    88    21    22    1
    89     3     2    1
    90   117   118    1
    91    22    23    2
    92   124   123    2
    93     2     5    1
    94     2     1    1
    95   123   125   am
    96   123   122    1
    97    29    28    2
    98   122   121    1
    99     5     6    1
   100    30    31    1
   101    30    27    1
   102    28    27    1
   103   121   118    1
   104   118   119    1
   105    31    33   ar
   106    31    32   ar
   107    33    35   ar
   108   137   136    1
   109   120   119    2
   110    27    26    1
   111    32    34   ar
   112    11     9    1
   113     6     7    1
   114    35    36   ar
   115     7     8    1
   116    34    36   ar
   117    36    37    1
   118   136   135   ar
   119   136   134   ar
   120   135   133   ar
   121     9     8    2
   122     9    10    1
   123   134   132   ar
   124   133   131   ar
   125   132   131   ar
   126   131   130    1
   127   130   127    1
   128   129   128    2
   129   128   127    1
   130   127   126    1
