@<TRIPOS>MOLECULE
tmp/6f1nA00.pdb
 193 182 0 0 0
SMALL
GASTEIGER

@<TRIPOS>ATOM
      1  N         64.0320   33.5060   33.4390 N.3    34  LEU34      -0.1245
      2  CA        63.4220   32.9740   32.2250 C.3    34  LEU34       0.1561
      3  C         62.1280   33.6990   31.9050 C.2    34  LEU34       0.2260
      4  O         61.8940   34.0240   30.7430 O.2    34  LEU34      -0.2867
      5  CB        63.2060   31.4410   32.3110 C.3    34  LEU34       0.0270
      6  CG        64.4900   30.5970   32.3760 C.3    34  LEU34       0.0019
      7  CD1       64.1690   29.1250   32.4610 C.3    34  LEU34       0.0001
      8  CD2       65.4650   30.9010   31.1830 C.3    34  LEU34       0.0001
      9  N         62.9350   37.0720   30.5520 N.3    37  ASN37      -0.1225
     10  CA        63.4140   36.9480   29.1670 C.3    37  ASN37       0.1785
     11  C         62.2160   36.7380   28.2300 C.2    37  ASN37       0.2597
     12  O         62.1860   37.3100   27.1370 O.2    37  ASN37      -0.2718
     13  CB        64.3860   35.7770   29.0160 C.3    37  ASN37       0.1169
     14  CG        65.8080   36.0520   29.4720 C.2    37  ASN37       0.2627
     15  OD1       66.1650   37.1260   29.9530 O.2    37  ASN37      -0.2716
     16  ND2       66.6660   35.0790   29.3020 N.am   37  ASN37      -0.0877
     17  N         61.2250   35.9440   28.6730 N.am   38  SER38      -0.1952
     18  CA        60.0080   35.6900   27.8940 C.3    38  SER38       0.1924
     19  C         59.2000   36.9940   27.7800 C.2    38  SER38       0.2314
     20  O         58.7330   37.3270   26.6970 O.2    38  SER38      -0.2863
     21  CB        59.1810   34.5780   28.5290 C.3    38  SER38       0.2116
     22  OG        59.7690   33.3210   28.2240 O.3    38  SER38      -0.2180
     23  N         60.4870   40.0590   27.7820 N.3    40  ASP40      -0.1225
     24  CA        61.2330   40.9000   26.8290 C.3    40  ASP40       0.1805
     25  C         60.9390   40.5130   25.3690 C.2    40  ASP40       0.2597
     26  O         60.7550   41.3960   24.5420 O.2    40  ASP40      -0.2718
     27  CB        62.7570   40.8550   27.1000 C.3    40  ASP40       0.1424
     28  CG        63.2420   41.4720   28.4080 C.2    40  ASP40       0.3668
     29  OD1       62.4450   42.1820   29.0720 O.co2  40  ASP40      -0.2456
     30  OD2       64.4140   41.2310   28.7780 O.co2  40  ASP40      -0.2456
     31  N         60.8870   39.1920   25.0660 N.am   41  ALA41      -0.1979
     32  CA        60.5920   38.6170   23.7370 C.3    41  ALA41       0.1597
     33  C         59.1600   38.9910   23.3100 C.2    41  ALA41       0.2287
     34  O         58.9010   39.2240   22.1280 O.2    41  ALA41      -0.2864
     35  CB        60.7390   37.1020   23.7860 C.3    41  ALA41       0.0319
     36  N         59.0710   42.7180   22.4020 N.3    44  LYS44      -0.1245
     37  CA        59.6800   42.8880   21.0710 C.3    44  LYS44       0.1561
     38  C         58.6740   42.6740   19.9470 C.2    44  LYS44       0.2260
     39  O         58.5660   43.5300   19.0660 O.2    44  LYS44      -0.2867
     40  CB        60.9090   41.9810   20.8870 C.3    44  LYS44       0.0271
     41  CG        62.1420   42.4080   21.6880 C.3    44  LYS44       0.0035
     42  CD        63.2560   41.3660   21.5730 C.3    44  LYS44       0.0206
     43  CE        64.4440   41.6630   22.4560 C.3    44  LYS44       0.1093
     44  NZ        65.4030   40.5210   22.4940 N.3    44  LYS44      -0.1314
     45  N         56.6740   30.8730   25.6680 N.3    79  ASP79      -0.1239
     46  CA        56.2090   32.2290   25.3730 C.3    79  ASP79       0.1674
     47  C         55.8620   32.3170   23.8790 C.2    79  ASP79       0.2266
     48  O         56.3590   31.5150   23.0870 O.2    79  ASP79      -0.2867
     49  CB        57.2220   33.3070   25.7940 C.3    79  ASP79       0.1410
     50  CG        58.4960   33.3680   24.9730 C.2    79  ASP79       0.3668
     51  OD1       58.4290   33.8080   23.7950 O.co2  79  ASP79      -0.2456
     52  OD2       59.5650   33.0010   25.5120 O.co2  79  ASP79      -0.2456
     53  N         58.8740   37.1020   20.2380 N.3    82  ILE82      -0.1231
     54  CA        59.4720   37.2770   18.9040 C.3    82  ILE82       0.1692
     55  C         60.1760   35.9900   18.3580 C.2    82  ILE82       0.2593
     56  O         60.2040   35.7540   17.1520 O.2    82  ILE82      -0.2718
     57  CB        60.4020   38.5290   18.8750 C.3    82  ILE82       0.0266
     58  CG1       60.6900   38.9740   17.4140 C.3    82  ILE82       0.0019
     59  CG2       61.6880   38.3470   19.7170 C.3    82  ILE82       0.0020
     60  CD1       61.3820   40.2170   17.2690 C.3    82  ILE82       0.0001
     61  N         60.6990   35.1660   19.2450 N.am   83  GLY83      -0.1942
     62  CA        61.3950   33.9540   18.8300 C.3    83  GLY83       0.2014
     63  C         62.7830   34.2590   18.2920 C.2    83  GLY83       0.2638
     64  O         63.1950   35.4220   18.2250 O.2    83  GLY83      -0.2714
     65  N         63.5200   33.2180   17.9240 N.am   84  MET84      -0.1976
     66  CA        64.8960   33.3750   17.4440 C.3    84  MET84       0.1605
     67  C         65.1190   32.7030   16.1170 C.2    84  MET84       0.2287
     68  O         64.6420   31.5810   15.9020 O.2    84  MET84      -0.2864
     69  CB        65.8940   32.7900   18.4790 C.3    84  MET84       0.0413
     70  CG        66.0760   33.6580   19.6940 C.3    84  MET84       0.0598
     71  SD        67.0260   32.8740   21.0050 S.3    84  MET84      -0.1393
     72  CE        65.6910   31.9280   21.8590 C.3    84  MET84       0.0692
     73  N         70.3430   34.0520   15.5250 N.3    88  ASP88      -0.1239
     74  CA        70.0700   34.5460   16.8910 C.3    88  ASP88       0.1674
     75  C         70.4080   33.4570   17.8790 C.2    88  ASP88       0.2266
     76  O         71.1780   33.6830   18.8090 O.2    88  ASP88      -0.2867
     77  CB        68.5890   34.9490   17.0670 C.3    88  ASP88       0.1410
     78  CG        68.1600   36.2110   16.3360 C.2    88  ASP88       0.3668
     79  OD1       69.0310   37.0880   16.0940 O.co2  88  ASP88      -0.2456
     80  OD2       66.9460   36.3330   16.0160 O.co2  88  ASP88      -0.2456
     81  N         75.0540   33.4240   20.9700 N.3    92  ASN92      -0.1225
     82  CA        74.8000   33.3650   22.4250 C.3    92  ASN92       0.1785
     83  C         73.2840   33.4780   22.8010 C.2    92  ASN92       0.2597
     84  O         72.9260   34.0340   23.8380 O.2    92  ASN92      -0.2718
     85  CB        75.6600   34.4070   23.1590 C.3    92  ASN92       0.1169
     86  CG        77.1410   34.1650   23.0200 C.2    92  ASN92       0.2627
     87  OD1       77.6410   33.0820   23.3490 O.2    92  ASN92      -0.2716
     88  ND2       77.8730   35.1610   22.5160 N.am   92  ASN92      -0.0877
     89  N         72.4230   32.9300   21.9350 N.am   93  LEU93      -0.1966
     90  CA        70.9570   32.9540   22.0200 C.3    93  LEU93       0.1728
     91  C         70.4000   34.4140   21.9700 C.2    93  LEU93       0.2617
     92  O         69.5060   34.7800   22.7330 O.2    93  LEU93      -0.2715
     93  CB        70.4060   32.1250   23.2170 C.3    93  LEU93       0.0311
     94  CG        70.5280   30.6030   23.0980 C.3    93  LEU93       0.0022
     95  CD1       71.9440   30.1410   23.3700 C.3    93  LEU93       0.0001
     96  CD2       69.5960   29.9420   24.0150 C.3    93  LEU93       0.0001
     97  N         70.9370   35.2090   21.0500 N.am   94  GLY94      -0.1940
     98  CA        70.5060   36.5780   20.8130 C.3    94  GLY94       0.2014
     99  C         70.9770   37.5970   21.8300 C.2    94  GLY94       0.2640
    100  O         70.2320   38.5270   22.1550 O.2    94  GLY94      -0.2714
    101  N         72.2380   37.4640   22.3090 N.am   95  THR95      -0.1936
    102  CA        72.8410   38.3950   23.2760 C.3    95  THR95       0.2028
    103  C         74.3170   38.7110   23.0540 C.2    95  THR95       0.2642
    104  O         74.9760   38.1500   22.1680 O.2    95  THR95      -0.2714
    105  CB        72.6500   37.9310   24.7260 C.3    95  THR95       0.1808
    106  OG1       72.9660   36.5510   24.8410 O.3    95  THR95      -0.2208
    107  CG2       71.2900   38.2220   25.2500 C.3    95  THR95       0.0379
    108  N         74.8150   39.6250   23.9120 N.am   96  ILE96      -0.1963
    109  CA        76.1870   40.1160   24.0470 C.3    96  ILE96       0.1727
    110  C         76.7940   39.4400   25.3150 C.2    96  ILE96       0.2616
    111  O         77.4920   40.0820   26.1150 O.2    96  ILE96      -0.2715
    112  CB        76.1960   41.6840   24.1090 C.3    96  ILE96       0.0290
    113  CG1       75.2520   42.2460   25.2110 C.3    96  ILE96       0.0022
    114  CG2       75.8740   42.2950   22.7460 C.3    96  ILE96       0.0023
    115  CD1       75.8540   43.4010   26.0170 C.3    96  ILE96       0.0001
    116  N         76.5060   38.1220   25.4740 N.am   97  ALA97      -0.1977
    117  CA        76.8980   37.2770   26.6100 C.3    97  ALA97       0.1597
    118  C         78.3850   37.3030   26.9550 C.2    97  ALA97       0.2287
    119  O         78.7030   37.2360   28.1370 O.2    97  ALA97      -0.2864
    120  CB        76.4310   35.8450   26.4040 C.3    97  ALA97       0.0319
    121  N         70.8810   38.5980   36.0690 N.3   118  GLY118     -0.1225
    122  CA        70.0230   39.2430   35.0720 C.3   118  GLY118      0.1811
    123  C         70.3970   40.6730   34.7240 C.2   118  GLY118      0.2280
    124  O         70.1380   41.1250   33.6020 O.2   118  GLY118     -0.2866
    125  N         72.6140   40.7040   31.6970 N.3   121  GLY121     -0.1210
    126  CA        72.0090   40.1360   30.4940 C.3   121  GLY121      0.1956
    127  C         72.3020   38.6700   30.1960 C.2   121  GLY121      0.2612
    128  O         72.0950   38.2080   29.0630 O.2   121  GLY121     -0.2717
    129  N         72.7660   37.9120   31.2100 N.am  122  VAL122     -0.1965
    130  CA        73.0980   36.4890   31.0570 C.3   122  VAL122      0.1727
    131  C         72.2720   35.5910   32.0200 C.2   122  VAL122      0.2617
    132  O         72.6990   34.4890   32.3750 O.2   122  VAL122     -0.2715
    133  CB        74.6270   36.2520   31.1690 C.3   122  VAL122      0.0290
    134  CG1       75.3580   36.8060   29.9520 C.3   122  VAL122      0.0023
    135  CG2       75.1940   36.8380   32.4660 C.3   122  VAL122      0.0023
    136  N         71.1070   36.0950   32.4350 N.am  123  GLY123     -0.1940
    137  CA        70.1870   35.4090   33.3330 C.3   123  GLY123      0.2014
    138  C         69.7540   34.0490   32.8170 C.2   123  GLY123      0.2639
    139  O         69.5180   33.1380   33.6170 O.2   123  GLY123     -0.2714
    140  N         69.6950   33.8820   31.4750 N.am  124  PHE124     -0.1959
    141  CA        69.3430   32.6080   30.8310 C.3   124  PHE124      0.1771
    142  C         70.1470   31.4200   31.4350 C.2   124  PHE124      0.2619
    143  O         69.5710   30.3680   31.7160 O.2   124  PHE124     -0.2715
    144  CB        69.5280   32.6590   29.2850 C.3   124  PHE124      0.0574
    145  CG        69.4810   31.2810   28.6360 C.ar  124  PHE124     -0.0200
    146  CD1       68.2640   30.6780   28.3290 C.ar  124  PHE124     -0.0042
    147  CD2       70.6520   30.5540   28.4170 C.ar  124  PHE124     -0.0042
    148  CE1       68.2160   29.3760   27.8070 C.ar  124  PHE124     -0.0003
    149  CE2       70.6050   29.2440   27.9140 C.ar  124  PHE124     -0.0003
    150  CZ        69.3890   28.6630   27.6080 C.ar  124  PHE124     -0.0000
    151  N         71.4600   31.6160   31.6580 N.am  125  TYR125     -0.1974
    152  CA        72.3520   30.5620   32.1360 C.3   125  TYR125      0.1639
    153  C         72.0710   30.1180   33.5750 C.2   125  TYR125      0.2290
    154  O         72.4890   29.0210   33.9380 O.2   125  TYR125     -0.2864
    155  CB        73.8260   30.9320   31.9110 C.3   125  TYR125      0.0560
    156  CG        74.1120   31.1560   30.4440 C.ar  125  TYR125     -0.0198
    157  CD1       74.1950   30.0850   29.5580 C.ar  125  TYR125     -0.0009
    158  CD2       74.2100   32.4450   29.9210 C.ar  125  TYR125     -0.0009
    159  CE1       74.4230   30.2880   28.1960 C.ar  125  TYR125      0.0417
    160  CE2       74.4400   32.6600   28.5620 C.ar  125  TYR125      0.0417
    161  CZ        74.5320   31.5760   27.7010 C.ar  125  TYR125      0.1957
    162  OH        74.7410   31.7720   26.3580 O.3   125  TYR125     -0.2866
    163  N         66.0340   24.3770   23.9270 N.3   136  VAL136     -0.1245
    164  CA        65.3260   25.6040   23.5540 C.3   136  VAL136      0.1561
    165  C         64.7500   25.3840   22.1690 C.2   136  VAL136      0.2260
    166  O         65.5150   25.2150   21.2140 O.2   136  VAL136     -0.2867
    167  CB        66.2260   26.8820   23.6140 C.3   136  VAL136      0.0252
    168  CG1       65.4830   28.1290   23.1240 C.3   136  VAL136      0.0019
    169  CG2       66.8250   27.1030   25.0090 C.3   136  VAL136      0.0019
    170  N         60.8830   31.9910   14.7920 N.3   140  HIS140     -0.1241
    171  CA        60.8450   33.4200   14.4760 C.3   140  HIS140      0.1621
    172  C         60.1200   33.5670   13.1340 C.2   140  HIS140      0.2264
    173  O         60.1990   32.6560   12.2960 O.2   140  HIS140     -0.2867
    174  CB        62.2780   33.9730   14.3810 C.3   140  HIS140      0.0745
    175  CG        62.3800   35.4520   14.1410 C.ar  140  HIS140      0.0817
    176  ND1       62.2810   35.9860   12.8670 N.ar  140  HIS140     -0.2268
    177  CD2       62.6360   36.4550   15.0140 C.ar  140  HIS140      0.1154
    178  CE1       62.4300   37.2920   13.0080 C.ar  140  HIS140      0.1986
    179  NE2       62.6490   37.6240   14.2790 N.ar  140  HIS140     -0.2212
    180  N         59.2040   30.8950   21.8470 N.3   170  THR170     -0.1218
    181  CA        60.2880   30.1170   22.4110 C.3   170  THR170      0.1862
    182  C         59.7490   29.2480   23.5300 C.2   170  THR170      0.2287
    183  O         58.9220   29.6880   24.3330 O.2   170  THR170     -0.2866
    184  CB        61.4120   31.0630   22.8790 C.3   170  THR170      0.1770
    185  OG1       61.8600   31.8320   21.7660 O.3   170  THR170     -0.2211
    186  CG2       62.6060   30.3330   23.4910 C.3   170  THR170      0.0375
    187  N         61.5090   26.9310   26.5210 N.3   172  VAL172     -0.1245
    188  CA        62.7170   26.5830   27.2660 C.3   172  VAL172      0.1561
    189  C         62.3470   25.3670   28.1140 C.2   172  VAL172      0.2260
    190  O         61.5610   25.4890   29.0380 O.2   172  VAL172     -0.2867
    191  CB        63.3210   27.7390   28.1100 C.3   172  VAL172      0.0252
    192  CG1       64.5520   27.2640   28.9050 C.3   172  VAL172      0.0019
    193  CG2       63.6750   28.9400   27.2390 C.3   172  VAL172      0.0019
@<TRIPOS>BOND
     1   173   172    2
     2   176   178   ar
     3   176   175   ar
     4   178   179   ar
     5   172   171    1
     6   175   174    1
     7   175   177   ar
     8   179   177   ar
     9   174   171    1
    10   171   170    1
    11    73    74    1
    12    68    67    2
    13    80    78   ar
    14    79    78   ar
    15    67    66    1
    16    78    77    1
    17    74    77    1
    18    74    75    1
    19    56    55    2
    20    60    58    1
    21    58    57    1
    22    66    65    1
    23    66    69    1
    24    75    76    2
    25    65    63   am
    26    64    63    2
    27    63    62    1
    28    55    54    1
    29    55    61   am
    30    69    70    1
    31    62    61    1
    32    57    54    1
    33    57    59    1
    34    54    53    1
    35    39    38    2
    36    70    71    1
    37    38    37    1
    38    98    97    1
    39    98    99    1
    40    40    37    1
    41    40    41    1
    42    81    82    1
    43    71    72    1
    44    97    91   am
    45    37    36    1
    46   166   165    2
    47    42    41    1
    48    42    43    1
    49   185   184    1
    50    99   100    2
    51    99   101   am
    52   180   181    1
    53    89    90    1
    54    89    83   am
    55    91    90    1
    56    91    92    2
    57    90    93    1
    58    34    33    2
    59   104   103    2
    60   165   164    1
    61   101   102    1
    62   181   184    1
    63   181   182    1
    64    82    83    1
    65    82    85    1
    66    43    44    1
    67    88    86   am
    68   114   112    1
    69    83    84    2
    70   184   186    1
    71    86    85    1
    72    86    87    2
    73   103   102    1
    74   103   108   am
    75    48    47    2
    76    94    93    1
    77    94    95    1
    78    94    96    1
    79   168   167    1
    80   102   105    1
    81    33    32    1
    82   182   183    2
    83   164   167    1
    84   164   163    1
    85   167   169    1
    86    32    35    1
    87    32    31    1
    88    51    50   ar
    89    47    46    1
    90   108   109    1
    91   109   112    1
    92   109   110    1
    93   112   113    1
    94    26    25    2
    95   105   106    1
    96   105   107    1
    97    50    52   ar
    98    50    49    1
    99    31    25   am
   100   113   115    1
   101   110   116   am
   102   110   111    2
   103    25    24    1
   104    46    45    1
   105    46    49    1
   106   116   117    1
   107   162   161    1
   108   120   117    1
   109   187   188    1
   110   117   118    1
   111    20    19    2
   112    24    27    1
   113    24    23    1
   114   118   119    2
   115    27    28    1
   116    12    11    2
   117   193   191    1
   118   188   191    1
   119   188   189    1
   120   150   148   ar
   121   150   149   ar
   122   161   159   ar
   123   161   160   ar
   124    19    18    1
   125   148   146   ar
   126    18    21    1
   127    18    17    1
   128   149   147   ar
   129   191   192    1
   130   189   190    2
   131   159   157   ar
   132    22    21    1
   133    11    17   am
   134    11    10    1
   135   146   145   ar
   136    28    30   ar
   137    28    29   ar
   138   147   145   ar
   139   160   158   ar
   140   145   144    1
   141    13    10    1
   142    13    14    1
   143   128   127    2
   144    10     9    1
   145   144   141    1
   146    16    14   am
   147    14    15    2
   148   157   156   ar
   149   158   156   ar
   150   134   133    1
   151   127   126    1
   152   127   129   am
   153   156   155    1
   154   126   125    1
   155     4     3    2
   156   141   142    1
   157   141   140    1
   158   130   133    1
   159   130   129    1
   160   130   131    1
   161   133   135    1
   162     8     6    1
   163   142   151   am
   164   142   143    2
   165   140   138   am
   166   151   152    1
   167     3     2    1
   168   155   152    1
   169   131   132    2
   170   131   136   am
   171   152   153    1
   172     2     5    1
   173     2     1    1
   174     5     6    1
   175     6     7    1
   176   136   137    1
   177   138   137    1
   178   138   139    2
   179   153   154    2
   180   124   123    2
   181   123   122    1
   182   122   121    1
