@<TRIPOS>MOLECULE
tmp/6f1tD00.pdb
 135 125 0 0 0
SMALL
GASTEIGER

@<TRIPOS>ATOM
      1  N        439.5480  390.2710  418.0230 N.3     9  ASP9       -0.1239
      2  CA       439.3920  391.6620  418.4170 C.3     9  ASP9        0.1674
      3  C        439.4260  392.4540  417.1290 C.2     9  ASP9        0.2266
      4  O        440.4630  392.9390  416.7040 O.2     9  ASP9       -0.2867
      5  CB       440.4800  392.1130  419.3660 C.3     9  ASP9        0.1410
      6  CG       440.1620  393.4270  419.9980 C.2     9  ASP9        0.3668
      7  OD1      439.3900  393.4260  420.9710 O.co2   9  ASP9       -0.2456
      8  OD2      440.6450  394.4640  419.5090 O.co2   9  ASP9       -0.2456
      9  N        439.5860  395.2000  415.5920 N.3    11  GLY11      -0.1210
     10  CA       439.9090  396.5960  415.7990 C.3    11  GLY11       0.1956
     11  C        440.4140  397.2220  414.5130 C.2    11  GLY11       0.2613
     12  O        441.1840  396.6140  413.7820 O.2    11  GLY11      -0.2717
     13  N        439.9830  398.4530  414.2610 N.am   12  SER12      -0.1938
     14  CA       440.3530  399.1790  413.0570 C.3    12  SER12       0.2055
     15  C        441.8290  399.5180  412.9550 C.2    12  SER12       0.2644
     16  O        442.2420  400.0400  411.9240 O.2    12  SER12      -0.2714
     17  CB       439.5400  400.4600  412.9750 C.3    12  SER12       0.2130
     18  OG       439.8440  401.2990  414.0680 O.3    12  SER12      -0.2179
     19  N        442.6280  399.2710  413.9750 N.am   13  GLY13      -0.1939
     20  CA       444.0250  399.5980  413.8610 C.3    13  GLY13       0.2014
     21  C        444.9070  398.3860  413.8300 C.2    13  GLY13       0.2638
     22  O        445.9220  398.3560  413.1370 O.2    13  GLY13      -0.2714
     23  N        444.5160  397.3780  414.5750 N.am   14  VAL14      -0.1977
     24  CA       445.2620  396.1440  414.6340 C.3    14  VAL14       0.1596
     25  C        444.2980  395.0710  415.0840 C.2    14  VAL14       0.2287
     26  O        443.4910  395.2770  415.9900 O.2    14  VAL14      -0.2864
     27  CB       446.4960  396.2780  415.5390 C.3    14  VAL14       0.0276
     28  CG1      446.1400  396.7510  416.9160 C.3    14  VAL14       0.0022
     29  CG2      447.2220  394.9780  415.6210 C.3    14  VAL14       0.0022
     30  N        443.6040  391.5360  416.7420 N.3    16  LYS16      -0.1245
     31  CA       444.1940  390.6620  417.7370 C.3    16  LYS16       0.1561
     32  C        443.3200  389.4330  417.8440 C.2    16  LYS16       0.2260
     33  O        442.1210  389.5530  418.1020 O.2    16  LYS16      -0.2867
     34  CB       444.2730  391.4180  419.0550 C.3    16  LYS16       0.0271
     35  CG       445.0680  392.6860  418.8890 C.3    16  LYS16       0.0035
     36  CD       444.9480  393.6330  420.0290 C.3    16  LYS16       0.0206
     37  CE       443.6500  394.3800  419.9470 C.3    16  LYS16       0.1093
     38  NZ       443.6410  395.3120  418.8060 N.3    16  LYS16      -0.1314
     39  N        433.2350  396.4150  423.3540 N.3   136  GLN136     -0.1245
     40  CA       434.6490  396.5190  423.6550 C.3   136  GLN136      0.1566
     41  C        434.9040  397.2460  424.9510 C.2   136  GLN136      0.2260
     42  O        435.9410  397.8970  425.1100 O.2   136  GLN136     -0.2867
     43  CB       435.3850  397.1670  422.4940 C.3   136  GLN136      0.0367
     44  CG       435.3790  396.2510  421.3250 C.3   136  GLN136      0.0905
     45  CD       436.0400  396.8150  420.1110 C.2   136  GLN136      0.2608
     46  OE1      436.5190  397.9440  420.1140 O.2   136  GLN136     -0.2717
     47  NE2      436.0530  396.0360  419.0440 N.am  136  GLN136     -0.0878
     48  N        440.8440  403.3080  420.7110 N.3   155  GLY155     -0.1210
     49  CA       441.4730  402.4450  419.7450 C.3   155  GLY155      0.1956
     50  C        442.1230  403.2880  418.6810 C.2   155  GLY155      0.2612
     51  O        442.3720  404.4810  418.8560 O.2   155  GLY155     -0.2717
     52  N        442.4000  402.6730  417.5540 N.am  156  ASP156     -0.1959
     53  CA       443.0040  403.5220  416.5570 C.3   156  ASP156      0.1840
     54  C        441.9560  404.3140  415.8140 C.2   156  ASP156      0.2622
     55  O        442.2750  405.3590  415.2520 O.2   156  ASP156     -0.2715
     56  CB       443.8450  402.7120  415.5990 C.3   156  ASP156      0.1450
     57  CG       444.7680  403.5640  414.7770 C.2   156  ASP156      0.3671
     58  OD1      445.7370  404.0920  415.3560 O.co2 156  ASP156     -0.2456
     59  OD2      444.5670  403.6750  413.5540 O.co2 156  ASP156     -0.2456
     60  N        440.7110  403.8630  415.8360 N.am  157  GLY157     -0.1954
     61  CA       439.6850  404.5960  415.1400 C.3   157  GLY157      0.1869
     62  C        438.5320  405.2180  415.8970 C.2   157  GLY157      0.2309
     63  O        438.0520  406.2640  415.4650 O.2   157  GLY157     -0.2863
     64  N        443.4540  407.4600  417.2040 N.3   181  GLY181     -0.1225
     65  CA       444.7770  407.2140  416.6590 C.3   181  GLY181      0.1811
     66  C        445.0110  407.5010  415.1960 C.2   181  GLY181      0.2280
     67  O        446.0840  407.9930  414.8370 O.2   181  GLY181     -0.2866
     68  N        452.9990  406.7960  411.7960 N.3   209  LYS209     -0.1245
     69  CA       452.5650  406.0790  412.9910 C.3   209  LYS209      0.1561
     70  C        453.7470  405.7380  413.8710 C.2   209  LYS209      0.2260
     71  O        453.6600  405.8000  415.0980 O.2   209  LYS209     -0.2867
     72  CB       451.8650  404.7810  412.6440 C.3   209  LYS209      0.0271
     73  CG       450.4150  404.8310  412.3920 C.3   209  LYS209      0.0035
     74  CD       450.0190  403.4510  411.9310 C.3   209  LYS209      0.0206
     75  CE       450.2630  402.4310  413.0240 C.3   209  LYS209      0.1093
     76  NZ       449.8880  401.0550  412.6420 N.3   209  LYS209     -0.1314
     77  N        454.7580  408.7270  415.8020 N.3   212  LYS212     -0.1231
     78  CA       453.7870  408.9530  416.8660 C.3   212  LYS212      0.1693
     79  C        454.0430  408.0670  418.0640 C.2   212  LYS212      0.2591
     80  O        454.1300  408.5420  419.1970 O.2   212  LYS212     -0.2718
     81  CB       452.3970  408.7030  416.3240 C.3   212  LYS212      0.0285
     82  CG       451.3270  408.8350  417.3000 C.3   212  LYS212      0.0035
     83  CD       450.0150  408.8430  416.6040 C.3   212  LYS212      0.0206
     84  CE       449.6300  407.4850  416.1300 C.3   212  LYS212      0.1093
     85  NZ       449.1930  406.6880  417.2720 N.3   212  LYS212     -0.1314
     86  N        454.1910  406.7800  417.8240 N.am  213  GLU213     -0.1979
     87  CA       454.4170  405.8520  418.9110 C.3   213  GLU213      0.1602
     88  C        455.7910  406.0090  419.5320 C.2   213  GLU213      0.2287
     89  O        455.9440  405.7740  420.7280 O.2   213  GLU213     -0.2864
     90  CB       454.2230  404.4420  418.3960 C.3   213  GLU213      0.0415
     91  CG       452.8210  404.2080  417.9250 C.3   213  GLU213      0.1163
     92  CD       452.6200  402.8300  417.3480 C.2   213  GLU213      0.3649
     93  OE1      453.6030  402.0790  417.2610 O.co2 213  GLU213     -0.2457
     94  OE2      451.4850  402.4910  416.9610 O.co2 213  GLU213     -0.2457
     95  N        442.7390  400.5330  424.7880 N.3   296  GLY296     -0.1210
     96  CA       443.0500  401.0980  423.4970 C.3   296  GLY296      0.1956
     97  C        444.4630  401.6150  423.4240 C.2   296  GLY296      0.2612
     98  O        445.0180  402.0760  424.4150 O.2   296  GLY296     -0.2717
     99  N        445.0560  401.5460  422.2410 N.am  297  GLY297     -0.1942
    100  CA       446.4270  401.9600  422.1110 C.3   297  GLY297      0.2014
    101  C        446.6800  403.4350  422.2210 C.2   297  GLY297      0.2639
    102  O        447.8140  403.8250  422.5110 O.2   297  GLY297     -0.2714
    103  N        445.6720  404.2680  422.0120 N.am  298  SER298     -0.1949
    104  CA       445.9180  405.6960  422.1010 C.3   298  SER298      0.1924
    105  C        446.0840  406.1700  423.5240 C.2   298  SER298      0.2314
    106  O        446.4490  407.3230  423.7410 O.2   298  SER298     -0.2863
    107  CB       444.7850  406.4440  421.4540 C.3   298  SER298      0.2116
    108  OG       444.6690  406.0510  420.1130 O.3   298  SER298     -0.2180
    109  N        448.3070  405.2610  425.5730 N.3   300  LEU300     -0.1231
    110  CA       449.6590  404.8850  425.8970 C.3   300  LEU300      0.1693
    111  C        450.6220  406.0360  425.7350 C.2   300  LEU300      0.2592
    112  O        451.8200  405.8360  425.9330 O.2   300  LEU300     -0.2718
    113  CB       450.0870  403.7260  425.0040 C.3   300  LEU300      0.0284
    114  CG       449.3870  402.4570  425.4490 C.3   300  LEU300      0.0019
    115  CD1      449.3910  401.3950  424.4040 C.3   300  LEU300      0.0001
    116  CD2      450.1670  401.9730  426.6120 C.3   300  LEU300      0.0001
    117  N        450.1400  407.2180  425.3620 N.am  301  PHE301     -0.1976
    118  CA       450.9890  408.3870  425.1950 C.3   301  PHE301      0.1639
    119  C        451.6450  408.7590  426.5100 C.2   301  PHE301      0.2290
    120  O        451.1370  408.4620  427.5870 O.2   301  PHE301     -0.2864
    121  CB       450.1700  409.5720  424.7200 C.3   301  PHE301      0.0560
    122  CG       449.7770  409.5200  423.2870 C.ar  301  PHE301     -0.0200
    123  CD1      450.4890  408.8020  422.3790 C.ar  301  PHE301     -0.0042
    124  CD2      448.6690  410.1870  422.8590 C.ar  301  PHE301     -0.0042
    125  CE1      450.1140  408.7650  421.0640 C.ar  301  PHE301     -0.0003
    126  CE2      448.2940  410.1470  421.5580 C.ar  301  PHE301     -0.0003
    127  CZ       449.0130  409.4320  420.6630 C.ar  301  PHE301     -0.0000
    128  N        446.5090  397.4180  425.2700 N.3   331  LEU331     -0.1245
    129  CA       446.2940  396.9940  423.9100 C.3   331  LEU331      0.1561
    130  C        445.5990  395.6680  423.8460 C.2   331  LEU331      0.2260
    131  O        444.8450  395.4110  422.9090 O.2   331  LEU331     -0.2867
    132  CB       447.6090  396.8780  423.1710 C.3   331  LEU331      0.0270
    133  CG       448.0260  398.1790  422.5480 C.3   331  LEU331      0.0019
    134  CD1      449.3670  398.0240  421.9690 C.3   331  LEU331      0.0001
    135  CD2      447.0600  398.4120  421.4440 C.3   331  LEU331      0.0001
@<TRIPOS>BOND
     1    68    69    1
     2    16    15    2
     3    74    73    1
     4    74    75    1
     5    73    72    1
     6    76    75    1
     7    72    69    1
     8    15    14    1
     9    15    19   am
    10    17    14    1
    11    17    18    1
    12    69    70    1
    13    14    13    1
    14    22    21    2
    15    59    57   ar
    16    12    11    2
    17    21    20    1
    18    21    23   am
    19    20    19    1
    20    70    71    2
    21    13    11   am
    22    11    10    1
    23    23    24    1
    24    24    25    1
    25    24    27    1
    26    57    58   ar
    27    57    56    1
    28    67    66    2
    29    25    26    2
    30    61    60    1
    31    61    62    1
    32    66    65    1
    33    55    54    2
    34    63    62    2
    35    27    29    1
    36    27    28    1
    37     9    10    1
    38    56    53    1
    39    77    78    1
    40    54    60   am
    41    54    53    1
    42    84    83    1
    43    84    85    1
    44    81    78    1
    45    81    82    1
    46    53    52    1
    47    83    82    1
    48    65    64    1
    49     4     3    2
    50    30    31    1
    51    78    79    1
    52    94    92   ar
    53     3     2    1
    54    93    92   ar
    55    92    91    1
    56    52    50   am
    57    31    32    1
    58    31    34    1
    59    86    79   am
    60    86    87    1
    61    32    33    2
    62    91    90    1
    63     1     2    1
    64    79    80    2
    65    90    87    1
    66     2     5    1
    67    50    51    2
    68    50    49    1
    69    38    37    1
    70    35    34    1
    71    35    36    1
    72    87    88    1
    73    47    45   am
    74     5     6    1
    75     8     6   ar
    76    88    89    2
    77    49    48    1
    78    37    36    1
    79     6     7   ar
    80    45    46    2
    81    45    44    1
    82   108   107    1
    83   127   125   ar
    84   127   126   ar
    85   125   123   ar
    86    44    43    1
    87   135   133    1
    88   107   104    1
    89   126   124   ar
    90   134   133    1
    91   103   104    1
    92   103   101   am
    93   104   105    1
    94   100   101    1
    95   100    99    1
    96   101   102    2
    97    99    97   am
    98   123   122   ar
    99    43    40    1
   100   133   132    1
   101   124   122   ar
   102   131   130    2
   103   132   129    1
   104   122   121    1
   105    39    40    1
   106    97    96    1
   107    97    98    2
   108    96    95    1
   109   105   106    2
   110    40    41    1
   111   130   129    1
   112   129   128    1
   113   115   114    1
   114   121   118    1
   115    41    42    2
   116   113   114    1
   117   113   110    1
   118   118   117    1
   119   118   119    1
   120   117   111   am
   121   114   116    1
   122   109   110    1
   123   111   110    1
   124   111   112    2
   125   119   120    2
