@<TRIPOS>MOLECULE
tmp/6f1tJ00.pdb
 166 159 0 0 0
SMALL
GASTEIGER

@<TRIPOS>ATOM
      1  N        537.5960  406.4090  286.5570 N.3     9  LEU9       -0.1231
      2  CA       538.6650  407.3110  286.1680 C.3     9  LEU9        0.1693
      3  C        539.9120  407.0360  286.9980 C.2     9  LEU9        0.2593
      4  O        540.0190  406.0300  287.7040 O.2     9  LEU9       -0.2718
      5  CB       538.2100  408.7610  286.2980 C.3     9  LEU9        0.0284
      6  CG       537.1000  409.1520  285.3270 C.3     9  LEU9        0.0019
      7  CD1      536.6560  410.5660  285.5950 C.3     9  LEU9        0.0001
      8  CD2      537.5760  409.0010  283.8950 C.3     9  LEU9        0.0001
      9  N        540.8710  407.9430  286.9100 N.am   10  GLY10      -0.1942
     10  CA       542.1220  407.8300  287.6240 C.3    10  GLY10       0.2014
     11  C        543.1330  408.7380  286.9630 C.2    10  GLY10       0.2639
     12  O        543.0650  408.9450  285.7490 O.2    10  GLY10      -0.2714
     13  N        544.0640  409.2990  287.7360 N.am   11  GLU11      -0.1963
     14  CA       545.0460  410.1890  287.1310 C.3    11  GLU11       0.1733
     15  C        546.0610  409.4220  286.2980 C.2    11  GLU11       0.2616
     16  O        546.6330  409.9790  285.3550 O.2    11  GLU11      -0.2715
     17  CB       545.7540  411.0090  288.2030 C.3    11  GLU11       0.0429
     18  CG       544.8370  411.9470  288.9600 C.3    11  GLU11       0.1163
     19  CD       545.5890  412.8320  289.9250 C.2    11  GLU11       0.3649
     20  OE1      546.8260  412.6850  290.0160 O.co2  11  GLU11      -0.2457
     21  OE2      544.9460  413.6650  290.5980 O.co2  11  GLU11      -0.2457
     22  N        546.2980  408.1530  286.6220 N.am   12  ALA12      -0.1963
     23  CA       547.2530  407.3450  285.8750 C.3    12  ALA12       0.1728
     24  C        546.5810  406.4850  284.8110 C.2    12  ALA12       0.2616
     25  O        546.8730  406.6250  283.6190 O.2    12  ALA12      -0.2715
     26  CB       548.0620  406.4660  286.8340 C.3    12  ALA12       0.0334
     27  N        545.6810  405.5940  285.2190 N.am   13  PHE13      -0.1974
     28  CA       545.0050  404.7050  284.2860 C.3    13  PHE13       0.1639
     29  C        543.5130  404.6770  284.5600 C.2    13  PHE13       0.2290
     30  O        543.0900  404.5140  285.7080 O.2    13  PHE13      -0.2864
     31  CB       545.5600  403.2840  284.3900 C.3    13  PHE13       0.0560
     32  CG       547.0100  403.1830  284.0660 C.ar   13  PHE13      -0.0200
     33  CD1      547.4360  403.1030  282.7530 C.ar   13  PHE13      -0.0042
     34  CD2      547.9560  403.1880  285.0780 C.ar   13  PHE13      -0.0042
     35  CE1      548.7850  403.0180  282.4500 C.ar   13  PHE13      -0.0003
     36  CE2      549.3030  403.1040  284.7850 C.ar   13  PHE13      -0.0003
     37  CZ       549.7180  403.0190  283.4670 C.ar   13  PHE13      -0.0000
     38  N        539.7770  402.9090  283.9870 N.3    15  LYS15      -0.1245
     39  CA       539.2640  401.5580  283.8290 C.3    15  LYS15       0.1561
     40  C        537.8190  401.6280  283.3700 C.2    15  LYS15       0.2260
     41  O        537.0320  402.4160  283.9000 O.2    15  LYS15      -0.2867
     42  CB       539.3600  400.7680  285.1430 C.3    15  LYS15       0.0271
     43  CG       540.7370  400.1800  285.4600 C.3    15  LYS15       0.0035
     44  CD       541.7040  401.2080  286.0430 C.3    15  LYS15       0.0206
     45  CE       541.2760  401.6600  287.4300 C.3    15  LYS15       0.1093
     46  NZ       542.2480  402.6220  288.0210 N.3    15  LYS15      -0.1314
     47  N        543.3710  402.7350  300.0400 N.3   129  ASP129     -0.1239
     48  CA       543.4810  402.9110  298.5990 C.3   129  ASP129      0.1674
     49  C        544.8140  403.5700  298.2770 C.2   129  ASP129      0.2266
     50  O        545.0340  404.7420  298.5990 O.2   129  ASP129     -0.2867
     51  CB       542.3210  403.7290  298.0430 C.3   129  ASP129      0.1410
     52  CG       542.4180  403.9190  296.5440 C.2   129  ASP129      0.3668
     53  OD1      542.2480  402.9310  295.8030 O.co2 129  ASP129     -0.2456
     54  OD2      542.6590  405.0600  296.1040 O.co2 129  ASP129     -0.2456
     55  N        546.2310  404.8570  295.5530 N.3   131  GLY131     -0.1210
     56  CA       546.0280  405.3790  294.2210 C.3   131  GLY131      0.1956
     57  C        547.2830  406.0280  293.6790 C.2   131  GLY131      0.2612
     58  O        548.3720  405.9360  294.2500 O.2   131  GLY131     -0.2717
     59  N        547.1230  406.7050  292.5440 N.am  132  TYR132     -0.1962
     60  CA       548.2870  407.3570  291.9570 C.3   132  TYR132      0.1771
     61  C        548.6640  408.6370  292.6920 C.2   132  TYR132      0.2619
     62  O        549.8040  408.7890  293.1440 O.2   132  TYR132     -0.2715
     63  CB       548.0720  407.6690  290.4740 C.3   132  TYR132      0.0574
     64  CG       549.2040  408.5350  289.9610 C.ar  132  TYR132     -0.0198
     65  CD1      550.4940  408.0260  289.8580 C.ar  132  TYR132     -0.0009
     66  CD2      548.9900  409.8700  289.6090 C.ar  132  TYR132     -0.0009
     67  CE1      551.5370  408.8130  289.4200 C.ar  132  TYR132      0.0417
     68  CE2      550.0300  410.6640  289.1700 C.ar  132  TYR132      0.0417
     69  CZ       551.3000  410.1290  289.0770 C.ar  132  TYR132      0.1957
     70  OH       552.3370  410.9140  288.6350 O.3   132  TYR132     -0.2866
     71  N        547.7280  409.5820  292.7880 N.am  133  ARG133     -0.1977
     72  CA       548.0260  410.8620  293.4200 C.3   133  ARG133      0.1597
     73  C        548.2960  410.7230  294.9120 C.2   133  ARG133      0.2287
     74  O        549.3980  411.0220  295.3850 O.2   133  ARG133     -0.2864
     75  CB       546.8840  411.8470  293.1840 C.3   133  ARG133      0.0334
     76  CG       547.2120  413.2090  293.7300 C.3   133  ARG133      0.0492
     77  CD       546.1850  414.2480  293.3690 C.3   133  ARG133      0.2205
     78  NE       546.5230  415.5260  293.9850 N.pl3 133  ARG133     -0.0865
     79  CZ       547.3570  416.4160  293.4530 C.cat 133  ARG133      0.5346
     80  NH1      547.9380  416.1760  292.2840 N.pl3 133  ARG133      0.1354
     81  NH2      547.6090  417.5510  294.0920 N.pl3 133  ARG133      0.1354
     82  N        551.6980  406.9040  293.7700 N.3   157  GLY157     -0.1225
     83  CA       552.6320  406.5930  292.7040 C.3   157  GLY157      0.1811
     84  C        553.4600  407.7960  292.3020 C.2   157  GLY157      0.2280
     85  O        554.6150  407.6470  291.8860 O.2   157  GLY157     -0.2866
     86  N        557.5160  408.1850  291.6570 N.3   161  HIS161     -0.1241
     87  CA       558.1180  408.6920  290.4300 C.3   161  HIS161      0.1621
     88  C        559.0590  409.8540  290.7220 C.2   161  HIS161      0.2264
     89  O        560.1250  409.9610  290.1070 O.2   161  HIS161     -0.2867
     90  CB       557.0350  409.0980  289.4350 C.3   161  HIS161      0.0745
     91  CG       556.3590  407.9320  288.7970 C.ar  161  HIS161      0.0817
     92  ND1      557.0170  407.0970  287.9250 N.ar  161  HIS161     -0.2268
     93  CD2      555.0920  407.4660  288.8820 C.ar  161  HIS161      0.1154
     94  CE1      556.1910  406.1560  287.5130 C.ar  161  HIS161      0.1986
     95  NE2      555.0150  406.3560  288.0790 N.ar  161  HIS161     -0.2212
     96  N        557.8230  404.3690  285.0230 N.3   193  GLU193     -0.1245
     97  CA       556.8260  403.3550  285.3630 C.3   193  GLU193      0.1567
     98  C        557.3830  401.9630  285.1240 C.2   193  GLU193      0.2260
     99  O        557.1400  401.0370  285.9140 O.2   193  GLU193     -0.2867
    100  CB       555.5580  403.5170  284.5180 C.3   193  GLU193      0.0388
    101  CG       554.6570  404.6830  284.8380 C.3   193  GLU193      0.1160
    102  CD       553.4400  404.7250  283.9460 C.2   193  GLU193      0.3649
    103  OE1      553.3730  403.9190  282.9960 O.co2 193  GLU193     -0.2457
    104  OE2      552.5480  405.5590  284.2000 O.co2 193  GLU193     -0.2457
    105  N        559.6590  401.1230  287.8990 N.3   196  LYS196     -0.1231
    106  CA       558.8610  400.7660  289.0750 C.3   196  LYS196      0.1693
    107  C        558.4020  399.3160  289.0420 C.2   196  LYS196      0.2591
    108  O        558.6790  398.5350  289.9590 O.2   196  LYS196     -0.2718
    109  CB       557.5980  401.6250  289.1640 C.3   196  LYS196      0.0285
    110  CG       557.6110  402.9160  289.9250 C.3   196  LYS196      0.0035
    111  CD       556.2200  403.5260  289.7550 C.3   196  LYS196      0.0206
    112  CE       555.1270  402.6290  290.3470 C.3   196  LYS196      0.1093
    113  NZ       553.7500  403.1780  290.1520 N.3   196  LYS196     -0.1314
    114  N        557.6750  398.9520  287.9870 N.am  197  VAL197     -0.1980
    115  CA       557.1060  397.6110  287.8930 C.3   197  VAL197      0.1595
    116  C        558.1720  396.5540  287.6190 C.2   197  VAL197      0.2287
    117  O        558.3260  395.5970  288.3870 O.2   197  VAL197     -0.2864
    118  CB       556.0020  397.5710  286.8220 C.3   197  VAL197      0.0276
    119  CG1      555.4750  396.1540  286.6670 C.3   197  VAL197      0.0022
    120  CG2      554.8770  398.5210  287.1840 C.3   197  VAL197      0.0022
    121  N        543.9380  399.6830  295.2100 N.3   286  GLY286     -0.1210
    122  CA       544.7960  400.6970  294.6370 C.3   286  GLY286      0.1956
    123  C        545.8020  400.1110  293.6640 C.2   286  GLY286      0.2612
    124  O        546.0320  398.9020  293.5970 O.2   286  GLY286     -0.2717
    125  N        546.4080  401.0160  292.8970 N.am  287  GLY287     -0.1942
    126  CA       547.3790  400.5980  291.9090 C.3   287  GLY287      0.2014
    127  C        548.7700  400.3810  292.4520 C.2   287  GLY287      0.2639
    128  O        549.4850  399.4920  291.9800 O.2   287  GLY287     -0.2714
    129  N        549.1780  401.1790  293.4410 N.am  288  THR288     -0.1950
    130  CA       550.5050  401.0400  294.0350 C.3   288  THR288      0.1897
    131  C        550.6150  399.7410  294.8330 C.2   288  THR288      0.2313
    132  O        551.7220  399.2400  295.0630 O.2   288  THR288     -0.2863
    133  CB       550.7930  402.2790  294.9000 C.3   288  THR288      0.1794
    134  OG1      550.4950  403.4560  294.1410 O.3   288  THR288     -0.2208
    135  CG2      552.2590  402.3710  295.3020 C.3   288  THR288      0.0378
    136  N        550.2590  396.7660  293.9350 N.3   290  MET290     -0.1230
    137  CA       550.6760  395.5820  293.1790 C.3   290  MET290      0.1702
    138  C        552.1870  395.4240  293.1350 C.2   290  MET290      0.2592
    139  O        552.7400  394.9500  292.1390 O.2   290  MET290     -0.2718
    140  CB       550.1250  395.5960  291.7590 C.3   290  MET290      0.0401
    141  CG       548.6580  395.2590  291.6340 C.3   290  MET290      0.0596
    142  SD       548.2660  395.0970  289.8880 S.3   290  MET290     -0.1393
    143  CE       549.2010  393.6270  289.4880 C.3   290  MET290      0.0692
    144  N        552.8410  395.7910  294.1500 N.am  291  LEU291     -0.1966
    145  CA       554.2810  395.6480  294.1590 C.3   291  LEU291      0.1713
    146  C        554.6730  394.3450  294.8450 C.2   291  LEU291      0.2458
    147  O        553.9900  393.9000  295.7720 O.2   291  LEU291     -0.2730
    148  CB       554.9240  396.8370  294.8700 C.3   291  LEU291      0.0310
    149  CG       554.8510  398.1440  294.0890 C.3   291  LEU291      0.0022
    150  CD1      555.3360  399.3020  294.9330 C.3   291  LEU291      0.0001
    151  CD2      555.6890  398.0070  292.8320 C.3   291  LEU291      0.0001
    152  N        555.7530  393.6960  294.4010 N.am  292  PRO292     -0.2727
    153  CA       556.1660  392.4220  295.0180 C.3   292  PRO292      0.1402
    154  C        556.6690  392.6120  296.4430 C.2   292  PRO292      0.2269
    155  O        557.6740  393.2830  296.6840 O.2   292  PRO292     -0.2865
    156  CB       557.2690  391.9160  294.0810 C.3   292  PRO292      0.0296
    157  CG       557.7480  393.1180  293.3650 C.3   292  PRO292      0.0237
    158  CD       556.5770  394.0280  293.2230 C.3   292  PRO292      0.0939
    159  N        544.7150  396.4620  291.6120 N.3   330  ASN330     -0.1240
    160  CA       544.6650  397.6790  290.8150 C.3   330  ASN330      0.1653
    161  C        543.2720  397.9060  290.2410 C.2   330  ASN330      0.2266
    162  O        542.9240  399.0390  289.8940 O.2   330  ASN330     -0.2867
    163  CB       545.6900  397.5680  289.6820 C.3   330  ASN330      0.1155
    164  CG       545.9920  398.8910  288.9940 C.2   330  ASN330      0.2627
    165  OD1      545.4950  399.9510  289.3650 O.2   330  ASN330     -0.2716
    166  ND2      546.8210  398.8200  287.9620 N.am  330  ASN330     -0.0877
@<TRIPOS>BOND
     1    35    33   ar
     2    35    37   ar
     3    33    32   ar
     4   103   102   ar
     5    40    39    1
     6    40    41    2
     7    37    36   ar
     8    25    24    2
     9    39    38    1
    10    39    42    1
    11     8     6    1
    12   102   104   ar
    13   102   101    1
    14    32    31    1
    15    32    34   ar
    16    28    31    1
    17    28    29    1
    18    28    27    1
    19   100   101    1
    20   100    97    1
    21    29    30    2
    22    36    34   ar
    23    24    27   am
    24    24    23    1
    25    96    97    1
    26    98    97    1
    27    98    99    2
    28    42    43    1
    29     6     7    1
    30     6     5    1
    31    16    15    2
    32    43    44    1
    33    12    11    2
    34    23    22    1
    35    23    26    1
    36    44    45    1
    37     2     5    1
    38     2     1    1
    39     2     3    1
    40    15    22   am
    41    15    14    1
    42   119   118    1
    43   118   120    1
    44   118   115    1
    45     9     3   am
    46     9    10    1
    47    11    10    1
    48    11    13   am
    49     3     4    2
    50    14    13    1
    51    14    17    1
    52    45    46    1
    53    94    92   ar
    54    94    95   ar
    55   116   115    1
    56   116   117    2
    57   115   114    1
    58   105   106    1
    59    92    91   ar
    60   166   164   am
    61   114   107   am
    62    95    93   ar
    63    17    18    1
    64    70    69    1
    65    91    93   ar
    66    91    90    1
    67    18    19    1
    68   164   165    2
    69   164   163    1
    70   107   106    1
    71   107   108    2
    72   106   109    1
    73    69    68   ar
    74    69    67   ar
    75   109   110    1
    76    68    66   ar
    77    67    65   ar
    78    90    87    1
    79   143   142    1
    80    66    64   ar
    81   163   160    1
    82   111   110    1
    83   111   112    1
    84    65    64   ar
    85   142   141    1
    86   162   161    2
    87    19    20   ar
    88    19    21   ar
    89    64    63    1
    90    89    88    2
    91   113   112    1
    92   161   160    1
    93    87    88    1
    94    87    86    1
    95    63    60    1
    96   160   159    1
    97   141   140    1
    98   140   137    1
    99    85    84    2
   100   126   127    1
   101   126   125    1
   102    60    59    1
   103    60    61    1
   104   128   127    2
   105   139   138    2
   106    80    79    1
   107    84    83    1
   108   127   129   am
   109    59    57   am
   110    61    71   am
   111    61    62    2
   112    83    82    1
   113    71    72    1
   114   151   149    1
   115   125   123   am
   116   138   137    1
   117   138   144   am
   118   137   136    1
   119    75    72    1
   120    75    76    1
   121   158   157    1
   122   158   152    1
   123   157   156    1
   124    77    76    1
   125    77    78    1
   126    72    73    1
   127   129   130    1
   128    79    78    2
   129    79    81    1
   130   124   123    2
   131   123   122    1
   132    57    56    1
   133    57    58    2
   134   130   131    1
   135   130   133    1
   136   156   153    1
   137   149   148    1
   138   149   150    1
   139   134   133    1
   140   144   145    1
   141   145   146    1
   142   145   148    1
   143    56    55    1
   144   152   146   am
   145   152   153    1
   146   122   121    1
   147   131   132    2
   148   146   147    2
   149   133   135    1
   150    73    74    2
   151   153   154    1
   152    53    52   ar
   153    54    52   ar
   154   154   155    2
   155    52    51    1
   156    51    48    1
   157    49    48    1
   158    49    50    2
   159    48    47    1
