@<TRIPOS>MOLECULE
tmp/6f1wB01.pdb
 186 173 0 0 0
SMALL
GASTEIGER

@<TRIPOS>ATOM
      1  N        -23.5940  -34.1460  -13.7860 N.3    15  ILE15      -0.1231
      2  CA       -22.3550  -34.9150  -13.7810 C.3    15  ILE15       0.1692
      3  C        -22.5990  -36.3020  -13.2010 C.2    15  ILE15       0.2592
      4  O        -21.6500  -37.0470  -12.9370 O.2    15  ILE15      -0.2718
      5  CB       -21.2490  -34.1800  -13.0020 C.3    15  ILE15       0.0266
      6  CG1      -21.6950  -33.9150  -11.5610 C.3    15  ILE15       0.0019
      7  CG2      -20.8880  -32.8770  -13.6980 C.3    15  ILE15       0.0020
      8  CD1      -20.6400  -33.2490  -10.7090 C.3    15  ILE15       0.0001
      9  N        -23.8620  -36.6550  -12.9860 N.am   16  GLY16      -0.1957
     10  CA       -24.2010  -37.9720  -12.4770 C.3    16  GLY16       0.1869
     11  C        -25.5580  -38.0150  -11.8040 C.2    16  GLY16       0.2309
     12  O        -26.3800  -37.1190  -11.9920 O.2    16  GLY16      -0.2863
     13  N        -27.0330  -35.3560   -9.7730 N.3    18  ILE18      -0.1245
     14  CA       -25.8630  -34.6540   -9.2580 C.3    18  ILE18       0.1561
     15  C        -25.4410  -33.6160  -10.2860 C.2    18  ILE18       0.2260
     16  O        -25.2630  -33.9380  -11.4680 O.2    18  ILE18      -0.2867
     17  CB       -24.7070  -35.6210   -8.9560 C.3    18  ILE18       0.0252
     18  CG1      -25.1900  -36.7920   -8.0890 C.3    18  ILE18       0.0019
     19  CG2      -23.5660  -34.8740   -8.2840 C.3    18  ILE18       0.0019
     20  CD1      -25.9220  -36.3880   -6.8290 C.3    18  ILE18       0.0001
     21  N        -22.8050  -30.2190  -11.2100 N.3    20  LEU20      -0.1245
     22  CA       -21.7210  -29.3000  -10.9100 C.3    20  LEU20       0.1561
     23  C        -22.3180  -27.9380  -10.5860 C.2    20  LEU20       0.2260
     24  O        -23.3050  -27.5180  -11.1930 O.2    20  LEU20      -0.2867
     25  CB       -20.7600  -29.2020  -12.0950 C.3    20  LEU20       0.0270
     26  CG       -19.4680  -28.4080  -11.8880 C.3    20  LEU20       0.0019
     27  CD1      -18.5880  -29.0670  -10.8380 C.3    20  LEU20       0.0001
     28  CD2      -18.7140  -28.2740  -13.2020 C.3    20  LEU20       0.0001
     29  N        -16.0220  -24.3840   -7.0380 N.3    29  GLU29      -0.1245
     30  CA       -17.0590  -25.2590   -7.5500 C.3    29  GLU29       0.1567
     31  C        -17.4830  -26.2450   -6.4720 C.2    29  GLU29       0.2260
     32  O        -16.7280  -26.5530   -5.5440 O.2    29  GLU29      -0.2867
     33  CB       -16.5770  -25.9960   -8.7980 C.3    29  GLU29       0.0388
     34  CG       -16.3500  -25.0600   -9.9730 C.3    29  GLU29       0.1160
     35  CD       -15.8930  -25.7770  -11.2190 C.2    29  GLU29       0.3649
     36  OE1      -15.0940  -26.7280  -11.1030 O.co2  29  GLU29      -0.2457
     37  OE2      -16.3360  -25.3810  -12.3160 O.co2  29  GLU29      -0.2457
     38  N        -20.5170  -29.7380   -5.7090 N.3    31  ALA31      -0.1245
     39  CA       -21.4150  -30.7510   -6.2420 C.3    31  ALA31       0.1562
     40  C        -22.7650  -30.5990   -5.5590 C.2    31  ALA31       0.2260
     41  O        -22.8310  -30.4580   -4.3330 O.2    31  ALA31      -0.2867
     42  CB       -20.8600  -32.1600   -6.0160 C.3    31  ALA31       0.0290
     43  N        -26.6840  -32.1090   -5.1140 N.3    33  LYS33      -0.1245
     44  CA       -27.5830  -33.2490   -5.2270 C.3    33  LYS33       0.1561
     45  C        -29.0180  -32.7880   -5.0160 C.2    33  LYS33       0.2260
     46  O        -29.3260  -32.1550   -4.0000 O.2    33  LYS33      -0.2867
     47  CB       -27.2270  -34.3240   -4.1980 C.3    33  LYS33       0.0271
     48  CG       -28.1690  -35.5240   -4.1910 C.3    33  LYS33       0.0035
     49  CD       -27.7010  -36.5920   -3.2130 C.3    33  LYS33       0.0206
     50  CE       -28.5590  -37.8440   -3.3030 C.3    33  LYS33       0.1093
     51  NZ       -28.1160  -38.9030   -2.3530 N.3    33  LYS33      -0.1314
     52  N        -29.9100  -38.3290    5.6550 N.3    41  GLU41      -0.1245
     53  CA       -28.5360  -38.5630    5.2290 C.3    41  GLU41       0.1567
     54  C        -27.6410  -37.3850    5.5940 C.2    41  GLU41       0.2260
     55  O        -26.4800  -37.5720    5.9770 O.2    41  GLU41      -0.2867
     56  CB       -28.4950  -38.8290    3.7250 C.3    41  GLU41       0.0388
     57  CG       -27.1290  -39.2370    3.2140 C.3    41  GLU41       0.1160
     58  CD       -27.1210  -39.5170    1.7240 C.2    41  GLU41       0.3649
     59  OE1      -26.1060  -40.0360    1.2240 O.co2  41  GLU41      -0.2457
     60  OE2      -28.1280  -39.2180    1.0540 O.co2  41  GLU41      -0.2457
     61  N        -23.8630  -37.4810    7.4930 N.3    45  TYR45      -0.1241
     62  CA       -22.6760  -36.7620    7.0340 C.3    45  TYR45       0.1605
     63  C        -22.1410  -35.8390    8.1200 C.2    45  TYR45       0.2264
     64  O        -20.9430  -35.8320    8.4220 O.2    45  TYR45      -0.2867
     65  CB       -23.0020  -35.9440    5.7820 C.3    45  TYR45       0.0534
     66  CG       -22.8720  -36.6760    4.4650 C.ar   45  TYR45      -0.0201
     67  CD1      -21.6270  -37.0240    3.9610 C.ar   45  TYR45      -0.0009
     68  CD2      -23.9920  -36.9890    3.7120 C.ar   45  TYR45      -0.0009
     69  CE1      -21.5040  -37.6760    2.7510 C.ar   45  TYR45       0.0417
     70  CE2      -23.8790  -37.6430    2.4990 C.ar   45  TYR45       0.0417
     71  CZ       -22.6300  -37.9830    2.0230 C.ar   45  TYR45       0.1957
     72  OH       -22.5060  -38.6330    0.8150 O.3    45  TYR45      -0.2866
     73  N        -28.7720  -30.8500   -1.2420 N.3    69  MET69      -0.1245
     74  CA       -27.5510  -30.9010   -0.4570 C.3    69  MET69       0.1570
     75  C        -26.3870  -30.4600   -1.3310 C.2    69  MET69       0.2261
     76  O        -26.2810  -30.8690   -2.4920 O.2    69  MET69      -0.2867
     77  CB       -27.2930  -32.3100    0.0880 C.3    69  MET69       0.0387
     78  CG       -26.2150  -32.3460    1.1500 C.3    69  MET69       0.0595
     79  SD       -26.2900  -33.8120    2.1970 S.3    69  MET69      -0.1393
     80  CE       -25.8300  -35.0820    1.0390 C.3    69  MET69       0.0692
     81  N        -22.2080  -30.2510   -1.5240 N.3    71  MET71      -0.1230
     82  CA       -21.0030  -30.8790   -1.0060 C.3    71  MET71       0.1702
     83  C        -19.7770  -30.2890   -1.6920 C.2    71  MET71       0.2592
     84  O        -19.8500  -29.8280   -2.8350 O.2    71  MET71      -0.2718
     85  CB       -21.0550  -32.4020   -1.2350 C.3    71  MET71       0.0401
     86  CG       -19.8060  -33.1800   -0.8410 C.3    71  MET71       0.0596
     87  SD       -19.9450  -34.9310   -1.2800 S.3    71  MET71      -0.1393
     88  CE       -21.1680  -35.4960   -0.0980 C.3    71  MET71       0.0692
     89  N        -18.6440  -30.3080   -0.9900 N.am   72  GLU72      -0.1966
     90  CA       -17.3860  -29.9580   -1.6360 C.3    72  GLU72       0.1733
     91  C        -17.1960  -30.8380   -2.8630 C.2    72  GLU72       0.2616
     92  O        -17.6140  -31.9980   -2.8880 O.2    72  GLU72      -0.2715
     93  CB       -16.2100  -30.1330   -0.6680 C.3    72  GLU72       0.0429
     94  CG       -15.9690  -31.5730   -0.2330 C.3    72  GLU72       0.1163
     95  CD       -14.7460  -31.7260    0.6520 C.2    72  GLU72       0.3649
     96  OE1      -13.6590  -31.2530    0.2640 O.co2  72  GLU72      -0.2457
     97  OE2      -14.8730  -32.3220    1.7390 O.co2  72  GLU72      -0.2457
     98  N        -16.5830  -30.2780   -3.9010 N.am   73  LEU73      -0.1963
     99  CA       -16.4040  -31.0180   -5.1410 C.3    73  LEU73       0.1728
    100  C        -15.3430  -32.0950   -4.9570 C.2    73  LEU73       0.2616
    101  O        -14.2340  -31.8150   -4.4950 O.2    73  LEU73      -0.2715
    102  CB       -16.0100  -30.0740   -6.2770 C.3    73  LEU73       0.0311
    103  CG       -15.8400  -30.7280   -7.6500 C.3    73  LEU73       0.0022
    104  CD1      -17.1550  -31.3230   -8.1350 C.3    73  LEU73       0.0001
    105  CD2      -15.2980  -29.7320   -8.6610 C.3    73  LEU73       0.0001
    106  N        -15.6920  -33.3260   -5.3070 N.am   74  LEU74      -0.1963
    107  CA       -14.7630  -34.4460   -5.3290 C.3    74  LEU74       0.1728
    108  C        -14.5240  -34.8680   -6.7770 C.2    74  LEU74       0.2617
    109  O        -15.0420  -34.2620   -7.7170 O.2    74  LEU74      -0.2715
    110  CB       -15.2930  -35.6140   -4.4930 C.3    74  LEU74       0.0311
    111  CG       -15.6090  -35.3290   -3.0240 C.3    74  LEU74       0.0022
    112  CD1      -16.1310  -36.5980   -2.3550 C.3    74  LEU74       0.0001
    113  CD2      -14.3800  -34.8060   -2.3140 C.3    74  LEU74       0.0001
    114  N        -13.6910  -35.8890   -6.9550 N.am   75  GLY75      -0.1941
    115  CA       -13.3020  -36.3440   -8.2680 C.3    75  GLY75       0.1998
    116  C        -14.0780  -37.5560   -8.7480 C.2    75  GLY75       0.2481
    117  O        -15.1620  -37.8770   -8.2510 O.2    75  GLY75      -0.2729
    118  N        -13.5350  -38.2460   -9.7500 N.am   76  PRO76      -0.2715
    119  CA       -14.1980  -39.4470  -10.2680 C.3    76  PRO76       0.1536
    120  C        -14.2500  -40.5580   -9.2320 C.2    76  PRO76       0.2599
    121  O        -13.4130  -40.6380   -8.3290 O.2    76  PRO76      -0.2715
    122  CB       -13.3220  -39.8520  -11.4610 C.3    76  PRO76       0.0310
    123  CG       -12.5310  -38.6360  -11.8020 C.3    76  PRO76       0.0237
    124  CD       -12.3210  -37.9140  -10.5130 C.3    76  PRO76       0.0939
    125  N        -15.2410  -41.4310   -9.3840 N.am   77  SER77      -0.1950
    126  CA       -15.3480  -42.5970   -8.5220 C.3    77  SER77       0.1924
    127  C        -14.2960  -43.6340   -8.9070 C.2    77  SER77       0.2314
    128  O        -13.6550  -43.5530   -9.9560 O.2    77  SER77      -0.2863
    129  CB       -16.7410  -43.2200   -8.6180 C.3    77  SER77       0.2116
    130  OG       -16.8860  -43.9520   -9.8250 O.3    77  SER77      -0.2180
    131  N        -15.3300  -45.1930  -12.0860 N.3    80  ASP80      -0.1239
    132  CA       -14.9300  -44.3590  -13.2160 C.3    80  ASP80       0.1674
    133  C        -13.4640  -44.5760  -13.5570 C.2    80  ASP80       0.2266
    134  O        -13.1010  -44.7520  -14.7270 O.2    80  ASP80      -0.2867
    135  CB       -15.1690  -42.8820  -12.8990 C.3    80  ASP80       0.1410
    136  CG       -16.6290  -42.5350  -12.7720 C.2    80  ASP80       0.3668
    137  OD1      -17.4610  -43.2250  -13.3890 O.co2  80  ASP80      -0.2456
    138  OD2      -16.9350  -41.5580  -12.0560 O.co2  80  ASP80      -0.2456
    139  N        -18.4390  -47.4510   -6.7880 N.3   121  ASP121     -0.1225
    140  CA       -19.1400  -46.2280   -7.1550 C.3   121  ASP121      0.1805
    141  C        -19.2650  -45.2530   -5.9890 C.2   121  ASP121      0.2597
    142  O        -19.5430  -44.0690   -6.2150 O.2   121  ASP121     -0.2718
    143  CB       -20.5300  -46.5910   -7.6770 C.3   121  ASP121      0.1424
    144  CG       -20.5000  -47.7750   -8.6420 C.2   121  ASP121      0.3668
    145  OD1      -20.6360  -47.5520   -9.8630 O.co2 121  ASP121     -0.2456
    146  OD2      -20.3120  -48.9290   -8.1750 O.co2 121  ASP121     -0.2456
    147  N        -19.0550  -45.7160   -4.7570 N.am  122  ASN122     -0.1974
    148  CA       -19.2190  -44.8920   -3.5650 C.3   122  ASN122      0.1688
    149  C        -17.8940  -44.4680   -2.9470 C.2   122  ASN122      0.2292
    150  O        -17.8830  -43.9260   -1.8380 O.2   122  ASN122     -0.2864
    151  CB       -20.0690  -45.6290   -2.5290 C.3   122  ASN122      0.1181
    152  CG       -21.5490  -45.5500   -2.8340 C.2   122  ASN122      0.2629
    153  OD1      -21.9910  -44.6580   -3.5620 O.2   122  ASN122     -0.2716
    154  ND2      -22.3250  -46.4760   -2.2800 N.am  122  ASN122     -0.0877
    155  N        -14.7470  -41.9630   -4.0050 N.3   124  LEU124     -0.1245
    156  CA       -14.3270  -40.9460   -4.9620 C.3   124  LEU124      0.1561
    157  C        -12.9550  -40.4240   -4.5680 C.2   124  LEU124      0.2260
    158  O        -12.6860  -40.2010   -3.3850 O.2   124  LEU124     -0.2867
    159  CB       -15.3180  -39.7750   -5.0050 C.3   124  LEU124      0.0270
    160  CG       -16.6380  -39.9340   -5.7540 C.3   124  LEU124      0.0019
    161  CD1      -17.3930  -41.1660   -5.2970 C.3   124  LEU124      0.0001
    162  CD2      -17.4720  -38.6670   -5.5520 C.3   124  LEU124      0.0001
    163  N         -9.8140  -34.0680   -5.5140 N.3   127  LEU127     -0.1245
    164  CA        -9.2250  -33.2860   -6.5900 C.3   127  LEU127      0.1561
    165  C         -8.1510  -32.3580   -6.0340 C.2   127  LEU127      0.2260
    166  O         -8.1000  -32.0760   -4.8320 O.2   127  LEU127     -0.2867
    167  CB       -10.2950  -32.4650   -7.3210 C.3   127  LEU127      0.0270
    168  CG       -11.3500  -33.2540   -8.1010 C.3   127  LEU127      0.0019
    169  CD1      -12.4430  -32.3230   -8.6040 C.3   127  LEU127      0.0001
    170  CD2      -10.7290  -34.0170   -9.2620 C.3   127  LEU127      0.0001
    171  N        -18.6560  -41.8800    0.1540 N.3   137  ILE137     -0.1231
    172  CA       -19.8700  -41.0830    0.0400 C.3   137  ILE137      0.1692
    173  C        -21.0860  -41.9830    0.1860 C.2   137  ILE137      0.2592
    174  O        -20.9900  -43.2100    0.1900 O.2   137  ILE137     -0.2718
    175  CB       -19.9520  -40.3080   -1.2970 C.3   137  ILE137      0.0266
    176  CG1      -20.0560  -41.2660   -2.4900 C.3   137  ILE137      0.0019
    177  CG2      -18.7410  -39.4040   -1.4650 C.3   137  ILE137      0.0020
    178  CD1      -20.6290  -40.6170   -3.7400 C.3   137  ILE137      0.0001
    179  N        -22.2440  -41.3310    0.2970 N.am  138  ASP138     -0.1974
    180  CA       -23.5600  -41.9510    0.2050 C.3   138  ASP138      0.1709
    181  C        -23.9220  -42.7310    1.4620 C.2   138  ASP138      0.2293
    182  O        -23.5490  -43.9000    1.6130 O.2   138  ASP138     -0.2864
    183  CB       -23.6480  -42.8600   -1.0160 C.3   138  ASP138      0.1436
    184  CG       -25.0810  -43.1210   -1.4330 C.2   138  ASP138      0.3671
    185  OD1      -25.9730  -43.0770   -0.5560 O.co2 138  ASP138     -0.2456
    186  OD2      -25.3190  -43.3540   -2.6370 O.co2 138  ASP138     -0.2456
@<TRIPOS>BOND
     1   134   133    2
     2     1     2    1
     3     2     3    1
     4     2     5    1
     5     7     5    1
     6   133   132    1
     7   137   136   ar
     8   132   135    1
     9   132   131    1
    10    28    26    1
    11     3     9   am
    12     3     4    2
    13     5     6    1
    14     9    10    1
    15   135   136    1
    16   136   138   ar
    17    10    11    1
    18    37    35   ar
    19    25    26    1
    20    25    22    1
    21    12    11    2
    22    26    27    1
    23   123   122    1
    24   123   124    1
    25     6     8    1
    26    16    15    2
    27   122   119    1
    28    35    36   ar
    29    35    34    1
    30    21    22    1
    31    24    23    2
    32    22    23    1
    33   124   118    1
    34    15    14    1
    35   119   118    1
    36   119   120    1
    37    34    33    1
    38   128   127    2
    39   145   144   ar
    40   130   129    1
    41    13    14    1
    42   118   116   am
    43   125   120   am
    44   125   126    1
    45   170   168    1
    46    14    17    1
    47   120   121    2
    48    17    19    1
    49    17    18    1
    50   127   126    1
    51    33    30    1
    52   116   115    1
    53   116   117    2
    54   105   103    1
    55   144   146   ar
    56   144   143    1
    57   129   126    1
    58   169   168    1
    59   115   114    1
    60   104   103    1
    61   168   167    1
    62    18    20    1
    63   109   108    2
    64   143   140    1
    65   103   102    1
    66    30    29    1
    67    30    31    1
    68   167   164    1
    69   140   139    1
    70   140   141    1
    71   114   108   am
    72   108   107    1
    73   164   165    1
    74   164   163    1
    75    31    32    2
    76   102    99    1
    77    39    42    1
    78    39    38    1
    79    39    40    1
    80   142   141    2
    81   165   166    2
    82   141   147   am
    83   160   162    1
    84   160   161    1
    85   160   159    1
    86    40    41    2
    87   107   106    1
    88   107   110    1
    89   106   100   am
    90    44    43    1
    91    44    45    1
    92    44    47    1
    93    99   100    1
    94    99    98    1
    95    45    46    2
    96   159   156    1
    97   156   157    1
    98   156   155    1
    99   100   101    2
   100   147   148    1
   101   157   158    2
   102   110   111    1
   103    47    48    1
   104    48    49    1
   105    98    91   am
   106   178   176    1
   107   148   149    1
   108   148   151    1
   109   153   152    2
   110    50    49    1
   111    50    51    1
   112   111   112    1
   113   111   113    1
   114   149   150    2
   115    92    91    2
   116    91    90    1
   117    84    83    2
   118   152   151    1
   119   152   154   am
   120   186   184   ar
   121    76    75    2
   122   176   175    1
   123    83    82    1
   124    83    89   am
   125    90    89    1
   126    90    93    1
   127    81    82    1
   128   177   175    1
   129   184   183    1
   130   184   185   ar
   131    75    74    1
   132   175   172    1
   133    87    86    1
   134    87    88    1
   135    73    74    1
   136    85    82    1
   137    85    86    1
   138   183   180    1
   139    93    94    1
   140    74    77    1
   141    94    95    1
   142   172   171    1
   143   172   173    1
   144    77    78    1
   145   173   174    2
   146   173   179   am
   147   180   179    1
   148   180   181    1
   149    96    95   ar
   150    95    97   ar
   151    72    71    1
   152    80    79    1
   153    60    58   ar
   154    78    79    1
   155    59    58   ar
   156   181   182    2
   157    58    57    1
   158    71    70   ar
   159    71    69   ar
   160    70    68   ar
   161    69    67   ar
   162    57    56    1
   163    68    66   ar
   164    56    53    1
   165    67    66   ar
   166    66    65    1
   167    53    54    1
   168    53    52    1
   169    54    55    2
   170    65    62    1
   171    62    61    1
   172    62    63    1
   173    63    64    2
