@<TRIPOS>MOLECULE
tmp/6f1xB00.pdb
 208 205 0 0 0
SMALL
GASTEIGER

@<TRIPOS>ATOM
      1  N         35.4300  -37.9660   12.5390 N.3     6  TYR6       -0.1227
      2  CA        35.3400  -39.3230   12.0390 C.3     6  TYR6        0.1736
      3  C         34.7650  -39.2770   10.6460 C.2     6  TYR6        0.2596
      4  O         34.0630  -38.3170   10.2920 O.2     6  TYR6       -0.2718
      5  CB        34.3970  -40.1660   12.8650 C.3     6  TYR6        0.0548
      6  CG        34.8450  -40.4930   14.2450 C.ar    6  TYR6       -0.0200
      7  CD1       34.7720  -39.5620   15.2500 C.ar    6  TYR6       -0.0009
      8  CD2       35.2820  -41.7750   14.5620 C.ar    6  TYR6       -0.0009
      9  CE1       35.1630  -39.8900   16.5570 C.ar    6  TYR6        0.0417
     10  CE2       35.6730  -42.1110   15.8310 C.ar    6  TYR6        0.0417
     11  CZ        35.6010  -41.1720   16.8310 C.ar    6  TYR6        0.1957
     12  OH        35.9810  -41.5440   18.0870 O.3     6  TYR6       -0.2866
     13  N         35.0180  -40.3450    9.8900 N.am    7  THR7       -0.1939
     14  CA        34.3720  -40.5390    8.5630 C.3     7  THR7        0.2028
     15  C         33.6130  -41.8210    8.5130 C.2     7  THR7        0.2642
     16  O         33.8290  -42.7320    9.3130 O.2     7  THR7       -0.2714
     17  CB        35.3790  -40.6080    7.3960 C.3     7  THR7        0.1808
     18  OG1       36.2830  -41.7290    7.5700 O.3     7  THR7       -0.2208
     19  CG2       36.1320  -39.3310    7.2740 C.3     7  THR7        0.0379
     20  N         32.7040  -41.8820    7.5520 N.am    8  LEU8       -0.1977
     21  CA        31.8870  -43.0390    7.3260 C.3     8  LEU8        0.1596
     22  C         31.5570  -43.0820    5.8560 C.2     8  LEU8        0.2287
     23  O         31.0450  -42.0930    5.3020 O.2     8  LEU8       -0.2864
     24  CB        30.6010  -42.9400    8.1390 C.3     8  LEU8        0.0297
     25  CG        29.7460  -44.1970    8.2430 C.3     8  LEU8        0.0022
     26  CD1       30.4670  -45.3990    8.8630 C.3     8  LEU8        0.0001
     27  CD2       28.5120  -43.8350    9.0780 C.3     8  LEU8        0.0001
     28  N         29.5970  -45.1730    2.8230 N.3    10  LEU10      -0.1245
     29  CA        28.5600  -46.0740    2.3890 C.3    10  LEU10       0.1561
     30  C         28.7740  -46.3580    0.9110 C.2    10  LEU10       0.2260
     31  O         28.6790  -45.4550    0.1080 O.2    10  LEU10      -0.2867
     32  CB        27.1940  -45.4150    2.5250 C.3    10  LEU10       0.0270
     33  CG        26.5230  -45.4370    3.9010 C.3    10  LEU10       0.0019
     34  CD1       26.1480  -46.8700    4.2620 C.3    10  LEU10       0.0001
     35  CD2       27.4350  -44.8120    4.9420 C.3    10  LEU10       0.0001
     36  N         28.1640  -53.3590    3.4510 N.3    19  LEU19      -0.1245
     37  CA        28.4270  -53.0780    4.8350 C.3    19  LEU19       0.1561
     38  C         29.5240  -54.0110    5.3230 C.2    19  LEU19       0.2260
     39  O         29.8760  -54.9800    4.6520 O.2    19  LEU19      -0.2867
     40  CB        27.1700  -53.2900    5.6770 C.3    19  LEU19       0.0270
     41  CG        25.9520  -52.4340    5.2800 C.3    19  LEU19       0.0019
     42  CD1       24.7160  -52.8160    6.1150 C.3    19  LEU19       0.0001
     43  CD2       26.2490  -50.9430    5.3850 C.3    19  LEU19       0.0001
     44  N         31.9680  -55.5710   11.8610 N.3    22  LYS22      -0.1245
     45  CA        33.0820  -55.0540   12.6220 C.3    22  LYS22       0.1561
     46  C         33.5630  -56.1300   13.5990 C.2    22  LYS22       0.2260
     47  O         32.8080  -56.5890   14.4490 O.2    22  LYS22      -0.2867
     48  CB        32.6070  -53.8170   13.3840 C.3    22  LYS22       0.0271
     49  CG        33.6710  -53.0870   14.1800 C.3    22  LYS22       0.0035
     50  CD        34.4100  -52.0520   13.3470 C.3    22  LYS22       0.0206
     51  CE        35.4030  -51.2500   14.1790 C.3    22  LYS22       0.1093
     52  NZ        34.8070  -50.6830   15.4230 N.3    22  LYS22      -0.1314
     53  N         35.0270  -50.6080   19.1690 N.3    26  PHE26      -0.1241
     54  CA        33.7630  -49.9810   19.5140 C.3    26  PHE26       0.1605
     55  C         32.7300  -50.2730   18.4240 C.2    26  PHE26       0.2264
     56  O         32.9230  -49.9020   17.2700 O.2    26  PHE26      -0.2867
     57  CB        33.9900  -48.4600   19.6850 C.3    26  PHE26       0.0534
     58  CG        32.8220  -47.7230   20.2630 C.ar   26  PHE26      -0.0203
     59  CD1       32.2910  -48.0890   21.4850 C.ar   26  PHE26      -0.0042
     60  CD2       32.2670  -46.6410   19.5960 C.ar   26  PHE26      -0.0042
     61  CE1       31.2130  -47.4140   22.0250 C.ar   26  PHE26      -0.0003
     62  CE2       31.1890  -45.9580   20.1340 C.ar   26  PHE26      -0.0003
     63  CZ        30.6630  -46.3410   21.3510 C.ar   26  PHE26      -0.0000
     64  N         26.9120  -54.4290   11.7960 N.3    31  TRP31      -0.1227
     65  CA        27.2180  -54.0630   10.4310 C.3    31  TRP31       0.1737
     66  C         27.3470  -52.5520   10.3200 C.2    31  TRP31       0.2595
     67  O         26.4210  -51.8200   10.6440 O.2    31  TRP31      -0.2718
     68  CB        26.1350  -54.5700    9.4710 C.3    31  TRP31       0.0564
     69  CG        26.0810  -56.0950    9.4160 C.ar   31  TRP31       0.0003
     70  CD1       25.2470  -56.9160   10.1190 C.ar   31  TRP31       0.0946
     71  CD2       26.9210  -56.9510    8.6290 C.ar   31  TRP31       0.0152
     72  NE1       25.4980  -58.2210    9.8070 N.ar   31  TRP31      -0.2442
     73  CE2       26.5220  -58.2780    8.8940 C.ar   31  TRP31       0.0810
     74  CE3       27.9580  -56.7200    7.7070 C.ar   31  TRP31       0.0012
     75  CZ2       27.1350  -59.3920    8.2800 C.ar   31  TRP31       0.0191
     76  CZ3       28.5850  -57.8420    7.0860 C.ar   31  TRP31       0.0001
     77  CH2       28.1620  -59.1490    7.3820 C.ar   31  TRP31       0.0015
     78  N         28.4990  -52.0920    9.8330 N.am   32  ASN32      -0.1960
     79  CA        28.8240  -50.6760    9.7430 C.3    32  ASN32       0.1819
     80  C         29.2000  -50.3420    8.3390 C.2    32  ASN32       0.2621
     81  O         29.5870  -51.2260    7.5510 O.2    32  ASN32      -0.2715
     82  CB        30.0190  -50.3510   10.6340 C.3    32  ASN32       0.1195
     83  CG        29.7340  -50.5920   12.0880 C.2    32  ASN32       0.2630
     84  OD1       28.6050  -50.8360   12.4870 O.2    32  ASN32      -0.2716
     85  ND2       30.7550  -50.5480   12.8830 N.am   32  ASN32      -0.0877
     86  N         29.1470  -49.0490    8.0280 N.am   33  GLY33      -0.1954
     87  CA        29.8440  -48.5250    6.8620 C.3    33  GLY33       0.1869
     88  C         31.3350  -48.5180    7.1950 C.2    33  GLY33       0.2309
     89  O         31.7560  -48.9030    8.3010 O.2    33  GLY33      -0.2863
     90  N         34.8680  -46.7250    7.9660 N.3    35  GLY35      -0.1210
     91  CA        35.4030  -45.4600    8.3650 C.3    35  GLY35       0.1956
     92  C         36.1190  -45.5500    9.6480 C.2    35  GLY35       0.2612
     93  O         36.5380  -46.6450   10.0580 O.2    35  GLY35      -0.2717
     94  N         36.2820  -44.3790   10.2630 N.am   36  GLY36      -0.1956
     95  CA        37.0440  -44.2650   11.5170 C.3    36  GLY36       0.1869
     96  C         37.5400  -42.8530   11.7740 C.2    36  GLY36       0.2309
     97  O         37.0840  -41.8970   11.1500 O.2    36  GLY36      -0.2863
     98  N         27.3160  -37.4970   17.2530 N.3    71  PHE71      -0.1241
     99  CA        26.8860  -38.4880   18.2770 C.3    71  PHE71       0.1605
    100  C         27.3820  -38.0230   19.6420 C.2    71  PHE71       0.2264
    101  O         28.5490  -37.6720   19.7810 O.2    71  PHE71      -0.2867
    102  CB        27.4220  -39.8900   17.9790 C.3    71  PHE71       0.0534
    103  CG        26.8550  -40.5230   16.7130 C.ar   71  PHE71      -0.0203
    104  CD1       25.5450  -40.9580   16.6700 C.ar   71  PHE71      -0.0042
    105  CD2       27.6420  -40.7080   15.5960 C.ar   71  PHE71      -0.0042
    106  CE1       25.0120  -41.5520   15.5170 C.ar   71  PHE71      -0.0003
    107  CE2       27.1230  -41.2990   14.4330 C.ar   71  PHE71      -0.0003
    108  CZ        25.8050  -41.7170   14.4030 C.ar   71  PHE71      -0.0000
    109  N         27.5070  -39.3610   23.6060 N.3    73  PHE73      -0.1241
    110  CA        27.3060  -40.5190   24.4760 C.3    73  PHE73       0.1605
    111  C         27.3470  -40.0360   25.9190 C.2    73  PHE73       0.2264
    112  O         28.3050  -39.3790   26.3000 O.2    73  PHE73      -0.2867
    113  CB        28.4000  -41.5630   24.2250 C.3    73  PHE73       0.0534
    114  CG        28.2590  -42.2790   22.9160 C.ar   73  PHE73      -0.0203
    115  CD1       28.8380  -41.7680   21.7650 C.ar   73  PHE73      -0.0042
    116  CD2       27.5230  -43.4540   22.8310 C.ar   73  PHE73      -0.0042
    117  CE1       28.6980  -42.4260   20.5550 C.ar   73  PHE73      -0.0003
    118  CE2       27.3690  -44.1210   21.6290 C.ar   73  PHE73      -0.0003
    119  CZ        27.9620  -43.6060   20.4800 C.ar   73  PHE73      -0.0000
    120  N         31.3400  -37.0950   18.7900 N.3    80  MET80      -0.1245
    121  CA        31.8530  -37.6160   17.5150 C.3    80  MET80       0.1570
    122  C         31.2250  -36.8000   16.3930 C.2    80  MET80       0.2261
    123  O         29.9980  -36.6560   16.3500 O.2    80  MET80      -0.2867
    124  CB        31.4540  -39.0460   17.3580 C.3    80  MET80       0.0387
    125  CG        31.9620  -39.9620   18.4120 C.3    80  MET80       0.0595
    126  SD        31.4220  -41.6360   18.0490 S.3    80  MET80      -0.1393
    127  CE        32.0440  -41.9620   16.3960 C.3    80  MET80       0.0692
    128  N         30.8010  -36.8530   12.6380 N.3    82  VAL82      -0.1245
    129  CA        30.9380  -37.9040   11.6330 C.3    82  VAL82       0.1561
    130  C         30.5340  -37.3370   10.3000 C.2    82  VAL82       0.2260
    131  O         29.3880  -36.8840   10.1350 O.2    82  VAL82      -0.2867
    132  CB        30.0920  -39.1650   11.9720 C.3    82  VAL82       0.0252
    133  CG1       30.2410  -40.2410   10.8890 C.3    82  VAL82       0.0019
    134  CG2       30.4600  -39.7220   13.3310 C.3    82  VAL82       0.0019
    135  N         22.4950  -53.5180   13.4150 N.3   115  MET115     -0.1230
    136  CA        23.1520  -52.2480   13.1120 C.3   115  MET115      0.1702
    137  C         22.9560  -51.3080   14.2930 C.2   115  MET115      0.2592
    138  O         22.1360  -51.5600   15.1800 O.2   115  MET115     -0.2718
    139  CB        22.5690  -51.6600   11.8410 C.3   115  MET115      0.0401
    140  CG        23.0670  -52.3750   10.6010 C.3   115  MET115      0.0596
    141  SD        22.0330  -52.0990    9.1560 S.3   115  MET115     -0.1393
    142  CE        22.5750  -50.4800    8.6380 C.3   115  MET115      0.0692
    143  N         23.7310  -50.2360   14.3240 N.am  116  TRP116     -0.1976
    144  CA        23.4620  -49.1400   15.2680 C.3   116  TRP116      0.1640
    145  C         21.9850  -48.6600   15.1250 C.2   116  TRP116      0.2290
    146  O         21.4540  -48.6190   14.0140 O.2   116  TRP116     -0.2864
    147  CB        24.4200  -48.0030   15.0070 C.3   116  TRP116      0.0576
    148  CG        25.8250  -48.2240   15.4730 C.ar  116  TRP116      0.0006
    149  CD1       26.8380  -48.7690   14.7710 C.ar  116  TRP116      0.0946
    150  CD2       26.3620  -47.8650   16.7500 C.ar  116  TRP116      0.0152
    151  NE1       27.9760  -48.7840   15.5260 N.ar  116  TRP116     -0.2442
    152  CE2       27.7110  -48.2290   16.7460 C.ar  116  TRP116      0.0810
    153  CE3       25.8220  -47.2680   17.9010 C.ar  116  TRP116      0.0012
    154  CZ2       28.5540  -48.0240   17.8560 C.ar  116  TRP116      0.0191
    155  CZ3       26.6550  -47.0570   19.0090 C.ar  116  TRP116      0.0001
    156  CH2       28.0030  -47.4380   18.9740 C.ar  116  TRP116      0.0015
    157  N         20.4340  -45.7410   15.3710 N.3   118  ASP118     -0.1225
    158  CA        20.2300  -44.5180   14.5890 C.3   118  ASP118      0.1805
    159  C         20.0960  -44.7840   13.1000 C.2   118  ASP118      0.2597
    160  O         19.5150  -43.9460   12.3890 O.2   118  ASP118     -0.2718
    161  CB        21.3340  -43.4930   14.8420 C.3   118  ASP118      0.1424
    162  CG        22.7320  -44.0310   14.5040 C.2   118  ASP118      0.3668
    163  OD1       23.2250  -44.9620   15.1870 O.co2 118  ASP118     -0.2456
    164  OD2       23.3120  -43.5100   13.5590 O.co2 118  ASP118     -0.2456
    165  N         20.6180  -45.9190   12.6200 N.am  119  ASP119     -0.1974
    166  CA        20.6560  -46.1790   11.1840 C.3   119  ASP119      0.1709
    167  C         19.2870  -46.1830   10.5300 C.2   119  ASP119      0.2293
    168  O         19.1350  -45.6310    9.4240 O.2   119  ASP119     -0.2864
    169  CB        21.3400  -47.4960   10.8800 C.3   119  ASP119      0.1436
    170  CG        22.8280  -47.4690   11.1700 C.2   119  ASP119      0.3671
    171  OD1       23.3720  -46.4320   11.6510 O.co2 119  ASP119     -0.2456
    172  OD2       23.4400  -48.5240   10.9050 O.co2 119  ASP119     -0.2456
    173  N         18.1140  -42.3360    9.6350 N.3   122  TRP122     -0.1227
    174  CA        18.7000  -41.5570    8.5410 C.3   122  TRP122      0.1737
    175  C         18.9450  -42.3290    7.2350 C.2   122  TRP122      0.2595
    176  O         19.1090  -41.7130    6.1370 O.2   122  TRP122     -0.2718
    177  CB        19.9730  -40.8330    9.0050 C.3   122  TRP122      0.0564
    178  CG        21.0650  -41.6980    9.5490 C.ar  122  TRP122      0.0003
    179  CD1       21.2600  -42.0310   10.8570 C.ar  122  TRP122      0.0946
    180  CD2       22.1590  -42.2940    8.8190 C.ar  122  TRP122      0.0152
    181  NE1       22.3800  -42.8400   10.9920 N.ar  122  TRP122     -0.2442
    182  CE2       22.9500  -43.0060    9.7530 C.ar  122  TRP122      0.0810
    183  CE3       22.5260  -42.3220    7.4610 C.ar  122  TRP122      0.0012
    184  CZ2       24.1100  -43.7050    9.3820 C.ar  122  TRP122      0.0191
    185  CZ3       23.6810  -43.0470    7.0860 C.ar  122  TRP122      0.0001
    186  CH2       24.4530  -43.7260    8.0560 C.ar  122  TRP122      0.0015
    187  N         18.9290  -43.6510    7.2950 N.am  123  PHE123     -0.1976
    188  CA        18.9970  -44.4580    6.0420 C.3   123  PHE123      0.1639
    189  C         17.9860  -44.1230    4.9720 C.2   123  PHE123      0.2290
    190  O         18.3690  -44.0610    3.8000 O.2   123  PHE123     -0.2864
    191  CB        18.9180  -45.9460    6.2960 C.3   123  PHE123      0.0560
    192  CG        20.2020  -46.6320    6.0640 C.ar  123  PHE123     -0.0200
    193  CD1       21.2370  -46.4810    6.9650 C.ar  123  PHE123     -0.0042
    194  CD2       20.3910  -47.3820    4.9160 C.ar  123  PHE123     -0.0042
    195  CE1       22.4460  -47.1170    6.7570 C.ar  123  PHE123     -0.0003
    196  CE2       21.5950  -48.0220    4.6890 C.ar  123  PHE123     -0.0003
    197  CZ        22.6270  -47.8890    5.6060 C.ar  123  PHE123     -0.0000
    198  N         23.1430  -40.8120   22.8350 N.3   138  PHE138     -0.1241
    199  CA        23.0540  -42.2180   23.2260 C.3   138  PHE138      0.1605
    200  C         23.3180  -42.4030   24.7080 C.2   138  PHE138      0.2264
    201  O         24.1690  -41.7220   25.2810 O.2   138  PHE138     -0.2867
    202  CB        24.0940  -43.0500   22.4840 C.3   138  PHE138      0.0534
    203  CG        23.6480  -43.5640   21.1490 C.ar  138  PHE138     -0.0203
    204  CD1       23.6300  -42.7390   20.0340 C.ar  138  PHE138     -0.0042
    205  CD2       23.3330  -44.9180   20.9830 C.ar  138  PHE138     -0.0042
    206  CE1       23.2440  -43.2380   18.7850 C.ar  138  PHE138     -0.0003
    207  CE2       22.9390  -45.4050   19.7520 C.ar  138  PHE138     -0.0003
    208  CZ        22.8950  -44.5530   18.6480 C.ar  138  PHE138     -0.0000
@<TRIPOS>BOND
     1    31    30    2
     2    30    29    1
     3    29    32    1
     4    29    28    1
     5    32    33    1
     6    36    37    1
     7   190   189    2
     8    33    34    1
     9    33    35    1
    10    39    38    2
    11   196   194   ar
    12   196   197   ar
    13    37    38    1
    14    37    40    1
    15   194   192   ar
    16   189   188    1
    17    41    43    1
    18    41    40    1
    19    41    42    1
    20    23    22    2
    21   197   195   ar
    22    22    21    1
    23   188   191    1
    24   188   187    1
    25   192   191    1
    26   192   193   ar
    27   176   175    2
    28   195   193   ar
    29    87    88    1
    30    87    86    1
    31    76    77   ar
    32    76    74   ar
    33   185   183   ar
    34   185   186   ar
    35    88    89    2
    36   175   187   am
    37   175   174    1
    38    19    17    1
    39    21    20    1
    40    21    24    1
    41    77    75   ar
    42    17    18    1
    43    17    14    1
    44   183   180   ar
    45    81    80    2
    46    20    15   am
    47    74    71   ar
    48    90    91    1
    49    86    80   am
    50   186   184   ar
    51    24    25    1
    52    25    26    1
    53    25    27    1
    54    75    73   ar
    55    80    79    1
    56    91    92    1
    57    15    14    1
    58    15    16    2
    59   174   177    1
    60   174   173    1
    61    14    13    1
    62    71    73   ar
    63    71    69   ar
    64   142   141    1
    65   180   178   ar
    66   180   182   ar
    67    73    72   ar
    68   177   178    1
    69   141   140    1
    70   184   182   ar
    71    69    68    1
    72    69    70   ar
    73   168   167    2
    74    68    65    1
    75   178   179   ar
    76    92    93    2
    77    92    94   am
    78    79    78    1
    79    79    82    1
    80   182   181   ar
    81    72    70   ar
    82    78    66   am
    83    13     3   am
    84   131   130    2
    85    94    95    1
    86     4     3    2
    87   130   129    1
    88    66    65    1
    89    66    67    2
    90    65    64    1
    91   167   166    1
    92   140   139    1
    93    82    83    1
    94     3     2    1
    95   179   181   ar
    96   169   170    1
    97   169   166    1
    98   133   132    1
    99   172   170   ar
   100    97    96    2
   101   170   171   ar
   102   166   165    1
   103    95    96    1
   104   129   132    1
   105   129   128    1
   106   139   136    1
   107    44    45    1
   108   132   134    1
   109     2     1    1
   110     2     5    1
   111    83    84    2
   112    83    85   am
   113   160   159    2
   114   165   159   am
   115    45    48    1
   116    45    46    1
   117     5     6    1
   118   159   158    1
   119   136   135    1
   120   136   137    1
   121    50    51    1
   122    50    49    1
   123    48    49    1
   124   164   162   ar
   125    46    47    2
   126   146   145    2
   127    51    52    1
   128     6     8   ar
   129     6     7   ar
   130   137   143   am
   131   137   138    2
   132   143   144    1
   133   108   107   ar
   134   108   106   ar
   135   107   105   ar
   136   162   161    1
   137   162   163   ar
   138     8    10   ar
   139   158   161    1
   140   158   157    1
   141   149   148   ar
   142   149   151   ar
   143   147   144    1
   144   147   148    1
   145   145   144    1
   146     7     9   ar
   147   148   150   ar
   148   106   104   ar
   149   151   152   ar
   150   105   103   ar
   151    10    11   ar
   152   123   122    2
   153   122   121    1
   154   127   126    1
   155     9    11   ar
   156   104   103   ar
   157   103   102    1
   158   152   150   ar
   159   152   154   ar
   160   150   153   ar
   161    11    12    1
   162    98    99    1
   163    56    55    2
   164   124   121    1
   165   124   125    1
   166   121   120    1
   167   154   156   ar
   168   153   155   ar
   169   102    99    1
   170   126   125    1
   171    99   100    1
   172    55    54    1
   173   208   206   ar
   174   208   207   ar
   175   206   204   ar
   176   156   155   ar
   177    53    54    1
   178    54    57    1
   179    60    62   ar
   180    60    58   ar
   181   100   101    2
   182    57    58    1
   183   207   205   ar
   184   204   203   ar
   185    62    63   ar
   186    58    59   ar
   187   119   117   ar
   188   119   118   ar
   189   117   115   ar
   190   205   203   ar
   191   203   202    1
   192    63    61   ar
   193    59    61   ar
   194   118   116   ar
   195   115   114   ar
   196   202   199    1
   197   116   114   ar
   198   198   199    1
   199   114   113    1
   200   199   200    1
   201   109   110    1
   202   113   110    1
   203   110   111    1
   204   200   201    2
   205   111   112    2
