@<TRIPOS>MOLECULE
tmp/6f20A00.pdb
 154 150 0 0 0
SMALL
GASTEIGER

@<TRIPOS>ATOM
      1  N         -5.6230   -2.8320  -12.8310 N.3     7  TYR7       -0.1227
      2  CA        -5.6270   -4.2940  -12.9520 C.3     7  TYR7        0.1736
      3  C         -5.1990   -4.9180  -11.6180 C.2     7  TYR7        0.2596
      4  O         -4.5780   -4.2530  -10.8220 O.2     7  TYR7       -0.2718
      5  CB        -4.6210   -4.7230  -13.9940 C.3     7  TYR7        0.0548
      6  CG        -4.9680   -4.3640  -15.4370 C.ar    7  TYR7       -0.0200
      7  CD1       -4.7060   -3.1000  -15.9360 C.ar    7  TYR7       -0.0009
      8  CD2       -5.5000   -5.3180  -16.2980 C.ar    7  TYR7       -0.0009
      9  CE1       -5.0060   -2.7620  -17.2490 C.ar    7  TYR7        0.0417
     10  CE2       -5.7880   -4.9990  -17.6430 C.ar    7  TYR7        0.0417
     11  CZ        -5.5370   -3.7200  -18.1040 C.ar    7  TYR7        0.1957
     12  OH        -5.8200   -3.3830  -19.4190 O.3     7  TYR7       -0.2866
     13  N         -5.5330   -6.1940  -11.4160 N.am    8  THR8       -0.1939
     14  CA        -5.1610   -7.0310  -10.2690 C.3     8  THR8        0.2028
     15  C         -4.3520   -8.2430  -10.7360 C.2     8  THR8        0.2642
     16  O         -4.4790   -8.6850  -11.8890 O.2     8  THR8       -0.2714
     17  CB        -6.3850   -7.6100   -9.5500 C.3     8  THR8        0.1808
     18  OG1       -7.2500   -8.2860  -10.5090 O.3     8  THR8       -0.2208
     19  CG2       -7.1110   -6.5080   -8.8290 C.3     8  THR8        0.0379
     20  N         -3.5270   -8.7640   -9.8300 N.am    9  LEU9       -0.1977
     21  CA        -2.7410   -9.9870  -10.0260 C.3     9  LEU9        0.1596
     22  C         -2.6310  -10.6950   -8.6430 C.2     9  LEU9        0.2287
     23  O         -2.2060  -10.0670   -7.6770 O.2     9  LEU9       -0.2864
     24  CB        -1.3600   -9.6320  -10.5650 C.3     9  LEU9        0.0297
     25  CG        -0.5590  -10.8360  -11.0760 C.3     9  LEU9        0.0022
     26  CD1       -1.2670  -11.5100  -12.2550 C.3     9  LEU9        0.0001
     27  CD2        0.8230  -10.3840  -11.5080 C.3     9  LEU9        0.0001
     28  N         -4.8980  -11.4500  -24.0230 N.3    27  PHE27      -0.1241
     29  CA        -3.5990  -10.8230  -23.7490 C.3    27  PHE27       0.1605
     30  C         -2.7310  -11.6890  -22.8250 C.2    27  PHE27       0.2264
     31  O         -3.1680  -12.1370  -21.7590 O.2    27  PHE27      -0.2867
     32  CB        -3.8070   -9.4290  -23.1540 C.3    27  PHE27       0.0534
     33  CG        -2.5810   -8.5570  -23.2230 C.ar   27  PHE27      -0.0203
     34  CD1       -2.0890   -8.1370  -24.4500 C.ar   27  PHE27      -0.0042
     35  CD2       -1.9210   -8.1600  -22.0660 C.ar   27  PHE27      -0.0042
     36  CE1       -0.9650   -7.3240  -24.5320 C.ar   27  PHE27      -0.0003
     37  CE2       -0.7960   -7.3560  -22.1350 C.ar   27  PHE27      -0.0003
     38  CZ        -0.3110   -6.9400  -23.3730 C.ar   27  PHE27      -0.0000
     39  N          0.9630  -17.3520  -15.4970 N.3    33  ASN33      -0.1240
     40  CA         0.8260  -16.0810  -14.7530 C.3    33  ASN33       0.1653
     41  C         -0.0080  -16.3030  -13.4910 C.2    33  ASN33       0.2266
     42  O         -0.6050  -17.3670  -13.3210 O.2    33  ASN33      -0.2867
     43  CB         0.1380  -15.0350  -15.6520 C.3    33  ASN33       0.1155
     44  CG         0.5530  -13.5850  -15.3160 C.2    33  ASN33       0.2627
     45  OD1        1.1760  -13.3120  -14.2770 O.2    33  ASN33      -0.2716
     46  ND2        0.1970  -12.6430  -16.2010 N.am   33  ASN33      -0.0877
     47  N         -5.9410  -12.7380  -12.4100 N.3    36  GLY36      -0.1210
     48  CA        -6.3230  -11.3380  -12.3410 C.3    36  GLY36       0.1956
     49  C         -6.9060  -10.7710  -13.6220 C.2    36  GLY36       0.2612
     50  O         -7.2160  -11.4950  -14.5340 O.2    36  GLY36      -0.2717
     51  N         -7.0300   -9.4580  -13.6850 N.am   37  GLY37      -0.1956
     52  CA        -7.6720   -8.7910  -14.8270 C.3    37  GLY37       0.1869
     53  C         -8.0520   -7.3600  -14.4760 C.2    37  GLY37       0.2309
     54  O         -7.6340   -6.8160  -13.4290 O.2    37  GLY37      -0.2863
     55  N          2.9110   -2.5480   -9.9170 N.3    70  ILE70      -0.1245
     56  CA         3.7110   -2.4380  -11.1230 C.3    70  ILE70       0.1561
     57  C          2.9470   -1.6260  -12.1600 C.2    70  ILE70       0.2260
     58  O          1.7750   -1.8620  -12.3880 O.2    70  ILE70      -0.2867
     59  CB         4.0800   -3.8130  -11.7390 C.3    70  ILE70       0.0252
     60  CG1        4.7720   -4.7280  -10.7150 C.3    70  ILE70       0.0019
     61  CG2        5.0310   -3.6360  -12.8990 C.3    70  ILE70       0.0019
     62  CD1        4.7700   -6.1910  -11.1700 C.3    70  ILE70       0.0001
     63  N          2.9910   -0.6990  -16.1050 N.3    72  PHE72      -0.1241
     64  CA         3.4740   -1.0420  -17.4560 C.3    72  PHE72       0.1605
     65  C          3.1540    0.0340  -18.4970 C.2    72  PHE72       0.2264
     66  O          2.0190    0.5500  -18.5440 O.2    72  PHE72      -0.2867
     67  CB         2.8870   -2.3710  -17.9510 C.3    72  PHE72       0.0534
     68  CG         3.2890   -3.5480  -17.1220 C.ar   72  PHE72      -0.0203
     69  CD1        4.5660   -4.1380  -17.2670 C.ar   72  PHE72      -0.0042
     70  CD2        2.4420   -4.0330  -16.1360 C.ar   72  PHE72      -0.0042
     71  CE1        4.9450   -5.2220  -16.4660 C.ar   72  PHE72      -0.0003
     72  CE2        2.8220   -5.1360  -15.3550 C.ar   72  PHE72      -0.0003
     73  CZ         4.0760   -5.7370  -15.5280 C.ar   72  PHE72      -0.0000
     74  N          3.2850    0.1130  -22.7030 N.3    74  PHE74      -0.1241
     75  CA         3.5250   -0.5570  -23.9810 C.3    74  PHE74       0.1605
     76  C          3.6540    0.5010  -25.1020 C.2    74  PHE74       0.2264
     77  O          2.7820    1.3310  -25.2540 O.2    74  PHE74      -0.2867
     78  CB         2.3870   -1.5600  -24.2720 C.3    74  PHE74       0.0534
     79  CG         2.4640   -2.7990  -23.4290 C.ar   74  PHE74      -0.0203
     80  CD1        3.2150   -3.8810  -23.8490 C.ar   74  PHE74      -0.0042
     81  CD2        1.8460   -2.8460  -22.1710 C.ar   74  PHE74      -0.0042
     82  CE1        3.3120   -5.0370  -23.0640 C.ar   74  PHE74      -0.0003
     83  CE2        1.9900   -3.9700  -21.3520 C.ar   74  PHE74      -0.0003
     84  CZ         2.7220   -5.0650  -21.8030 C.ar   74  PHE74      -0.0000
     85  N         -0.7940    0.6550  -17.7020 N.3    81  MET81      -0.1245
     86  CA        -1.4610   -0.4090  -16.9180 C.3    81  MET81       0.1570
     87  C         -0.9610   -0.3130  -15.4610 C.2    81  MET81       0.2261
     88  O          0.2300   -0.4030  -15.2370 O.2    81  MET81      -0.2867
     89  CB        -1.1610   -1.8000  -17.4640 C.3    81  MET81       0.0387
     90  CG        -1.7370   -2.0790  -18.8280 C.3    81  MET81       0.0595
     91  SD        -1.1710   -3.7020  -19.4870 S.3    81  MET81      -0.1393
     92  CE        -1.4660   -4.8870  -18.1840 C.3    81  MET81       0.0692
     93  N         -1.0490   -2.1310  -12.2290 N.3    83  VAL83      -0.1245
     94  CA        -1.3260   -3.5190  -11.7430 C.3    83  VAL83       0.1561
     95  C         -1.0740   -3.6040  -10.1950 C.2    83  VAL83       0.2260
     96  O          0.0740   -3.4070   -9.7590 O.2    83  VAL83      -0.2867
     97  CB        -0.4350   -4.5600  -12.4610 C.3    83  VAL83       0.0252
     98  CG1       -0.7340   -5.9640  -11.9700 C.3    83  VAL83       0.0019
     99  CG2       -0.6020   -4.5080  -14.0010 C.3    83  VAL83       0.0019
    100  N          5.8520  -13.9060  -18.3970 N.3   117  TRP117     -0.1241
    101  CA         6.2450  -12.5350  -18.7830 C.3   117  TRP117      0.1605
    102  C          7.6920  -12.2310  -18.3070 C.2   117  TRP117      0.2264
    103  O          8.1030  -12.6460  -17.2050 O.2   117  TRP117     -0.2867
    104  CB         5.2650  -11.4360  -18.3170 C.3   117  TRP117      0.0550
    105  CG         3.9880  -11.3190  -19.0430 C.ar  117  TRP117      0.0003
    106  CD1        2.8110  -11.9930  -18.7930 C.ar  117  TRP117      0.0946
    107  CD2        3.7150  -10.4250  -20.1330 C.ar  117  TRP117      0.0152
    108  NE1        1.8280  -11.5980  -19.6960 N.ar  117  TRP117     -0.2442
    109  CE2        2.3610  -10.6370  -20.5270 C.ar  117  TRP117      0.0810
    110  CE3        4.5030   -9.5130  -20.8580 C.ar  117  TRP117      0.0012
    111  CZ2        1.7680   -9.9260  -21.5850 C.ar  117  TRP117      0.0191
    112  CZ3        3.9060   -8.7920  -21.9060 C.ar  117  TRP117      0.0001
    113  CH2        2.5550   -9.0110  -22.2620 C.ar  117  TRP117      0.0015
    114  N          9.2480   -9.5780  -17.2160 N.3   119  ASP119     -0.1225
    115  CA         9.4110   -8.7840  -15.9530 C.3   119  ASP119      0.1805
    116  C          9.3370   -9.6480  -14.6850 C.2   119  ASP119      0.2597
    117  O          9.9360   -9.2600  -13.6810 O.2   119  ASP119     -0.2718
    118  CB         8.3740   -7.6590  -15.8320 C.3   119  ASP119      0.1424
    119  CG         6.9510   -8.1710  -15.9820 C.2   119  ASP119      0.3668
    120  OD1        6.6210   -8.6110  -17.1220 O.co2 119  ASP119     -0.2456
    121  OD2        6.2050   -8.1920  -14.9660 O.co2 119  ASP119     -0.2456
    122  N          8.6540  -10.8020  -14.7410 N.am  120  ASP120     -0.1974
    123  CA         8.5150  -11.6900  -13.5840 C.3   120  ASP120      0.1709
    124  C          9.8640  -12.1220  -12.9900 C.2   120  ASP120      0.2293
    125  O          9.9900  -12.1730  -11.7810 O.2   120  ASP120     -0.2864
    126  CB         7.6570  -12.9240  -13.8890 C.3   120  ASP120      0.1436
    127  CG         6.2440  -12.5680  -14.2130 C.2   120  ASP120      0.3671
    128  OD1        6.0080  -11.3870  -14.5190 O.co2 120  ASP120     -0.2456
    129  OD2        5.3680  -13.4420  -14.2050 O.co2 120  ASP120     -0.2456
    130  N         10.8720   -9.1930  -10.3760 N.3   123  TRP123     -0.1241
    131  CA        10.1160   -8.9140   -9.1340 C.3   123  TRP123      0.1605
    132  C          9.6790  -10.1610   -8.3710 C.2   123  TRP123      0.2264
    133  O          9.4330  -10.0820   -7.1400 O.2   123  TRP123     -0.2867
    134  CB         8.9140   -7.9710   -9.3740 C.3   123  TRP123      0.0550
    135  CG         7.8800   -8.4630  -10.3480 C.ar  123  TRP123      0.0003
    136  CD1        7.8120   -8.1630  -11.6860 C.ar  123  TRP123      0.0946
    137  CD2        6.7640   -9.3210  -10.0750 C.ar  123  TRP123      0.0152
    138  NE1        6.7380   -8.7720  -12.2470 N.ar  123  TRP123     -0.2442
    139  CE2        6.0960   -9.5240  -11.3010 C.ar  123  TRP123      0.0810
    140  CE3        6.2980   -9.9900   -8.9240 C.ar  123  TRP123      0.0012
    141  CZ2        4.9720  -10.3260  -11.4120 C.ar  123  TRP123      0.0191
    142  CZ3        5.1830  -10.7850   -9.0280 C.ar  123  TRP123      0.0001
    143  CH2        4.5200  -10.9540  -10.2880 C.ar  123  TRP123      0.0015
    144  N          7.7780   -1.7000  -22.2880 N.3   139  PHE139     -0.1241
    145  CA         7.8450   -2.8170  -23.2190 C.3   139  PHE139      0.1605
    146  C          7.6670   -2.3140  -24.6780 C.2   139  PHE139      0.2264
    147  O          6.8460   -1.4110  -24.9540 O.2   139  PHE139     -0.2867
    148  CB         6.7180   -3.8020  -22.9410 C.3   139  PHE139      0.0534
    149  CG         7.0460   -4.9280  -21.9950 C.ar  139  PHE139     -0.0203
    150  CD1        6.8950   -4.7740  -20.6160 C.ar  139  PHE139     -0.0042
    151  CD2        7.3730   -6.2020  -22.4810 C.ar  139  PHE139     -0.0042
    152  CE1        7.1180   -5.8390  -19.7310 C.ar  139  PHE139     -0.0003
    153  CE2        7.6460   -7.2660  -21.5990 C.ar  139  PHE139     -0.0003
    154  CZ         7.4940   -7.0830  -20.2070 C.ar  139  PHE139     -0.0000
@<TRIPOS>BOND
     1    77    76    2
     2    76    75    1
     3   147   146    2
     4   146   145    1
     5    36    34   ar
     6    36    38   ar
     7    34    33   ar
     8    78    75    1
     9    78    79    1
    10    28    29    1
    11    75    74    1
    12    80    79   ar
    13    80    82   ar
    14    29    32    1
    15    29    30    1
    16    79    81   ar
    17    38    37   ar
    18    33    32    1
    19    33    35   ar
    20   145   148    1
    21   145   144    1
    22    82    84   ar
    23   148   149    1
    24    30    31    2
    25   151   149   ar
    26   151   153   ar
    27   113   112   ar
    28   113   111   ar
    29    81    83   ar
    30    37    35   ar
    31   149   150   ar
    32   112   110   ar
    33    84    83   ar
    34   153   154   ar
    35   111   109   ar
    36   110   107   ar
    37   150   152   ar
    38   109   107   ar
    39   109   108   ar
    40   154   152   ar
    41   107   105   ar
    42   108   106   ar
    43    91    90    1
    44    91    92    1
    45    12    11    1
    46   105   106   ar
    47   105   104    1
    48    90    89    1
    49   101   100    1
    50   101   104    1
    51   101   102    1
    52    66    65    2
    53    65    64    1
    54   102   103    2
    55    11    10   ar
    56    11     9   ar
    57    67    64    1
    58    67    68    1
    59    85    86    1
    60    10     8   ar
    61    89    86    1
    62    64    63    1
    63    69    68   ar
    64    69    71   ar
    65     9     7   ar
    66   114   115    1
    67   120   119   ar
    68    68    70   ar
    69    86    87    1
    70    71    73   ar
    71     8     6   ar
    72    46    44   am
    73    70    72   ar
    74   119   118    1
    75   119   121   ar
    76   115   118    1
    77   115   116    1
    78     7     6   ar
    79    43    44    1
    80    43    40    1
    81    73    72   ar
    82    39    40    1
    83    87    88    2
    84     6     5    1
    85    44    45    2
    86    52    53    1
    87    52    51    1
    88    40    41    1
    89   122   116   am
    90   122   123    1
    91   116   117    2
    92    50    49    2
    93   128   127   ar
    94    53    54    2
    95   127   129   ar
    96   127   126    1
    97    99    97    1
    98     5     2    1
    99   126   123    1
   100    51    49   am
   101    49    48    1
   102   123   124    1
   103    41    42    2
   104   124   125    2
   105     2     1    1
   106     2     3    1
   107    61    59    1
   108    97    98    1
   109    97    94    1
   110    47    48    1
   111    58    57    2
   112    26    25    1
   113   138   136   ar
   114   138   139   ar
   115    93    94    1
   116    57    56    1
   117    16    15    2
   118    94    95    1
   119    59    56    1
   120    59    60    1
   121   136   135   ar
   122     3    13   am
   123     3     4    2
   124    27    25    1
   125    13    14    1
   126   141   139   ar
   127   141   143   ar
   128   139   137   ar
   129    62    60    1
   130    56    55    1
   131    25    24    1
   132    15    14    1
   133    15    20   am
   134    24    21    1
   135    18    17    1
   136   130   131    1
   137   135   137   ar
   138   135   134    1
   139   143   142   ar
   140    14    17    1
   141    95    96    2
   142   137   140   ar
   143    21    20    1
   144    21    22    1
   145    17    19    1
   146   134   131    1
   147   131   132    1
   148   142   140   ar
   149    22    23    2
   150   132   133    2
