@<TRIPOS>MOLECULE
tmp/6f22A00.pdb
 167 162 0 0 0
SMALL
GASTEIGER

@<TRIPOS>ATOM
      1  N         -5.4440   -2.7900  -12.8210 N.3     8  TYR8       -0.1227
      2  CA        -5.4450   -4.2350  -12.9270 C.3     8  TYR8        0.1736
      3  C         -5.0480   -4.8120  -11.5920 C.2     8  TYR8        0.2596
      4  O         -4.4300   -4.1360  -10.7610 O.2     8  TYR8       -0.2718
      5  CB        -4.4160   -4.7330  -13.9400 C.3     8  TYR8        0.0548
      6  CG        -4.6910   -4.4670  -15.4010 C.ar    8  TYR8       -0.0200
      7  CD1       -4.5950   -3.1800  -15.9240 C.ar    8  TYR8       -0.0009
      8  CD2       -4.9950   -5.5150  -16.2710 C.ar    8  TYR8       -0.0009
      9  CE1       -4.8120   -2.9360  -17.2700 C.ar    8  TYR8        0.0417
     10  CE2       -5.2000   -5.2870  -17.6190 C.ar    8  TYR8        0.0417
     11  CZ        -5.1180   -3.9980  -18.1090 C.ar    8  TYR8        0.1957
     12  OH        -5.3300   -3.7660  -19.4360 O.3     8  TYR8       -0.2866
     13  N         -5.3850   -6.0860  -11.4270 N.am    9  THR9       -0.1939
     14  CA        -4.9620   -6.8870  -10.2800 C.3     9  THR9        0.2028
     15  C         -4.1600   -8.0790  -10.7210 C.2     9  THR9        0.2642
     16  O         -4.3580   -8.6040  -11.8120 O.2     9  THR9       -0.2714
     17  CB        -6.1650   -7.3900   -9.4720 C.3     9  THR9        0.1808
     18  OG1       -7.0000   -8.2120  -10.2950 O.3     9  THR9       -0.2208
     19  CG2       -6.9510   -6.2270   -8.9450 C.3     9  THR9        0.0379
     20  N         -3.2860   -8.5240   -9.8310 N.am   10  LEU10      -0.1977
     21  CA        -2.4910   -9.7180  -10.0460 C.3    10  LEU10       0.1596
     22  C         -2.3690  -10.4030   -8.7010 C.2    10  LEU10       0.2287
     23  O         -1.9830   -9.7770   -7.7210 O.2    10  LEU10      -0.2864
     24  CB        -1.1340   -9.3230  -10.5910 C.3    10  LEU10       0.0297
     25  CG        -0.2080  -10.4250  -11.0620 C.3    10  LEU10       0.0022
     26  CD1       -0.8400  -11.1860  -12.2090 C.3    10  LEU10       0.0001
     27  CD2        1.1110   -9.8100  -11.4950 C.3    10  LEU10       0.0001
     28  N         -2.4080  -18.4130  -19.4380 N.3    24  LYS24      -0.1245
     29  CA        -3.4260  -17.5420  -20.0340 C.3    24  LYS24       0.1561
     30  C         -3.8090  -18.0890  -21.4040 C.2    24  LYS24       0.2260
     31  O         -2.9550  -18.3050  -22.2620 O.2    24  LYS24      -0.2867
     32  CB        -2.9300  -16.1010  -20.1360 C.3    24  LYS24       0.0271
     33  CG        -4.0270  -15.1090  -20.4770 C.3    24  LYS24       0.0035
     34  CD        -3.6510  -13.6860  -20.0790 C.3    24  LYS24       0.0206
     35  CE        -4.8730  -12.7980  -19.8950 C.3    24  LYS24       0.1093
     36  NZ        -5.3540  -12.3090  -21.2110 N.3    24  LYS24      -0.1314
     37  N         -4.6790  -10.7830  -24.4480 N.3    28  PHE28      -0.1241
     38  CA        -3.3270  -10.2420  -24.4360 C.3    28  PHE28       0.1605
     39  C         -2.4490  -11.0420  -23.4700 C.2    28  PHE28       0.2264
     40  O         -2.8490  -11.2750  -22.3260 O.2    28  PHE28      -0.2867
     41  CB        -3.3820   -8.7730  -24.0270 C.3    28  PHE28       0.0534
     42  CG        -2.0690   -8.0630  -24.1400 C.ar   28  PHE28      -0.0203
     43  CD1       -1.4100   -7.9650  -25.3510 C.ar   28  PHE28      -0.0042
     44  CD2       -1.4980   -7.4800  -23.0290 C.ar   28  PHE28      -0.0042
     45  CE1       -0.1980   -7.2990  -25.4430 C.ar   28  PHE28      -0.0003
     46  CE2       -0.2850   -6.8090  -23.1070 C.ar   28  PHE28      -0.0003
     47  CZ         0.3680   -6.7240  -24.3200 C.ar   28  PHE28      -0.0000
     48  N          1.0300  -16.7390  -15.6680 N.3    34  ASN34      -0.1225
     49  CA         0.9950  -15.5360  -14.8440 C.3    34  ASN34       0.1785
     50  C          0.1220  -15.7300  -13.6300 C.2    34  ASN34       0.2597
     51  O         -0.5800  -16.7360  -13.4940 O.2    34  ASN34      -0.2718
     52  CB         0.5970  -14.2850  -15.6580 C.3    34  ASN34       0.1169
     53  CG        -0.6740  -14.4600  -16.4660 C.2    34  ASN34       0.2627
     54  OD1       -1.7750  -14.5210  -15.9230 O.2    34  ASN34      -0.2716
     55  ND2       -0.5340  -14.4750  -17.7650 N.am   34  ASN34      -0.0877
     56  N          0.2000  -14.7880  -12.7040 N.am   35  GLY35      -0.1957
     57  CA        -0.7290  -14.7800  -11.5880 C.3    35  GLY35       0.1869
     58  C         -2.1370  -14.5080  -12.0910 C.2    35  GLY35       0.2309
     59  O         -2.3490  -14.1770  -13.2600 O.2    35  GLY35      -0.2863
     60  N         -5.7780  -12.5500  -12.3070 N.3    37  GLY37      -0.1210
     61  CA        -6.2380  -11.1890  -12.2150 C.3    37  GLY37       0.1956
     62  C         -6.6850  -10.6670  -13.5430 C.2    37  GLY37       0.2612
     63  O         -6.9250  -11.4210  -14.4930 O.2    37  GLY37      -0.2717
     64  N         -6.7980   -9.3540  -13.6180 N.am   38  GLY38      -0.1956
     65  CA        -7.3000   -8.7170  -14.8110 C.3    38  GLY38       0.1869
     66  C         -7.7230   -7.3010  -14.4950 C.2    38  GLY38       0.2309
     67  O         -7.3560   -6.7310  -13.4710 O.2    38  GLY38      -0.2863
     68  N          3.0460   -0.5280  -16.0780 N.3    73  PHE73      -0.1241
     69  CA         3.5330   -0.9150  -17.3920 C.3    73  PHE73       0.1605
     70  C          3.2150    0.1410  -18.4340 C.2    73  PHE73       0.2264
     71  O          2.0920    0.6520  -18.4740 O.2    73  PHE73      -0.2867
     72  CB         2.9270   -2.2350  -17.8410 C.3    73  PHE73       0.0534
     73  CG         3.3220   -3.3920  -16.9900 C.ar   73  PHE73      -0.0203
     74  CD1        4.6110   -3.8980  -17.0310 C.ar   73  PHE73      -0.0042
     75  CD2        2.4000   -3.9900  -16.1630 C.ar   73  PHE73      -0.0042
     76  CE1        4.9740   -4.9790  -16.2370 C.ar   73  PHE73      -0.0003
     77  CE2        2.7520   -5.0760  -15.3810 C.ar   73  PHE73      -0.0003
     78  CZ         4.0440   -5.5620  -15.4100 C.ar   73  PHE73      -0.0000
     79  N          3.3590    0.1560  -22.5630 N.3    75  PHE75      -0.1241
     80  CA         3.5910   -0.5340  -23.8270 C.3    75  PHE75       0.1605
     81  C          3.7080    0.5380  -24.9050 C.2    75  PHE75       0.2264
     82  O          2.7960    1.3610  -25.0750 O.2    75  PHE75      -0.2867
     83  CB         2.4590   -1.5210  -24.1070 C.3    75  PHE75       0.0534
     84  CG         2.5280   -2.7260  -23.2390 C.ar   75  PHE75      -0.0203
     85  CD1        3.3030   -3.8190  -23.6210 C.ar   75  PHE75      -0.0042
     86  CD2        1.8910   -2.7510  -22.0050 C.ar   75  PHE75      -0.0042
     87  CE1        3.4260   -4.9260  -22.7930 C.ar   75  PHE75      -0.0003
     88  CE2        2.0100   -3.8670  -21.1740 C.ar   75  PHE75      -0.0003
     89  CZ         2.7820   -4.9410  -21.5720 C.ar   75  PHE75      -0.0000
     90  N         -0.7190    0.6820  -17.6780 N.3    82  MET82      -0.1245
     91  CA        -1.3390   -0.3100  -16.8220 C.3    82  MET82       0.1570
     92  C         -0.8470   -0.1020  -15.3950 C.2    82  MET82       0.2261
     93  O          0.3570   -0.0860  -15.1540 O.2    82  MET82      -0.2867
     94  CB        -0.9600   -1.7080  -17.2510 C.3    82  MET82       0.0387
     95  CG        -1.3890   -2.0830  -18.6340 C.3    82  MET82       0.0595
     96  SD        -1.0210   -3.8230  -18.9690 S.3    82  MET82      -0.1393
     97  CE        -1.7110   -4.6300  -17.5340 C.3    82  MET82       0.0692
     98  N         -0.9010   -1.9920  -12.1320 N.3    84  VAL84      -0.1245
     99  CA        -1.1610   -3.3290  -11.6090 C.3    84  VAL84       0.1561
    100  C         -0.9030   -3.4160  -10.1080 C.2    84  VAL84       0.2260
    101  O          0.2220   -3.1870   -9.6530 O.2    84  VAL84      -0.2867
    102  CB        -0.3100   -4.3940  -12.3290 C.3    84  VAL84       0.0252
    103  CG1       -0.7390   -5.7890  -11.8830 C.3    84  VAL84       0.0019
    104  CG2       -0.4110   -4.2320  -13.8440 C.3    84  VAL84       0.0019
    105  N         -7.9460  -19.2450  -17.9160 N.3   102  MET102     -0.1245
    106  CA        -6.7070  -19.6930  -17.2830 C.3   102  MET102      0.1570
    107  C         -6.7170  -21.1930  -16.9970 C.2   102  MET102      0.2261
    108  O         -7.7420  -21.7360  -16.5720 O.2   102  MET102     -0.2867
    109  CB        -6.5180  -18.9520  -15.9590 C.3   102  MET102      0.0387
    110  CG        -6.3110  -17.4440  -16.1060 C.3   102  MET102      0.0595
    111  SD        -4.6220  -17.0940  -16.5750 S.3   102  MET102     -0.1393
    112  CE        -3.9460  -16.6750  -14.9800 C.3   102  MET102      0.0692
    113  N          6.0400  -13.5510  -18.3870 N.3   118  TRP118     -0.1241
    114  CA         6.4230  -12.2060  -18.7750 C.3   118  TRP118      0.1605
    115  C          7.8340  -11.9240  -18.2600 C.2   118  TRP118      0.2264
    116  O          8.1790  -12.3300  -17.1680 O.2   118  TRP118     -0.2867
    117  CB         5.4370  -11.1750  -18.2300 C.3   118  TRP118      0.0550
    118  CG         4.1950  -11.0970  -19.0000 C.ar  118  TRP118      0.0003
    119  CD1        3.0690  -11.8720  -18.8640 C.ar  118  TRP118      0.0946
    120  CD2        3.9330  -10.1930  -20.0670 C.ar  118  TRP118      0.0152
    121  NE1        2.1260  -11.5010  -19.7770 N.ar  118  TRP118     -0.2442
    122  CE2        2.6270  -10.4610  -20.5270 C.ar  118  TRP118      0.0810
    123  CE3        4.6790   -9.1830  -20.6790 C.ar  118  TRP118      0.0012
    124  CZ2        2.0570   -9.7570  -21.5710 C.ar  118  TRP118      0.0191
    125  CZ3        4.1080   -8.4850  -21.7250 C.ar  118  TRP118      0.0001
    126  CH2        2.8120   -8.7640  -22.1480 C.ar  118  TRP118      0.0015
    127  N          9.2810   -9.3260  -17.0690 N.3   120  ASP120     -0.1225
    128  CA         9.3730   -8.5430  -15.8250 C.3   120  ASP120      0.1805
    129  C          9.2850   -9.4170  -14.5690 C.2   120  ASP120      0.2597
    130  O          9.8770   -9.0780  -13.5530 O.2   120  ASP120     -0.2718
    131  CB         8.3260   -7.4330  -15.7590 C.3   120  ASP120      0.1424
    132  CG         6.9340   -7.9430  -15.9640 C.2   120  ASP120      0.3668
    133  OD1        6.6320   -8.3450  -17.1180 O.co2 120  ASP120     -0.2456
    134  OD2        6.1660   -7.9490  -14.9820 O.co2 120  ASP120     -0.2456
    135  N          8.5670  -10.5350  -14.6490 N.am  121  ASP121     -0.1974
    136  CA         8.3750  -11.4170  -13.4980 C.3   121  ASP121      0.1709
    137  C          9.7040  -11.9120  -12.9260 C.2   121  ASP121      0.2293
    138  O          9.8310  -12.1170  -11.7240 O.2   121  ASP121     -0.2864
    139  CB         7.5090  -12.6360  -13.8710 C.3   121  ASP121      0.1436
    140  CG         6.0850  -12.2720  -14.1710 C.2   121  ASP121      0.3671
    141  OD1        5.8350  -11.1200  -14.6000 O.co2 121  ASP121     -0.2456
    142  OD2        5.2170  -13.1500  -14.0170 O.co2 121  ASP121     -0.2456
    143  N         10.6590   -9.0860  -10.3440 N.3   124  TRP124     -0.1241
    144  CA         9.8880   -8.8540   -9.0980 C.3   124  TRP124      0.1605
    145  C          9.4380  -10.1030   -8.3550 C.2   124  TRP124      0.2264
    146  O          9.2030  -10.0360   -7.1580 O.2   124  TRP124     -0.2867
    147  CB         8.7020   -7.9150   -9.3300 C.3   124  TRP124      0.0550
    148  CG         7.7130   -8.3760  -10.3470 C.ar  124  TRP124      0.0003
    149  CD1        7.6650   -8.0030  -11.6540 C.ar  124  TRP124      0.0946
    150  CD2        6.6110   -9.2660  -10.1440 C.ar  124  TRP124      0.0152
    151  NE1        6.5890   -8.5990  -12.2860 N.ar  124  TRP124     -0.2442
    152  CE2        5.9430   -9.3960  -11.3850 C.ar  124  TRP124      0.0810
    153  CE3        6.1300   -9.9840   -9.0410 C.ar  124  TRP124      0.0012
    154  CZ2        4.8340  -10.2080  -11.5530 C.ar  124  TRP124      0.0191
    155  CZ3        5.0210  -10.7810   -9.2140 C.ar  124  TRP124      0.0001
    156  CH2        4.3900  -10.8930  -10.4630 C.ar  124  TRP124      0.0015
    157  N          7.7810   -1.6000  -22.0530 N.3   140  PHE140     -0.1241
    158  CA         7.8670   -2.6830  -23.0390 C.3   140  PHE140      0.1605
    159  C          7.7540   -2.1530  -24.4640 C.2   140  PHE140      0.2264
    160  O          6.9420   -1.2710  -24.7360 O.2   140  PHE140     -0.2867
    161  CB         6.7270   -3.6640  -22.8310 C.3   140  PHE140      0.0534
    162  CG         7.0040   -4.7330  -21.8130 C.ar  140  PHE140     -0.0203
    163  CD1        6.7920   -4.5000  -20.4660 C.ar  140  PHE140     -0.0042
    164  CD2        7.4540   -5.9810  -22.2170 C.ar  140  PHE140     -0.0042
    165  CE1        7.0310   -5.5010  -19.5230 C.ar  140  PHE140     -0.0003
    166  CE2        7.6750   -6.9970  -21.2840 C.ar  140  PHE140     -0.0003
    167  CZ         7.4740   -6.7500  -19.9360 C.ar  140  PHE140     -0.0000
@<TRIPOS>BOND
     1    45    43   ar
     2    45    47   ar
     3    43    42   ar
     4    82    81    2
     5    81    80    1
     6   160   159    2
     7   159   158    1
     8    37    38    1
     9    38    41    1
    10    38    39    1
    11    47    46   ar
    12    42    41    1
    13    42    44   ar
    14    83    80    1
    15    83    84    1
    16    80    79    1
    17    85    84   ar
    18    85    87   ar
    19    39    40    2
    20    84    86   ar
    21    46    44   ar
    22   158   161    1
    23   158   157    1
    24   161   162    1
    25    87    89   ar
    26    31    30    2
    27   164   162   ar
    28   164   166   ar
    29   126   125   ar
    30   126   124   ar
    31    86    88   ar
    32   162   163   ar
    33   125   123   ar
    34    89    88   ar
    35   124   122   ar
    36    30    29    1
    37   166   167   ar
    38    36    35    1
    39   123   120   ar
    40   122   120   ar
    41   122   121   ar
    42    33    32    1
    43    33    34    1
    44   163   165   ar
    45    32    29    1
    46    34    35    1
    47   120   118   ar
    48    29    28    1
    49   167   165   ar
    50   121   119   ar
    51    12    11    1
    52   118   119   ar
    53   118   117    1
    54    96    95    1
    55    96    97    1
    56   114   113    1
    57   114   115    1
    58   114   117    1
    59    95    94    1
    60    71    70    2
    61    70    69    1
    62   115   116    2
    63    11    10   ar
    64    11     9   ar
    65   105   106    1
    66    72    69    1
    67    72    73    1
    68    55    53   am
    69    90    91    1
    70    10     8   ar
    71    69    68    1
    72   106   107    1
    73   106   109    1
    74     9     7   ar
    75    94    91    1
    76   133   132   ar
    77   127   128    1
    78    74    73   ar
    79    74    76   ar
    80   107   108    2
    81    73    75   ar
    82    91    92    1
    83   111   110    1
    84   111   112    1
    85    53    54    2
    86    53    52    1
    87     8     6   ar
    88    76    78   ar
    89    75    77   ar
    90   110   109    1
    91   132   131    1
    92   132   134   ar
    93     7     6   ar
    94   128   131    1
    95   128   129    1
    96    48    49    1
    97    52    49    1
    98    78    77   ar
    99     6     5    1
   100    92    93    2
   101    49    50    1
   102    65    66    1
   103    65    64    1
   104   135   129   am
   105   135   136    1
   106   141   140   ar
   107   129   130    2
   108    66    67    2
   109    63    62    2
   110   140   142   ar
   111   140   139    1
   112     5     2    1
   113   139   136    1
   114   104   102    1
   115    50    51    2
   116    50    56   am
   117    64    62   am
   118    62    61    1
   119   136   137    1
   120    59    58    2
   121     2     1    1
   122     2     3    1
   123   137   138    2
   124    56    57    1
   125   102   103    1
   126   102    99    1
   127    60    61    1
   128   151   149   ar
   129   151   152   ar
   130    26    25    1
   131    98    99    1
   132    58    57    1
   133    16    15    2
   134   149   148   ar
   135    99   100    1
   136     3    13   am
   137     3     4    2
   138   154   152   ar
   139   154   156   ar
   140    27    25    1
   141    13    14    1
   142   152   150   ar
   143    25    24    1
   144    15    14    1
   145    15    20   am
   146    24    21    1
   147   156   155   ar
   148   148   150   ar
   149   148   147    1
   150   143   144    1
   151    18    17    1
   152    14    17    1
   153   150   153   ar
   154   100   101    2
   155    21    20    1
   156    21    22    1
   157    17    19    1
   158   147   144    1
   159   155   153   ar
   160   144   145    1
   161    22    23    2
   162   145   146    2
