@<TRIPOS>MOLECULE
tmp/6f23A00.pdb
 163 159 0 0 0
SMALL
GASTEIGER

@<TRIPOS>ATOM
      1  N         -5.6040   -2.8660  -12.7870 N.3    10  TYR10      -0.1227
      2  CA        -5.5560   -4.3080  -12.9310 C.3    10  TYR10       0.1736
      3  C         -5.1680   -4.9160  -11.6050 C.2    10  TYR10       0.2596
      4  O         -4.5510   -4.2500  -10.7500 O.2    10  TYR10      -0.2718
      5  CB        -4.5060   -4.7770  -13.9680 C.3    10  TYR10       0.0548
      6  CG        -4.7860   -4.4240  -15.3900 C.ar   10  TYR10      -0.0200
      7  CD1       -4.5630   -3.1440  -15.8600 C.ar   10  TYR10      -0.0009
      8  CD2       -5.2890   -5.3960  -16.2820 C.ar   10  TYR10      -0.0009
      9  CE1       -4.8340   -2.8100  -17.1710 C.ar   10  TYR10       0.0417
     10  CE2       -5.5680   -5.0820  -17.5950 C.ar   10  TYR10       0.0417
     11  CZ        -5.3430   -3.7990  -18.0290 C.ar   10  TYR10       0.1957
     12  OH        -5.5870   -3.4980  -19.3190 O.3    10  TYR10      -0.2866
     13  N         -5.5170   -6.1850  -11.4550 N.am   11  THR11      -0.1939
     14  CA        -5.1380   -7.0060  -10.3090 C.3    11  THR11       0.2028
     15  C         -4.3460   -8.1890  -10.7640 C.2    11  THR11       0.2642
     16  O         -4.5170   -8.6450  -11.8820 O.2    11  THR11      -0.2714
     17  CB        -6.3360   -7.5490   -9.5330 C.3    11  THR11       0.1808
     18  OG1       -7.2600   -8.2230  -10.4180 O.3    11  THR11      -0.2208
     19  CG2       -7.0150   -6.3760   -8.8320 C.3    11  THR11       0.0379
     20  N         -3.5090   -8.6950   -9.8570 N.am   12  LEU12      -0.1977
     21  CA        -2.7180   -9.8950  -10.0730 C.3    12  LEU12       0.1596
     22  C         -2.5350  -10.6160   -8.7360 C.2    12  LEU12       0.2287
     23  O         -2.0790  -10.0100   -7.7720 O.2    12  LEU12      -0.2864
     24  CB        -1.3570   -9.4870  -10.6600 C.3    12  LEU12       0.0297
     25  CG        -0.5190  -10.5860  -11.2980 C.3    12  LEU12       0.0022
     26  CD1       -1.2220  -11.3510  -12.4120 C.3    12  LEU12       0.0001
     27  CD2        0.7260   -9.9010  -11.8540 C.3    12  LEU12       0.0001
     28  N         -2.4520  -18.6100  -19.4750 N.3    26  LYS26      -0.1245
     29  CA        -3.4030  -17.7300  -20.1590 C.3    26  LYS26       0.1561
     30  C         -3.7430  -18.3010  -21.5460 C.2    26  LYS26       0.2260
     31  O         -2.8700  -18.5460  -22.4100 O.2    26  LYS26      -0.2867
     32  CB        -2.8800  -16.2780  -20.2300 C.3    26  LYS26       0.0271
     33  CG        -3.9270  -15.2770  -20.7520 C.3    26  LYS26       0.0035
     34  CD        -3.5090  -13.8440  -20.4400 C.3    26  LYS26       0.0206
     35  CE        -4.3150  -12.8220  -21.2430 C.3    26  LYS26       0.1093
     36  NZ        -5.7720  -12.9440  -21.0480 N.3    26  LYS26      -0.1314
     37  N         -4.3770  -11.0130  -24.9610 N.3    30  PHE30      -0.1227
     38  CA        -3.0320  -10.4460  -24.9250 C.3    30  PHE30       0.1736
     39  C         -2.2600  -11.1700  -23.8530 C.2    30  PHE30       0.2596
     40  O         -2.6230  -11.1390  -22.7140 O.2    30  PHE30      -0.2718
     41  CB        -3.0600   -8.9310  -24.6540 C.3    30  PHE30       0.0547
     42  CG        -1.7120   -8.2750  -24.7640 C.ar   30  PHE30      -0.0202
     43  CD1       -1.0040   -8.3210  -25.9490 C.ar   30  PHE30      -0.0042
     44  CD2       -1.1380   -7.6310  -23.6720 C.ar   30  PHE30      -0.0042
     45  CE1        0.2420   -7.7110  -26.0690 C.ar   30  PHE30      -0.0003
     46  CE2        0.0970   -7.0120  -23.7780 C.ar   30  PHE30      -0.0003
     47  CZ         0.7960   -7.0600  -24.9720 C.ar   30  PHE30      -0.0000
     48  N         -1.2030  -11.8480  -24.2500 N.am   31  GLY31      -0.1957
     49  CA        -0.4290  -12.6680  -23.3340 C.3    31  GLY31       0.1869
     50  C         -0.8100  -14.1460  -23.2420 C.2    31  GLY31       0.2309
     51  O         -0.3120  -14.8460  -22.3670 O.2    31  GLY31      -0.2863
     52  N          0.8900  -16.8070  -15.6910 N.3    36  ASN36      -0.1225
     53  CA         0.8630  -15.6300  -14.8270 C.3    36  ASN36       0.1785
     54  C         -0.0780  -15.8620  -13.6710 C.2    36  ASN36       0.2597
     55  O         -0.8160  -16.8510  -13.6670 O.2    36  ASN36      -0.2718
     56  CB         0.4710  -14.3410  -15.6170 C.3    36  ASN36       0.1169
     57  CG        -0.7600  -14.5040  -16.5060 C.2    36  ASN36       0.2627
     58  OD1       -0.6520  -14.5730  -17.7450 O.2    36  ASN36      -0.2716
     59  ND2       -1.9480  -14.4950  -15.8970 N.am   36  ASN36      -0.0877
     60  N         -0.0520  -14.9440  -12.7060 N.am   37  GLY37      -0.1957
     61  CA        -1.0070  -14.9490  -11.6070 C.3    37  GLY37       0.1869
     62  C         -2.4140  -14.6870  -12.1230 C.2    37  GLY37       0.2309
     63  O         -2.5870  -14.4190  -13.3120 O.2    37  GLY37      -0.2863
     64  N         -5.9060  -12.6510  -12.4950 N.3    39  GLY39      -0.1210
     65  CA        -6.3380  -11.2640  -12.4540 C.3    39  GLY39       0.1956
     66  C         -6.8290  -10.7240  -13.7780 C.2    39  GLY39       0.2612
     67  O         -7.0900  -11.4750  -14.7120 O.2    39  GLY39      -0.2717
     68  N         -6.8840   -9.4030  -13.8540 N.am   40  GLY40      -0.1956
     69  CA        -7.4840   -8.6850  -14.9620 C.3    40  GLY40       0.1869
     70  C         -7.9320   -7.2900  -14.5440 C.2    40  GLY40       0.2309
     71  O         -7.5130   -6.7440  -13.5080 O.2    40  GLY40      -0.2863
     72  N          2.8810   -0.6480  -16.1540 N.3    75  PHE75      -0.1241
     73  CA         3.3830   -1.0560  -17.4720 C.3    75  PHE75       0.1605
     74  C          3.0570    0.0080  -18.5240 C.2    75  PHE75       0.2264
     75  O          1.9550    0.5250  -18.5730 O.2    75  PHE75      -0.2867
     76  CB         2.8360   -2.4190  -17.9360 C.3    75  PHE75       0.0534
     77  CG         3.2270   -3.5970  -17.0630 C.ar   75  PHE75      -0.0203
     78  CD1        4.5330   -4.0980  -17.0830 C.ar   75  PHE75      -0.0042
     79  CD2        2.2850   -4.2540  -16.2860 C.ar   75  PHE75      -0.0042
     80  CE1        4.8950   -5.1940  -16.3100 C.ar   75  PHE75      -0.0003
     81  CE2        2.6310   -5.3480  -15.5080 C.ar   75  PHE75      -0.0003
     82  CZ         3.9540   -5.8170  -15.5080 C.ar   75  PHE75      -0.0000
     83  N          3.3210    0.1380  -22.7270 N.3    77  PHE77      -0.1241
     84  CA         3.5990   -0.5130  -23.9990 C.3    77  PHE77       0.1605
     85  C          3.7640    0.5840  -25.0390 C.2    77  PHE77       0.2264
     86  O          2.9000    1.4900  -25.1750 O.2    77  PHE77      -0.2867
     87  CB         2.4810   -1.5370  -24.3540 C.3    77  PHE77       0.0534
     88  CG         2.5550   -2.7900  -23.5300 C.ar   77  PHE77      -0.0203
     89  CD1        1.9060   -2.8710  -22.3110 C.ar   77  PHE77      -0.0042
     90  CD2        3.2760   -3.8790  -23.9600 C.ar   77  PHE77      -0.0042
     91  CE1        2.0150   -3.9980  -21.5090 C.ar   77  PHE77      -0.0003
     92  CE2        3.3960   -5.0230  -23.1640 C.ar   77  PHE77      -0.0003
     93  CZ         2.7440   -5.0940  -21.9400 C.ar   77  PHE77      -0.0000
     94  N         -0.8540    0.5580  -17.7650 N.3    84  MET84      -0.1245
     95  CA        -1.4470   -0.4640  -16.9190 C.3    84  MET84       0.1570
     96  C         -0.9630   -0.2290  -15.4970 C.2    84  MET84       0.2261
     97  O          0.2410   -0.1150  -15.2750 O.2    84  MET84      -0.2867
     98  CB        -1.0820   -1.8870  -17.3490 C.3    84  MET84       0.0387
     99  CG        -1.4240   -2.2660  -18.7620 C.3    84  MET84       0.0595
    100  SD        -0.9620   -3.9960  -19.0870 S.3    84  MET84      -0.1393
    101  CE        -1.9710   -4.9520  -17.9420 C.3    84  MET84       0.0692
    102  N         -1.0390   -2.0680  -12.2000 N.3    86  VAL86      -0.1245
    103  CA        -1.2800   -3.3940  -11.6770 C.3    86  VAL86       0.1561
    104  C         -1.0400   -3.4920  -10.1980 C.2    86  VAL86       0.2260
    105  O          0.0900   -3.2560   -9.7290 O.2    86  VAL86      -0.2867
    106  CB        -0.4210   -4.4790  -12.3840 C.3    86  VAL86       0.0252
    107  CG1       -0.9440   -5.8960  -12.0690 C.3    86  VAL86       0.0019
    108  CG2       -0.4420   -4.2520  -13.8810 C.3    86  VAL86       0.0019
    109  N          6.0400  -13.6050  -18.3470 N.3   120  TRP120     -0.1241
    110  CA         6.4010  -12.2710  -18.7870 C.3   120  TRP120      0.1605
    111  C          7.8450  -11.9630  -18.3270 C.2   120  TRP120      0.2264
    112  O          8.2210  -12.3570  -17.2470 O.2   120  TRP120     -0.2867
    113  CB         5.4060  -11.2270  -18.2660 C.3   120  TRP120      0.0550
    114  CG         4.1760  -11.1880  -19.0860 C.ar  120  TRP120      0.0003
    115  CD1        3.0470  -11.9430  -18.9230 C.ar  120  TRP120      0.0946
    116  CD2        3.9510  -10.3620  -20.2220 C.ar  120  TRP120      0.0152
    117  NE1        2.1320  -11.6450  -19.9040 N.ar  120  TRP120     -0.2442
    118  CE2        2.6560  -10.6550  -20.7030 C.ar  120  TRP120      0.0810
    119  CE3        4.7110   -9.3850  -20.8780 C.ar  120  TRP120      0.0012
    120  CZ2        2.1170  -10.0070  -21.8280 C.ar  120  TRP120      0.0191
    121  CZ3        4.1870   -8.7530  -21.9820 C.ar  120  TRP120      0.0001
    122  CH2        2.9020   -9.0660  -22.4510 C.ar  120  TRP120      0.0015
    123  N          9.3130   -9.3300  -17.2090 N.3   122  ASP122     -0.1225
    124  CA         9.3620   -8.5730  -15.9530 C.3   122  ASP122      0.1805
    125  C          9.2590   -9.4220  -14.6940 C.2   122  ASP122      0.2597
    126  O          9.8430   -9.0510  -13.6670 O.2   122  ASP122     -0.2718
    127  CB         8.3170   -7.4710  -15.9130 C.3   122  ASP122      0.1424
    128  CG         6.9190   -8.0000  -16.1130 C.2   122  ASP122      0.3668
    129  OD1        6.6560   -8.3960  -17.2630 O.co2 122  ASP122     -0.2456
    130  OD2        6.1320   -8.0430  -15.1360 O.co2 122  ASP122     -0.2456
    131  N          8.5580  -10.5700  -14.7640 N.am  123  ASP123     -0.1974
    132  CA         8.4330  -11.4620  -13.5880 C.3   123  ASP123      0.1709
    133  C          9.7830  -11.9490  -13.0610 C.2   123  ASP123      0.2293
    134  O          9.9240  -12.1460  -11.8620 O.2   123  ASP123     -0.2864
    135  CB         7.5690  -12.6910  -13.8800 C.3   123  ASP123      0.1436
    136  CG         6.1350  -12.3610  -14.0400 C.2   123  ASP123      0.3671
    137  OD1        5.8210  -11.3140  -14.6260 O.co2 123  ASP123     -0.2456
    138  OD2        5.2940  -13.1370  -13.5730 O.co2 123  ASP123     -0.2456
    139  N         10.6890   -9.0560  -10.4420 N.3   126  TRP126     -0.1241
    140  CA         9.9120   -8.7920   -9.2290 C.3   126  TRP126      0.1605
    141  C          9.4290  -10.0240   -8.4760 C.2   126  TRP126      0.2264
    142  O          9.2240   -9.9600   -7.2640 O.2   126  TRP126     -0.2867
    143  CB         8.7280   -7.8420   -9.5120 C.3   126  TRP126      0.0550
    144  CG         7.7520   -8.3260  -10.5210 C.ar  126  TRP126      0.0003
    145  CD1        7.7350   -8.0010  -11.8250 C.ar  126  TRP126      0.0946
    146  CD2        6.6140   -9.1780  -10.2930 C.ar  126  TRP126      0.0152
    147  NE1        6.6900   -8.5990  -12.4430 N.ar  126  TRP126     -0.2442
    148  CE2        5.9710   -9.3260  -11.5310 C.ar  126  TRP126      0.0810
    149  CE3        6.0960   -9.8470   -9.1680 C.ar  126  TRP126      0.0012
    150  CZ2        4.8310  -10.1120  -11.7020 C.ar  126  TRP126      0.0191
    151  CZ3        4.9410  -10.6580   -9.3370 C.ar  126  TRP126      0.0001
    152  CH2        4.3260  -10.7790  -10.5940 C.ar  126  TRP126      0.0015
    153  N          7.6800   -1.6330  -22.2300 N.3   142  PHE142     -0.1241
    154  CA         7.7980   -2.7190  -23.1910 C.3   142  PHE142      0.1605
    155  C          7.7200   -2.2050  -24.6280 C.2   142  PHE142      0.2264
    156  O          6.9810   -1.2580  -24.9320 O.2   142  PHE142     -0.2867
    157  CB         6.6800   -3.7410  -22.9710 C.3   142  PHE142      0.0534
    158  CG         6.9890   -4.8190  -21.9630 C.ar  142  PHE142     -0.0203
    159  CD1        6.7570   -4.6200  -20.6170 C.ar  142  PHE142     -0.0042
    160  CD2        7.4660   -6.0560  -22.3830 C.ar  142  PHE142     -0.0042
    161  CE1        6.9960   -5.6320  -19.6950 C.ar  142  PHE142     -0.0003
    162  CE2        7.7330   -7.0670  -21.4740 C.ar  142  PHE142     -0.0003
    163  CZ         7.5050   -6.8480  -20.1180 C.ar  142  PHE142     -0.0000
@<TRIPOS>BOND
     1    45    43   ar
     2    45    47   ar
     3    43    42   ar
     4    86    85    2
     5    85    84    1
     6    47    46   ar
     7    37    38    1
     8   156   155    2
     9    38    41    1
    10    38    39    1
    11    42    41    1
    12    42    44   ar
    13   155   154    1
    14    87    84    1
    15    87    88    1
    16    48    39   am
    17    48    49    1
    18    84    83    1
    19    90    88   ar
    20    90    92   ar
    21    39    40    2
    22    46    44   ar
    23    88    89   ar
    24    49    50    1
    25    50    51    2
    26   154   157    1
    27   154   153    1
    28    92    93   ar
    29   157   158    1
    30   122   121   ar
    31   122   120   ar
    32    31    30    2
    33   160   158   ar
    34   160   162   ar
    35    89    91   ar
    36   121   119   ar
    37   158   159   ar
    38    93    91   ar
    39   120   118   ar
    40    30    29    1
    41   162   163   ar
    42    35    36    1
    43    35    34    1
    44   119   116   ar
    45    33    34    1
    46    33    32    1
    47   118   116   ar
    48   118   117   ar
    49   159   161   ar
    50    32    29    1
    51   116   114   ar
    52    29    28    1
    53   163   161   ar
    54   117   115   ar
    55    12    11    1
    56   100    99    1
    57   100   101    1
    58   114   115   ar
    59   114   113    1
    60   110   109    1
    61   110   111    1
    62   110   113    1
    63    99    98    1
    64    75    74    2
    65    74    73    1
    66   111   112    2
    67    11    10   ar
    68    11     9   ar
    69    76    73    1
    70    76    77    1
    71    94    95    1
    72    58    57    2
    73    10     8   ar
    74    73    72    1
    75    98    95    1
    76   129   128   ar
    77   123   124    1
    78     9     7   ar
    79    78    77   ar
    80    78    80   ar
    81    77    79   ar
    82    95    96    1
    83    57    59   am
    84    57    56    1
    85    80    82   ar
    86    79    81   ar
    87     8     6   ar
    88   128   127    1
    89   128   130   ar
    90   124   127    1
    91   124   125    1
    92     7     6   ar
    93    52    53    1
    94    56    53    1
    95    82    81   ar
    96    96    97    2
    97     6     5    1
    98    69    70    1
    99    69    68    1
   100    53    54    1
   101   131   125   am
   102   131   132    1
   103    67    66    2
   104   125   126    2
   105   137   136   ar
   106    70    71    2
   107   136   135    1
   108   136   138   ar
   109     5     2    1
   110   108   106    1
   111   135   132    1
   112    68    66   am
   113    66    65    1
   114    54    55    2
   115    54    60   am
   116   132   133    1
   117    63    62    2
   118   133   134    2
   119     2     1    1
   120     2     3    1
   121    60    61    1
   122    64    65    1
   123   147   145   ar
   124   147   148   ar
   125    26    25    1
   126   106   107    1
   127   106   103    1
   128   102   103    1
   129    62    61    1
   130    16    15    2
   131    27    25    1
   132   145   144   ar
   133   150   148   ar
   134   150   152   ar
   135   103   104    1
   136     3    13   am
   137     3     4    2
   138   148   146   ar
   139    13    14    1
   140    25    24    1
   141    15    14    1
   142    15    20   am
   143    24    21    1
   144   152   151   ar
   145   144   146   ar
   146   144   143    1
   147   139   140    1
   148    18    17    1
   149    14    17    1
   150   146   149   ar
   151   104   105    2
   152    21    20    1
   153    21    22    1
   154    17    19    1
   155   143   140    1
   156   151   149   ar
   157   140   141    1
   158    22    23    2
   159   141   142    2
