@<TRIPOS>MOLECULE
tmp/6f28B00.pdb
 140 133 0 0 0
SMALL
GASTEIGER

@<TRIPOS>ATOM
      1  N         -8.6350  -38.6410  -19.7390 N.3    10  GLU10      -0.1245
      2  CA        -9.5650  -38.4130  -20.8370 C.3    10  GLU10       0.1567
      3  C        -10.0490  -36.9680  -20.8310 C.2    10  GLU10       0.2260
      4  O        -10.6090  -36.5000  -19.8340 O.2    10  GLU10      -0.2867
      5  CB       -10.7530  -39.3790  -20.7300 C.3    10  GLU10       0.0388
      6  CG       -11.7060  -39.3460  -21.9150 C.3    10  GLU10       0.1160
      7  CD       -11.0940  -39.8790  -23.1960 C.2    10  GLU10       0.3649
      8  OE1      -10.2350  -40.7860  -23.1250 O.co2  10  GLU10      -0.2457
      9  OE2      -11.4800  -39.3890  -24.2790 O.co2  10  GLU10      -0.2457
     10  N        -12.3460  -34.7080  -18.8090 N.3    13  PHE13      -0.1241
     11  CA       -12.7600  -35.2550  -17.5230 C.3    13  PHE13       0.1605
     12  C        -11.5860  -35.3420  -16.5550 C.2    13  PHE13       0.2264
     13  O        -11.6880  -34.9010  -15.4040 O.2    13  PHE13      -0.2867
     14  CB       -13.3950  -36.6350  -17.7270 C.3    13  PHE13       0.0534
     15  CG       -14.7070  -36.5930  -18.4670 C.ar   13  PHE13      -0.0203
     16  CD1      -15.8820  -36.2730  -17.8050 C.ar   13  PHE13      -0.0042
     17  CD2      -14.7640  -36.8700  -19.8230 C.ar   13  PHE13      -0.0042
     18  CE1      -17.0890  -36.2280  -18.4820 C.ar   13  PHE13      -0.0003
     19  CE2      -15.9700  -36.8270  -20.5060 C.ar   13  PHE13      -0.0003
     20  CZ       -17.1330  -36.5040  -19.8320 C.ar   13  PHE13      -0.0000
     21  N        -11.6080  -48.9260  -19.3020 N.3    58  TYR58      -0.1241
     22  CA       -12.8100  -48.6280  -18.5350 C.3    58  TYR58       0.1605
     23  C        -13.3260  -49.8770  -17.8330 C.2    58  TYR58       0.2264
     24  O        -13.6080  -49.8550  -16.6300 O.2    58  TYR58      -0.2867
     25  CB       -13.8880  -48.0430  -19.4500 C.3    58  TYR58       0.0534
     26  CG       -13.6150  -46.6190  -19.8650 C.ar   58  TYR58      -0.0201
     27  CD1      -12.8530  -46.3380  -20.9920 C.ar   58  TYR58      -0.0009
     28  CD2      -14.1080  -45.5560  -19.1270 C.ar   58  TYR58      -0.0009
     29  CE1      -12.5990  -45.0390  -21.3750 C.ar   58  TYR58       0.0417
     30  CE2      -13.8550  -44.2540  -19.4990 C.ar   58  TYR58       0.0417
     31  CZ       -13.1000  -44.0020  -20.6260 C.ar   58  TYR58       0.1957
     32  OH       -12.8430  -42.7050  -21.0050 O.3    58  TYR58      -0.2866
     33  N        -15.7210  -40.7440  -16.7340 N.3    85  PRO85      -0.2102
     34  CA       -16.8690  -40.9480  -17.6280 C.3    85  PRO85       0.1504
     35  C        -17.1830  -42.4250  -17.7780 C.2    85  PRO85       0.2576
     36  O        -16.9640  -43.0220  -18.8380 O.2    85  PRO85      -0.2718
     37  CB       -16.4090  -40.3170  -18.9490 C.3    85  PRO85       0.0282
     38  CG       -14.9140  -40.3190  -18.8690 C.3    85  PRO85       0.0208
     39  CD       -14.5990  -40.0880  -17.4270 C.3    85  PRO85       0.0893
     40  N        -17.6850  -43.0220  -16.7010 N.am   86  LEU86      -0.1966
     41  CA       -17.9530  -44.4510  -16.6360 C.3    86  LEU86       0.1728
     42  C        -19.4400  -44.6900  -16.8580 C.2    86  LEU86       0.2616
     43  O        -20.2700  -44.2610  -16.0490 O.2    86  LEU86      -0.2715
     44  CB       -17.5090  -45.0250  -15.2900 C.3    86  LEU86       0.0311
     45  CG       -17.6260  -46.5440  -15.1370 C.3    86  LEU86       0.0022
     46  CD1      -16.7270  -47.2680  -16.1270 C.3    86  LEU86       0.0001
     47  CD2      -17.2980  -46.9590  -13.7120 C.3    86  LEU86       0.0001
     48  N        -19.7660  -45.3890  -17.9410 N.am   87  THR87      -0.1951
     49  CA       -21.1480  -45.5990  -18.3440 C.3    87  THR87       0.1897
     50  C        -21.8320  -46.6260  -17.4480 C.2    87  THR87       0.2313
     51  O        -21.2610  -47.6710  -17.1260 O.2    87  THR87      -0.2863
     52  CB       -21.2030  -46.0700  -19.7970 C.3    87  THR87       0.1794
     53  OG1      -20.5800  -45.1010  -20.6460 O.3    87  THR87      -0.2208
     54  CG2      -22.6390  -46.2800  -20.2450 C.3    87  THR87       0.0378
     55  N        -22.5320  -54.2100  -16.0330 N.3    92  ARG92      -0.1245
     56  CA       -21.6430  -53.7500  -14.9700 C.3    92  ARG92       0.1563
     57  C        -22.3610  -53.6540  -13.6310 C.2    92  ARG92       0.2260
     58  O        -21.7290  -53.8100  -12.5800 O.2    92  ARG92      -0.2867
     59  CB       -21.0490  -52.3940  -15.3420 C.3    92  ARG92       0.0307
     60  CG       -20.1020  -52.4510  -16.5190 C.3    92  ARG92       0.0489
     61  CD       -19.7180  -51.0650  -16.9770 C.3    92  ARG92       0.2205
     62  NE       -18.6160  -51.0830  -17.9280 N.pl3  92  ARG92      -0.0865
     63  CZ       -18.1860  -50.0080  -18.5780 C.cat  92  ARG92       0.5346
     64  NH1      -17.1740  -50.1050  -19.4270 N.pl3  92  ARG92       0.1354
     65  NH2      -18.7780  -48.8360  -18.3860 N.pl3  92  ARG92       0.1354
     66  N        -14.8140  -47.2170  -30.5410 N.3   134  VAL134     -0.1245
     67  CA       -13.7040  -47.6380  -29.6970 C.3   134  VAL134      0.1561
     68  C        -13.9170  -49.0890  -29.2890 C.2   134  VAL134      0.2260
     69  O        -15.0450  -49.5180  -29.0220 O.2   134  VAL134     -0.2867
     70  CB       -13.5830  -46.7160  -28.4700 C.3   134  VAL134      0.0252
     71  CG1      -12.4710  -47.1880  -27.5440 C.3   134  VAL134      0.0019
     72  CG2      -13.3420  -45.2770  -28.9080 C.3   134  VAL134      0.0019
     73  N        -15.6740  -50.6990  -25.6540 N.3   137  GLY137     -0.1210
     74  CA       -16.3430  -49.6260  -24.9580 C.3   137  GLY137      0.1956
     75  C        -17.8490  -49.8510  -24.9400 C.2   137  GLY137      0.2612
     76  O        -18.3800  -50.7480  -25.5880 O.2   137  GLY137     -0.2717
     77  N        -18.5340  -49.0130  -24.1600 N.am  138  ALA138     -0.1965
     78  CA       -19.9890  -49.0880  -24.1070 C.3   138  ALA138      0.1728
     79  C        -20.6080  -48.8490  -25.4760 C.2   138  ALA138      0.2616
     80  O        -21.6810  -49.3830  -25.7720 O.2   138  ALA138     -0.2715
     81  CB       -20.5340  -48.0740  -23.1010 C.3   138  ALA138      0.0334
     82  N        -19.9520  -48.0520  -26.3210 N.am  139  THR139     -0.1951
     83  CA       -20.5040  -47.7600  -27.6390 C.3   139  THR139      0.1897
     84  C        -20.4240  -48.9740  -28.5570 C.2   139  THR139      0.2313
     85  O        -21.4100  -49.3330  -29.2110 O.2   139  THR139     -0.2863
     86  CB       -19.7760  -46.5690  -28.2540 C.3   139  THR139      0.1794
     87  OG1      -19.8860  -45.4460  -27.3710 O.3   139  THR139     -0.2208
     88  CG2      -20.3750  -46.2110  -29.6130 C.3   139  THR139      0.0378
     89  N        -10.3370  -43.0470  -28.0190 N.3   169  ASN169     -0.1240
     90  CA       -10.9930  -41.8780  -28.6010 C.3   169  ASN169      0.1653
     91  C        -10.0230  -41.0530  -29.4380 C.2   169  ASN169      0.2266
     92  O        -10.3830  -40.5670  -30.5160 O.2   169  ASN169     -0.2867
     93  CB       -11.6090  -41.0100  -27.5040 C.3   169  ASN169      0.1155
     94  CG       -12.7470  -41.6990  -26.7810 C.2   169  ASN169      0.2627
     95  OD1      -13.5660  -42.3840  -27.3960 O.2   169  ASN169     -0.2716
     96  ND2      -12.8120  -41.5110  -25.4690 N.am  169  ASN169     -0.0877
     97  N        -18.4410  -43.4350  -34.1060 N.3   184  LEU184     -0.1231
     98  CA       -19.5210  -43.6450  -33.1510 C.3   184  LEU184      0.1693
     99  C        -18.9780  -43.3870  -31.7500 C.2   184  LEU184      0.2592
    100  O        -18.1210  -44.1310  -31.2570 O.2   184  LEU184     -0.2718
    101  CB       -20.0740  -45.0550  -33.2960 C.3   184  LEU184      0.0284
    102  CG       -20.8030  -45.2550  -34.6210 C.3   184  LEU184      0.0019
    103  CD1      -20.8740  -46.7310  -34.9580 C.3   184  LEU184      0.0001
    104  CD2      -22.1800  -44.6330  -34.5710 C.3   184  LEU184      0.0001
    105  N        -19.4790  -42.3320  -31.1120 N.am  185  MET185     -0.1965
    106  CA       -18.8930  -41.7980  -29.8930 C.3   185  MET185      0.1736
    107  C        -20.0010  -41.2070  -29.0300 C.2   185  MET185      0.2616
    108  O        -21.0770  -40.8520  -29.5210 O.2   185  MET185     -0.2715
    109  CB       -17.8240  -40.7490  -30.2310 C.3   185  MET185      0.0427
    110  CG       -17.4020  -39.8460  -29.0930 C.3   185  MET185      0.0599
    111  SD       -16.1070  -38.7110  -29.6240 S.3   185  MET185     -0.1393
    112  CE       -14.6510  -39.6980  -29.2820 C.3   185  MET185      0.0692
    113  N        -19.7250  -41.1080  -27.7320 N.am  186  GLU186     -0.1977
    114  CA       -20.7140  -40.6040  -26.7910 C.3   186  GLU186      0.1602
    115  C        -20.8520  -39.0880  -26.9170 C.2   186  GLU186      0.2287
    116  O        -19.8650  -38.3680  -27.0910 O.2   186  GLU186     -0.2864
    117  CB       -20.3250  -41.0120  -25.3710 C.3   186  GLU186      0.0415
    118  CG       -20.4230  -42.5270  -25.1550 C.3   186  GLU186      0.1163
    119  CD       -19.9220  -42.9900  -23.8000 C.2   186  GLU186      0.3649
    120  OE1      -20.3860  -44.0510  -23.3290 O.co2 186  GLU186     -0.2457
    121  OE2      -19.0590  -42.3080  -23.2110 O.co2 186  GLU186     -0.2457
    122  N        -18.5880  -36.1660  -25.3350 N.3   189  THR189     -0.1218
    123  CA       -17.2690  -35.9300  -25.9090 C.3   189  THR189      0.1862
    124  C        -17.3760  -35.2690  -27.2760 C.2   189  THR189      0.2287
    125  O        -16.5660  -34.3990  -27.6120 O.2   189  THR189     -0.2866
    126  CB       -16.4960  -37.2430  -26.0030 C.3   189  THR189      0.1770
    127  OG1      -16.4390  -37.8490  -24.7080 O.3   189  THR189     -0.2211
    128  CG2      -15.0760  -37.0090  -26.5100 C.3   189  THR189      0.0375
    129  N        -23.4960  -41.3850  -16.9310 N.3   212  TYR212     -0.1241
    130  CA       -22.2480  -41.6510  -16.2330 C.3   212  TYR212      0.1605
    131  C        -22.5210  -41.6740  -14.7370 C.2   212  TYR212      0.2264
    132  O        -23.2460  -40.8200  -14.2200 O.2   212  TYR212     -0.2867
    133  CB       -21.1970  -40.5790  -16.5340 C.3   212  TYR212      0.0534
    134  CG       -20.6930  -40.5160  -17.9580 C.ar  212  TYR212     -0.0201
    135  CD1      -20.6230  -41.6480  -18.7430 C.ar  212  TYR212     -0.0009
    136  CD2      -20.2640  -39.3090  -18.5070 C.ar  212  TYR212     -0.0009
    137  CE1      -20.1490  -41.5880  -20.0400 C.ar  212  TYR212      0.0417
    138  CE2      -19.7920  -39.2380  -19.7990 C.ar  212  TYR212      0.0417
    139  CZ       -19.7340  -40.3800  -20.5620 C.ar  212  TYR212      0.1957
    140  OH       -19.2620  -40.3110  -21.8530 O.3   212  TYR212     -0.2866
@<TRIPOS>BOND
     1   103   102    1
     2   102   104    1
     3   102   101    1
     4    97    98    1
     5   101    98    1
     6    98    99    1
     7    99   100    2
     8    99   105   am
     9   105   106    1
    10    66    67    1
    11    92    91    2
    12   109   106    1
    13   109   110    1
    14   106   107    1
    15    67    68    1
    16    67    70    1
    17   111   112    1
    18   111   110    1
    19    88    86    1
    20   108   107    2
    21    91    90    1
    22    68    69    2
    23    85    84    2
    24   107   113   am
    25    72    70    1
    26    90    89    1
    27    90    93    1
    28    84    83    1
    29    70    71    1
    30    86    83    1
    31    86    87    1
    32   113   114    1
    33    83    82    1
    34   125   124    2
    35    93    94    1
    36    95    94    2
    37   124   123    1
    38   116   115    2
    39   115   114    1
    40   114   117    1
    41    94    96   am
    42   128   126    1
    43    82    79   am
    44   126   123    1
    45   126   127    1
    46   123   122    1
    47    80    79    2
    48    73    74    1
    49    76    75    2
    50    79    78    1
    51   117   118    1
    52   118   119    1
    53    74    75    1
    54    75    77   am
    55     9     7   ar
    56    77    78    1
    57    78    81    1
    58   119   120   ar
    59   119   121   ar
    60     7     8   ar
    61     7     6    1
    62     6     5    1
    63   140   139    1
    64    29    27   ar
    65    29    31   ar
    66    32    31    1
    67    27    26   ar
    68     2     3    1
    69     2     5    1
    70     2     1    1
    71     3     4    2
    72    53    52    1
    73    31    30   ar
    74   139   137   ar
    75   139   138   ar
    76    19    20   ar
    77    19    17   ar
    78    54    52    1
    79   137   135   ar
    80    26    25    1
    81    26    28   ar
    82    20    18   ar
    83    17    15   ar
    84   138   136   ar
    85    52    49    1
    86    30    28   ar
    87    25    22    1
    88    64    63    1
    89    21    22    1
    90    37    38    1
    91    37    34    1
    92    38    39    1
    93    36    35    2
    94    10    11    1
    95   135   134   ar
    96    63    65    1
    97    63    62    2
    98    22    23    1
    99   136   134   ar
   100    18    16   ar
   101    15    16   ar
   102    15    14    1
   103    49    48    1
   104    49    50    1
   105   134   133    1
   106    48    42   am
   107    62    61    1
   108    23    24    2
   109    35    34    1
   110    35    40   am
   111    14    11    1
   112    34    33    1
   113    11    12    1
   114    50    51    2
   115    39    33    1
   116    61    60    1
   117   129   130    1
   118    42    41    1
   119    42    43    2
   120    40    41    1
   121    41    44    1
   122    12    13    2
   123   133   130    1
   124    60    59    1
   125   130   131    1
   126    46    45    1
   127    55    56    1
   128    59    56    1
   129    44    45    1
   130    45    47    1
   131    56    57    1
   132   131   132    2
   133    57    58    2
