@<TRIPOS>MOLECULE
tmp/6f29A00.pdb
 148 141 0 0 0
SMALL
GASTEIGER

@<TRIPOS>ATOM
      1  N         -9.3590   33.6080  -21.8960 N.3    11  GLU11      -0.1245
      2  CA        -9.6130   32.4290  -21.0820 C.3    11  GLU11       0.1567
      3  C        -11.1020   32.4280  -20.7970 C.2    11  GLU11       0.2260
      4  O        -11.5970   33.2760  -20.0500 O.2    11  GLU11      -0.2867
      5  CB        -8.8060   32.4450  -19.7920 C.3    11  GLU11       0.0388
      6  CG        -8.9050   31.1460  -19.0330 C.3    11  GLU11       0.1160
      7  CD        -8.2140   30.0070  -19.7540 C.2    11  GLU11       0.3649
      8  OE1       -7.0300   30.1760  -20.1230 O.co2  11  GLU11      -0.2457
      9  OE2       -8.8530   28.9450  -19.9530 O.co2  11  GLU11      -0.2457
     10  N        -13.6910   33.8280  -18.5700 N.3    14  PHE14      -0.1241
     11  CA       -13.1790   34.9740  -17.8290 C.3    14  PHE14       0.1605
     12  C        -12.9460   36.1680  -18.7410 C.2    14  PHE14       0.2264
     13  O        -13.3710   37.2880  -18.4290 O.2    14  PHE14      -0.2867
     14  CB       -11.8850   34.6110  -17.0960 C.3    14  PHE14       0.0534
     15  CG       -12.0720   33.6260  -15.9710 C.ar   14  PHE14      -0.0203
     16  CD1      -11.9760   32.2610  -16.2060 C.ar   14  PHE14      -0.0042
     17  CD2      -12.3370   34.0600  -14.6830 C.ar   14  PHE14      -0.0042
     18  CE1      -12.1500   31.3560  -15.1850 C.ar   14  PHE14      -0.0003
     19  CE2      -12.4980   33.1520  -13.6650 C.ar   14  PHE14      -0.0003
     20  CZ       -12.4060   31.8080  -13.9160 C.ar   14  PHE14      -0.0000
     21  N          0.3860   33.0660  -18.4000 N.3    59  TYR59      -0.1241
     22  CA         0.1180   33.6100  -17.0750 C.3    59  TYR59       0.1605
     23  C          1.4040   34.0570  -16.3880 C.2    59  TYR59       0.2264
     24  O          1.4990   35.1950  -15.9120 O.2    59  TYR59      -0.2867
     25  CB        -0.6220   32.5710  -16.2320 C.3    59  TYR59       0.0534
     26  CG        -2.0270   32.3500  -16.7200 C.ar   59  TYR59      -0.0201
     27  CD1       -2.2840   31.4620  -17.7680 C.ar   59  TYR59      -0.0009
     28  CD2       -3.0970   33.0540  -16.1680 C.ar   59  TYR59      -0.0009
     29  CE1       -3.5620   31.2630  -18.2360 C.ar   59  TYR59       0.0417
     30  CE2       -4.3830   32.8620  -16.6320 C.ar   59  TYR59       0.0417
     31  CZ        -4.6070   31.9690  -17.6770 C.ar   59  TYR59       0.1957
     32  OH        -5.8840   31.7730  -18.1570 O.3    59  TYR59      -0.2866
     33  N         -7.9790   35.1050  -14.5670 N.3    86  PRO86      -0.2102
     34  CA        -7.9690   34.0480  -13.5570 C.3    86  PRO86       0.1504
     35  C         -6.5380   33.7350  -13.1510 C.2    86  PRO86       0.2576
     36  O         -5.9710   32.7190  -13.5610 O.2    86  PRO86      -0.2718
     37  CB        -8.6520   32.8710  -14.2640 C.3    86  PRO86       0.0282
     38  CG        -8.4680   33.1360  -15.7210 C.3    86  PRO86       0.0208
     39  CD        -8.5430   34.6310  -15.8490 C.3    86  PRO86       0.0893
     40  N         -5.9550   34.6100  -12.3300 N.am   87  LEU87      -0.1966
     41  CA        -4.5360   34.5950  -11.9990 C.3    87  LEU87       0.1728
     42  C         -4.3640   34.0930  -10.5750 C.2    87  LEU87       0.2616
     43  O         -4.8180   34.7360   -9.6190 O.2    87  LEU87      -0.2715
     44  CB        -3.9410   35.9950  -12.1470 C.3    87  LEU87       0.0311
     45  CG        -2.4430   36.2010  -11.9600 C.3    87  LEU87       0.0022
     46  CD1       -1.6520   35.5980  -13.1310 C.3    87  LEU87       0.0001
     47  CD2       -2.1470   37.6780  -11.7960 C.3    87  LEU87       0.0001
     48  N         -3.7110   32.9540  -10.4360 N.am   88  THR88      -0.1951
     49  CA        -3.6170   32.3020   -9.1390 C.3    88  THR88       0.1897
     50  C         -2.6740   33.0640   -8.2100 C.2    88  THR88       0.2313
     51  O         -1.5870   33.4990   -8.6110 O.2    88  THR88      -0.2863
     52  CB        -3.1590   30.8550   -9.3260 C.3    88  THR88       0.1794
     53  OG1       -4.0510   30.2010  -10.2480 O.3    88  THR88      -0.2208
     54  CG2       -3.1550   30.0900   -7.9990 C.3    88  THR88       0.0378
     55  N          4.8970   33.4090   -6.8430 N.3    93  ARG93      -0.1245
     56  CA         4.7810   34.6580   -7.5810 C.3    93  ARG93       0.1563
     57  C          4.7760   35.8820   -6.6680 C.2    93  ARG93       0.2260
     58  O          5.0390   36.9880   -7.1500 O.2    93  ARG93      -0.2867
     59  CB         3.5330   34.6240   -8.4690 C.3    93  ARG93       0.0307
     60  CG         3.5330   33.3730   -9.3110 C.3    93  ARG93       0.0489
     61  CD         2.8890   33.5030  -10.6610 C.3    93  ARG93       0.2205
     62  NE         1.4540   33.2940  -10.6000 N.pl3  93  ARG93      -0.0865
     63  CZ         0.7390   32.7500  -11.5760 C.cat  93  ARG93       0.5346
     64  NH1        1.3370   32.3490  -12.6900 N.pl3  93  ARG93       0.1354
     65  NH2       -0.5780   32.6170  -11.4350 N.pl3  93  ARG93       0.1354
     66  N         -1.2590   23.2550  -18.2810 N.3   135  VAL135     -0.1245
     67  CA        -0.9210   24.4040  -19.1140 C.3   135  VAL135      0.1561
     68  C          0.4920   24.8650  -18.7960 C.2   135  VAL135      0.2260
     69  O          0.8190   25.1470  -17.6350 O.2   135  VAL135     -0.2867
     70  CB        -1.9200   25.5440  -18.8800 C.3   135  VAL135      0.0252
     71  CG1       -1.3340   26.8800  -19.3890 C.3   135  VAL135      0.0019
     72  CG2       -3.2410   25.2330  -19.5480 C.3   135  VAL135      0.0019
     73  N          2.0440   27.8800  -16.0210 N.3   138  GLY138     -0.1210
     74  CA         0.8830   28.2700  -15.2580 C.3   138  GLY138      0.1956
     75  C          1.0410   27.8540  -13.8030 C.2   138  GLY138      0.2612
     76  O          1.9850   27.1540  -13.4280 O.2   138  GLY138     -0.2717
     77  N          0.0840   28.2800  -12.9830 N.am  139  ALA139     -0.1965
     78  CA         0.1730   27.9520  -11.5660 C.3   139  ALA139      0.1728
     79  C         -0.0700   26.4660  -11.3110 C.2   139  ALA139      0.2617
     80  O          0.4950   25.9030  -10.3590 O.2   139  ALA139     -0.2715
     81  CB        -0.8020   28.8060  -10.7610 C.3   139  ALA139      0.0334
     82  N         -0.8930   25.8120  -12.1360 N.am  140  THR140     -0.1937
     83  CA        -1.0580   24.3680  -11.9790 C.3   140  THR140      0.2028
     84  C          0.2290   23.6320  -12.3390 C.2   140  THR140      0.2642
     85  O          0.6230   22.6810  -11.6550 O.2   140  THR140     -0.2714
     86  CB        -2.2200   23.8580  -12.8340 C.3   140  THR140      0.1808
     87  OG1       -3.4330   24.5010  -12.4310 O.3   140  THR140     -0.2208
     88  CG2       -2.3880   22.3630  -12.6550 C.3   140  THR140      0.0379
     89  N          0.8990   24.0670  -13.4070 N.am  141  MET141     -0.1976
     90  CA         2.1780   23.4750  -13.7830 C.3   141  MET141      0.1605
     91  C          3.2090   23.6650  -12.6740 C.2   141  MET141      0.2287
     92  O          3.9160   22.7200  -12.3040 O.2   141  MET141     -0.2864
     93  CB         2.6390   24.0960  -15.1080 C.3   141  MET141      0.0413
     94  CG         3.7920   23.4160  -15.8130 C.3   141  MET141      0.0598
     95  SD         5.3670   24.2170  -15.4970 S.3   141  MET141     -0.1393
     96  CE         5.7550   25.0340  -17.0280 C.3   141  MET141      0.0692
     97  N         -5.5420   26.3610  -22.0740 N.3   170  ASN170     -0.1240
     98  CA        -6.6100   25.4370  -21.7240 C.3   170  ASN170      0.1653
     99  C         -7.3480   24.9410  -22.9590 C.2   170  ASN170      0.2266
    100  O         -7.7210   23.7640  -23.0270 O.2   170  ASN170     -0.2867
    101  CB        -7.5650   26.0890  -20.7360 C.3   170  ASN170      0.1155
    102  CG        -6.9570   26.2240  -19.3550 C.2   170  ASN170      0.2627
    103  OD1       -6.4830   25.2460  -18.7620 O.2   170  ASN170     -0.2716
    104  ND2       -6.9640   27.4360  -18.8320 N.am  170  ASN170     -0.0877
    105  N         -4.7370   18.3930  -15.9220 N.3   185  LEU185     -0.1231
    106  CA        -4.7600   18.9890  -14.5930 C.3   185  LEU185      0.1693
    107  C         -5.1580   20.4510  -14.7380 C.2   185  LEU185      0.2592
    108  O         -4.3990   21.2690  -15.2710 O.2   185  LEU185     -0.2718
    109  CB        -3.4040   18.8260  -13.9150 C.3   185  LEU185      0.0284
    110  CG        -3.1590   17.3480  -13.6040 C.3   185  LEU185      0.0019
    111  CD1       -1.6790   17.0680  -13.4690 C.3   185  LEU185      0.0001
    112  CD2       -3.9360   16.9170  -12.3600 C.3   185  LEU185      0.0001
    113  N         -6.3700   20.7660  -14.3010 N.am  186  MET186     -0.1965
    114  CA        -7.0050   22.0370  -14.5840 C.3   186  MET186      0.1736
    115  C         -7.6810   22.5360  -13.3150 C.2   186  MET186      0.2616
    116  O         -7.9790   21.7660  -12.3980 O.2   186  MET186     -0.2715
    117  CB        -7.9950   21.8840  -15.7570 C.3   186  MET186      0.0427
    118  CG        -9.1990   22.8010  -15.7610 C.3   186  MET186      0.0599
    119  SD       -10.2060   22.6150  -17.2440 S.3   186  MET186     -0.1393
    120  CE        -9.1470   23.3400  -18.4870 C.3   186  MET186      0.0692
    121  N         -7.9210   23.8350  -13.2620 N.am  187  GLU187     -0.1977
    122  CA        -8.4780   24.4160  -12.0580 C.3   187  GLU187      0.1602
    123  C         -9.9950   24.2250  -11.9730 C.2   187  GLU187      0.2287
    124  O        -10.7270   24.2770  -12.9750 O.2   187  GLU187     -0.2864
    125  CB        -8.0680   25.8850  -11.9850 C.3   187  GLU187      0.0415
    126  CG        -6.5560   25.9650  -12.2000 C.3   187  GLU187      0.1163
    127  CD        -5.9390   27.2780  -11.8590 C.2   187  GLU187      0.3649
    128  OE1       -6.3990   28.3170  -12.3820 O.co2 187  GLU187     -0.2457
    129  OE2       -4.9570   27.2550  -11.0820 O.co2 187  GLU187     -0.2457
    130  N        -12.8080   26.1950  -13.8170 N.3   190  THR190     -0.1218
    131  CA       -12.8490   25.9530  -15.2520 C.3   190  THR190      0.1862
    132  C        -13.4160   24.5780  -15.5570 C.2   190  THR190      0.2287
    133  O        -14.1830   24.4170  -16.5140 O.2   190  THR190     -0.2866
    134  CB       -11.4570   26.0920  -15.8580 C.3   190  THR190      0.1770
    135  OG1      -10.7480   27.1590  -15.2120 O.3   190  THR190     -0.2211
    136  CG2      -11.5640   26.3820  -17.3250 C.3   190  THR190      0.0375
    137  N         -8.0320   33.1330   -6.9000 N.3   213  TYR213     -0.1241
    138  CA        -7.6960   34.0560   -7.9790 C.3   213  TYR213      0.1605
    139  C         -7.7040   35.4750   -7.4410 C.2   213  TYR213      0.2264
    140  O         -8.6700   35.8910   -6.7930 O.2   213  TYR213     -0.2867
    141  CB        -8.6910   33.9840   -9.1400 C.3   213  TYR213      0.0534
    142  CG        -8.6750   32.7050   -9.9580 C.ar  213  TYR213     -0.0201
    143  CD1       -7.5440   31.8970  -10.0230 C.ar  213  TYR213     -0.0009
    144  CD2       -9.8020   32.3070  -10.6430 C.ar  213  TYR213     -0.0009
    145  CE1       -7.5400   30.7300  -10.7660 C.ar  213  TYR213      0.0417
    146  CE2       -9.8080   31.1430  -11.3900 C.ar  213  TYR213      0.0417
    147  CZ        -8.6740   30.3650  -11.4570 C.ar  213  TYR213      0.1957
    148  OH        -8.6900   29.2160  -12.2030 O.3   213  TYR213     -0.2866
@<TRIPOS>BOND
     1   100    99    2
     2    99    98    1
     3    97    98    1
     4     1     2    1
     5    98   101    1
     6     2     3    1
     7     2     5    1
     8     3     4    2
     9   101   102    1
    10     8     7   ar
    11     9     7   ar
    12     5     6    1
    13     7     6    1
    14    72    70    1
    15    71    70    1
    16   102   104   am
    17   102   103    2
    18    67    70    1
    19    67    68    1
    20    67    66    1
    21    68    69    2
    22    12    13    2
    23    12    11    1
    24    10    11    1
    25   120   119    1
    26    21    22    1
    27    29    27   ar
    28    29    31   ar
    29    32    31    1
    30    11    14    1
    31    27    26   ar
    32    31    30   ar
    33   136   134    1
    34   119   118    1
    35    14    15    1
    36    22    23    1
    37    22    25    1
    38    96    95    1
    39    26    25    1
    40    26    28   ar
    41    30    28   ar
    42   133   132    2
    43    23    24    2
    44    16    15   ar
    45    16    18   ar
    46    73    74    1
    47    15    17   ar
    48   105   106    1
    49   134   131    1
    50   134   135    1
    51    39    38    1
    52    39    33    1
    53    94    95    1
    54    94    93    1
    55   118   117    1
    56   117   114    1
    57    38    37    1
    58   132   131    1
    59   108   107    2
    60    74    75    1
    61   131   130    1
    62    18    20   ar
    63    93    90    1
    64   107   106    1
    65   107   113   am
    66    17    19   ar
    67   106   109    1
    68   114   113    1
    69   114   115    1
    70    33    34    1
    71    37    34    1
    72    20    19   ar
    73   109   110    1
    74    75    76    2
    75    75    77   am
    76    90    89    1
    77    90    91    1
    78   110   111    1
    79   110   112    1
    80    36    35    2
    81    34    35    1
    82    89    84   am
    83   115   121   am
    84   115   116    2
    85   121   122    1
    86    35    40   am
    87    46    45    1
    88    77    78    1
    89   124   123    2
    90    86    88    1
    91    86    87    1
    92    86    83    1
    93    64    63    1
    94    91    92    2
    95   128   127   ar
    96    84    83    1
    97    84    85    2
    98    40    41    1
    99   148   147    1
   100   126   125    1
   101   126   127    1
   102    44    41    1
   103    44    45    1
   104    82    83    1
   105    82    79   am
   106   122   125    1
   107   122   123    1
   108    41    42    1
   109    45    47    1
   110   127   129   ar
   111    63    65    1
   112    63    62    2
   113    78    79    1
   114    78    81    1
   115   147   146   ar
   116   147   145   ar
   117   146   144   ar
   118    79    80    2
   119   145   143   ar
   120    61    62    1
   121    61    60    1
   122   144   142   ar
   123    42    48   am
   124    42    43    2
   125    48    49    1
   126    53    52    1
   127   143   142   ar
   128   142   141    1
   129    52    49    1
   130    52    54    1
   131    60    59    1
   132   141   138    1
   133    49    50    1
   134    51    50    2
   135    59    56    1
   136   138   139    1
   137   138   137    1
   138    56    55    1
   139    56    57    1
   140   139   140    2
   141    58    57    2
