@<TRIPOS>MOLECULE
tmp/6f2aC00.pdb
 123 115 0 0 0
SMALL
GASTEIGER

@<TRIPOS>ATOM
      1  N        -18.1880  -82.2810  -23.6260 N.3   115  GLU115     -0.1245
      2  CA       -17.6390  -83.6390  -23.5280 C.3   115  GLU115      0.1567
      3  C        -16.0880  -83.5830  -23.5890 C.2   115  GLU115      0.2260
      4  O        -15.5020  -83.2420  -24.6260 O.2   115  GLU115     -0.2867
      5  CB       -18.2240  -84.5490  -24.6330 C.3   115  GLU115      0.0388
      6  CG       -17.7710  -86.0060  -24.5740 C.3   115  GLU115      0.1160
      7  CD       -18.2800  -86.8090  -23.3870 C.2   115  GLU115      0.3649
      8  OE1      -19.3990  -87.3620  -23.4820 O.co2 115  GLU115     -0.2457
      9  OE2      -17.5580  -86.9000  -22.3690 O.co2 115  GLU115     -0.2457
     10  N        -22.1210  -94.1270  -15.1250 N.3   134  GLN134     -0.1231
     11  CA       -22.4940  -94.4150  -16.5000 C.3   134  GLN134      0.1698
     12  C        -21.7590  -93.4260  -17.4150 C.2   134  GLN134      0.2593
     13  O        -22.3700  -92.5650  -18.0640 O.2   134  GLN134     -0.2718
     14  CB       -24.0210  -94.4170  -16.6890 C.3   134  GLN134      0.0381
     15  CG       -24.7260  -95.6440  -16.0650 C.3   134  GLN134      0.0905
     16  CD       -24.2270  -96.9520  -16.6590 C.2   134  GLN134      0.2608
     17  OE1      -24.2740  -97.1790  -17.8800 O.2   134  GLN134     -0.2717
     18  NE2      -23.6980  -97.8280  -15.8190 N.am  134  GLN134     -0.0878
     19  N        -20.4110  -93.5290  -17.4100 N.am  135  THR135     -0.1939
     20  CA       -19.5080  -92.7120  -18.2320 C.3   135  THR135      0.2028
     21  C        -18.4100  -93.5940  -18.8420 C.2   135  THR135      0.2642
     22  O        -18.1780  -94.7160  -18.3740 O.2   135  THR135     -0.2714
     23  CB       -18.8820  -91.5130  -17.4520 C.3   135  THR135      0.1808
     24  OG1      -17.9850  -91.9800  -16.4480 O.3   135  THR135     -0.2208
     25  CG2      -19.9130  -90.5600  -16.8430 C.3   135  THR135      0.0379
     26  N        -17.7190  -93.0560  -19.8810 N.am  136  SER136     -0.1949
     27  CA       -16.5710  -93.6620  -20.5690 C.3   136  SER136      0.1924
     28  C        -15.3730  -93.8530  -19.6010 C.2   136  SER136      0.2314
     29  O        -14.3980  -94.5300  -19.9340 O.2   136  SER136     -0.2863
     30  CB       -16.1490  -92.7720  -21.7310 C.3   136  SER136      0.2116
     31  OG       -15.8850  -91.4410  -21.3110 O.3   136  SER136     -0.2180
     32  N        -21.0850 -100.3280  -18.6240 N.3   143  LEU143     -0.1231
     33  CA       -21.5740  -99.1520  -19.3340 C.3   143  LEU143      0.1693
     34  C        -22.7360  -99.6390  -20.1970 C.2   143  LEU143      0.2591
     35  O        -22.5550 -100.4460  -21.1300 O.2   143  LEU143     -0.2718
     36  CB       -20.4920  -98.4990  -20.2180 C.3   143  LEU143      0.0284
     37  CG       -20.8230  -97.1110  -20.7600 C.3   143  LEU143      0.0019
     38  CD1      -21.1950  -96.1240  -19.6080 C.3   143  LEU143      0.0001
     39  CD2      -19.6420  -96.5540  -21.5080 C.3   143  LEU143      0.0001
     40  N        -23.9280  -99.1580  -19.8600 N.am  144  GLU144     -0.1979
     41  CA       -25.1650  -99.5830  -20.4940 C.3   144  GLU144      0.1602
     42  C        -25.2780  -99.1590  -21.9580 C.2   144  GLU144      0.2287
     43  O        -24.5680  -98.2620  -22.4080 O.2   144  GLU144     -0.2864
     44  CB       -26.3640  -99.1340  -19.6560 C.3   144  GLU144      0.0415
     45  CG       -26.4550  -99.9470  -18.3700 C.3   144  GLU144      0.1163
     46  CD       -27.4880  -99.5160  -17.3460 C.2   144  GLU144      0.3649
     47  OE1      -27.3020  -99.8490  -16.1520 O.co2 144  GLU144     -0.2457
     48  OE2      -28.4940  -98.8760  -17.7320 O.co2 144  GLU144     -0.2457
     49  N        -26.0750  -97.6520  -25.4680 N.3   146  HIS146     -0.1226
     50  CA       -26.3620  -96.2910  -25.8630 C.3   146  HIS146      0.1752
     51  C        -25.8750  -95.9260  -27.2340 C.2   146  HIS146      0.2597
     52  O        -24.8850  -96.4610  -27.7540 O.2   146  HIS146     -0.2718
     53  CB       -25.7480  -95.2870  -24.8510 C.3   146  HIS146      0.0759
     54  CG       -24.2510  -95.3310  -24.8300 C.ar  146  HIS146      0.0818
     55  ND1      -23.5690  -96.3080  -24.1320 N.ar  146  HIS146     -0.2268
     56  CD2      -23.3500  -94.5330  -25.4610 C.ar  146  HIS146      0.1154
     57  CE1      -22.2810  -96.0680  -24.3460 C.ar  146  HIS146      0.1986
     58  NE2      -22.1050  -95.0240  -25.1530 N.ar  146  HIS146     -0.2212
     59  N        -26.5940  -94.9640  -27.7930 N.am  147  THR147     -0.1939
     60  CA       -26.2370  -94.1560  -28.9400 C.3   147  THR147      0.2028
     61  C        -25.3490  -93.0870  -28.2600 C.2   147  THR147      0.2642
     62  O        -25.6650  -92.6610  -27.1510 O.2   147  THR147     -0.2714
     63  CB       -27.5120  -93.4480  -29.4830 C.3   147  THR147      0.1808
     64  OG1      -28.2650  -94.4040  -30.1940 O.3   147  THR147     -0.2208
     65  CG2      -27.1940  -92.2780  -30.4350 C.3   147  THR147      0.0379
     66  N        -24.2820  -92.6410  -28.9250 N.am  148  GLU148     -0.1976
     67  CA       -23.4500  -91.5740  -28.3930 C.3   148  GLU148      0.1602
     68  C        -24.2660  -90.2890  -28.4870 C.2   148  GLU148      0.2287
     69  O        -24.7830  -89.9910  -29.5590 O.2   148  GLU148     -0.2864
     70  CB       -22.1580  -91.4320  -29.2150 C.3   148  GLU148      0.0415
     71  CG       -21.1310  -90.5490  -28.5340 C.3   148  GLU148      0.1163
     72  CD       -20.4730  -91.1850  -27.3290 C.2   148  GLU148      0.3649
     73  OE1      -20.3320  -92.4290  -27.3080 O.co2 148  GLU148     -0.2457
     74  OE2      -20.0950  -90.4340  -26.4020 O.co2 148  GLU148     -0.2457
     75  N        -26.6320  -86.6080  -20.8270 N.3   202  ASP202     -0.1239
     76  CA       -25.6320  -87.4650  -20.1640 C.3   202  ASP202      0.1674
     77  C        -25.0050  -86.7340  -18.9900 C.2   202  ASP202      0.2266
     78  O        -24.8650  -85.5020  -19.0250 O.2   202  ASP202     -0.2867
     79  CB       -24.4850  -87.8510  -21.1270 C.3   202  ASP202      0.1410
     80  CG       -24.8100  -88.7640  -22.3030 C.2   202  ASP202      0.3668
     81  OD1      -25.8690  -89.4370  -22.2680 O.co2 202  ASP202     -0.2456
     82  OD2      -24.0180  -88.7820  -23.2760 O.co2 202  ASP202     -0.2456
     83  N        -21.8820  -86.7730  -17.9810 N.3   204  SER204     -0.1217
     84  CA       -20.6260  -86.1880  -18.4680 C.3   204  SER204      0.1889
     85  C        -20.7860  -84.7970  -19.1130 C.2   204  SER204      0.2288
     86  O        -19.8000  -84.0710  -19.2150 O.2   204  SER204     -0.2866
     87  CB       -19.9380  -87.1420  -19.4410 C.3   204  SER204      0.2089
     88  OG       -20.7210  -87.3720  -20.6040 O.3   204  SER204     -0.2183
     89  N        -30.9970  -95.1260  -25.4660 N.3   236  ASP236     -0.1239
     90  CA       -30.2420  -94.9220  -24.2610 C.3   236  ASP236      0.1674
     91  C        -30.9430  -95.7230  -23.1830 C.2   236  ASP236      0.2266
     92  O        -32.0240  -95.3580  -22.7150 O.2   236  ASP236     -0.2867
     93  CB       -30.0570  -93.4200  -23.9280 C.3   236  ASP236      0.1410
     94  CG       -29.0160  -93.1870  -22.8530 C.2   236  ASP236      0.3668
     95  OD1      -29.0040  -93.9490  -21.8630 O.co2 236  ASP236     -0.2456
     96  OD2      -28.2200  -92.2450  -22.9990 O.co2 236  ASP236     -0.2456
     97  N        -30.2610  -96.4580  -20.0300 N.3   238  ASP238     -0.1225
     98  CA       -30.3180  -95.8220  -18.7350 C.3   238  ASP238      0.1805
     99  C        -31.1910  -94.5600  -18.6660 C.2   238  ASP238      0.2597
    100  O        -31.8930  -94.3510  -17.6700 O.2   238  ASP238     -0.2718
    101  CB       -28.8720  -95.4980  -18.2860 C.3   238  ASP238      0.1424
    102  CG       -28.7660  -94.9020  -16.8970 C.2   238  ASP238      0.3668
    103  OD1      -29.4400  -95.4110  -15.9790 O.co2 238  ASP238     -0.2456
    104  OD2      -28.0040  -93.9340  -16.7270 O.co2 238  ASP238     -0.2456
    105  N        -31.1070  -93.7080  -19.6900 N.am  239  LEU239     -0.1979
    106  CA       -31.7350  -92.3910  -19.6810 C.3   239  LEU239      0.1596
    107  C        -33.0960  -92.2730  -20.3790 C.2   239  LEU239      0.2287
    108  O        -33.8590  -91.3580  -20.0370 O.2   239  LEU239     -0.2864
    109  CB       -30.7510  -91.3450  -20.2330 C.3   239  LEU239      0.0297
    110  CG       -29.4480  -91.1870  -19.3910 C.3   239  LEU239      0.0022
    111  CD1      -28.5980  -90.0540  -19.9010 C.3   239  LEU239      0.0001
    112  CD2      -29.7630  -91.0020  -17.8660 C.3   239  LEU239      0.0001
    113  N        -10.4610  -91.3710  -27.9660 N.3   300  ARG300     -0.1245
    114  CA       -11.7580  -91.1930  -28.5950 C.3   300  ARG300      0.1563
    115  C        -11.8620  -89.8950  -29.3540 C.2   300  ARG300      0.2260
    116  O        -11.4830  -88.8460  -28.8460 O.2   300  ARG300     -0.2867
    117  CB       -12.9260  -91.2970  -27.5940 C.3   300  ARG300      0.0307
    118  CG       -14.2970  -91.1270  -28.2900 C.3   300  ARG300      0.0489
    119  CD       -15.4930  -91.3990  -27.3930 C.3   300  ARG300      0.2205
    120  NE       -15.6290  -90.4190  -26.3100 N.pl3 300  ARG300     -0.0865
    121  CZ       -16.5870  -90.4530  -25.3810 C.cat 300  ARG300      0.5346
    122  NH1      -17.5020  -91.4150  -25.3920 N.pl3 300  ARG300      0.1354
    123  NH2      -16.6380  -89.5250  -24.4390 N.pl3 300  ARG300      0.1354
@<TRIPOS>BOND
     1    65    63    1
     2    64    63    1
     3    69    68    2
     4    63    60    1
     5   115   116    2
     6   115   114    1
     7    70    71    1
     8    70    67    1
     9    60    61    1
    10    60    59    1
    11    66    67    1
    12    66    61   am
    13   114   113    1
    14   114   117    1
    15    71    72    1
    16    68    67    1
    17   118   117    1
    18   118   119    1
    19    61    62    2
    20    59    51   am
    21    52    51    2
    22   119   120    1
    23    72    73   ar
    24    72    74   ar
    25    51    50    1
    26   120   121    2
    27    50    49    1
    28    50    53    1
    29    89    90    1
    30    56    58   ar
    31    56    54   ar
    32   122   121    1
    33   121   123    1
    34    58    57   ar
    35    53    54    1
    36    54    55   ar
    37     5     6    1
    38     5     2    1
    39     4     3    2
    40     6     7    1
    41    57    55   ar
    42    90    93    1
    43    90    91    1
    44    93    94    1
    45     1     2    1
    46     3     2    1
    47     8     7   ar
    48     7     9   ar
    49    82    80   ar
    50    91    92    2
    51    96    94   ar
    52    94    95   ar
    53    43    42    2
    54    80    81   ar
    55    80    79    1
    56    42    41    1
    57    30    31    1
    58    30    27    1
    59    39    37    1
    60    35    34    2
    61    79    76    1
    62    75    76    1
    63    37    36    1
    64    37    38    1
    65    88    87    1
    66    27    26    1
    67    27    28    1
    68    41    40    1
    69    41    44    1
    70   107   108    2
    71   107   106    1
    72   109   106    1
    73   109   110    1
    74    36    33    1
    75    34    40   am
    76    34    33    1
    77    76    77    1
    78    97    98    1
    79    29    28    2
    80   111   110    1
    81    26    21   am
    82   105   106    1
    83   105    99   am
    84    44    45    1
    85    87    84    1
    86   110   112    1
    87    33    32    1
    88    86    85    2
    89    85    84    1
    90    78    77    2
    91    21    22    2
    92    21    20    1
    93    98    99    1
    94    98   101    1
    95    99   100    2
    96    84    83    1
    97    45    46    1
    98   101   102    1
    99    20    23    1
   100    20    19    1
   101    13    12    2
   102    17    16    2
   103    48    46   ar
   104    23    25    1
   105    23    24    1
   106    12    19   am
   107    12    11    1
   108    46    47   ar
   109   102   104   ar
   110   102   103   ar
   111    14    11    1
   112    14    15    1
   113    16    15    1
   114    16    18   am
   115    11    10    1
