@<TRIPOS>MOLECULE
tmp/6f2bA00.pdb
 112 103 0 0 0
SMALL
GASTEIGER

@<TRIPOS>ATOM
      1  N        -38.0370  -62.3010  -20.9350 N.3   123  MET123     -0.1245
      2  CA       -39.0350  -61.4100  -21.5290 C.3   123  MET123      0.1570
      3  C        -38.2480  -60.4610  -22.4050 C.2   123  MET123      0.2261
      4  O        -37.6990  -59.4540  -21.9310 O.2   123  MET123     -0.2867
      5  CB       -39.8450  -60.6540  -20.4590 C.3   123  MET123      0.0387
      6  CG       -40.5990  -61.5660  -19.5180 C.3   123  MET123      0.0595
      7  SD       -41.6580  -62.8470  -20.2710 S.3   123  MET123     -0.1393
      8  CE       -42.9410  -61.8070  -21.0160 C.3   123  MET123      0.0692
      9  N        -48.9610  -53.2170  -25.5010 N.3   142  LEU142     -0.1245
     10  CA       -49.4050  -54.4360  -24.8420 C.3   142  LEU142      0.1561
     11  C        -50.5730  -53.9620  -23.9570 C.2   142  LEU142      0.2260
     12  O        -50.3810  -53.1740  -23.0250 O.2   142  LEU142     -0.2867
     13  CB       -48.2690  -55.0600  -24.0060 C.3   142  LEU142      0.0270
     14  CG       -48.6190  -56.2900  -23.1860 C.3   142  LEU142      0.0019
     15  CD1      -48.9060  -57.4830  -24.0840 C.3   142  LEU142      0.0001
     16  CD2      -47.4890  -56.6320  -22.2450 C.3   142  LEU142      0.0001
     17  N        -54.1540  -56.0450  -18.8680 N.3   145  HIS145     -0.1241
     18  CA       -54.6020  -57.3970  -18.6100 C.3   145  HIS145      0.1621
     19  C        -54.1560  -57.8440  -17.2560 C.2   145  HIS145      0.2264
     20  O        -53.1670  -57.3410  -16.7240 O.2   145  HIS145     -0.2867
     21  CB       -54.0290  -58.3850  -19.6790 C.3   145  HIS145      0.0745
     22  CG       -52.5360  -58.4930  -19.6850 C.ar  145  HIS145      0.0817
     23  ND1      -51.7390  -57.4840  -20.2070 N.ar  145  HIS145     -0.2268
     24  CD2      -51.7370  -59.5010  -19.2650 C.ar  145  HIS145      0.1154
     25  CE1      -50.4900  -57.9080  -20.0870 C.ar  145  HIS145      0.1986
     26  NE2      -50.4380  -59.1100  -19.5230 N.ar  145  HIS145     -0.2212
     27  N        -52.7140  -61.4450  -15.6200 N.3   147  GLU147     -0.1245
     28  CA       -52.0640  -62.6520  -16.1110 C.3   147  GLU147      0.1567
     29  C        -52.9880  -63.8810  -15.9980 C.2   147  GLU147      0.2260
     30  O        -53.6080  -64.0800  -14.9480 O.2   147  GLU147     -0.2867
     31  CB       -50.7550  -62.8840  -15.3480 C.3   147  GLU147      0.0388
     32  CG       -49.7790  -63.7590  -16.1170 C.3   147  GLU147      0.1160
     33  CD       -49.2580  -63.1450  -17.4010 C.2   147  GLU147      0.3649
     34  OE1      -49.2530  -61.8980  -17.5160 O.co2 147  GLU147     -0.2457
     35  OE2      -48.8850  -63.9170  -18.3090 O.co2 147  GLU147     -0.2457
     36  N        -46.8680  -61.5400  -10.3120 N.3   158  VAL158     -0.1245
     37  CA       -45.9770  -61.5960  -11.4540 C.3   158  VAL158      0.1561
     38  C        -44.7010  -60.8660  -10.9860 C.2   158  VAL158      0.2260
     39  O        -44.7800  -59.7670  -10.4110 O.2   158  VAL158     -0.2867
     40  CB       -46.5790  -60.9800  -12.7550 C.3   158  VAL158      0.0252
     41  CG1      -45.5630  -61.0460  -13.9010 C.3   158  VAL158      0.0019
     42  CG2      -47.8850  -61.6860  -13.1460 C.3   158  VAL158      0.0019
     43  N        -40.9610  -59.3560  -12.0740 N.3   160  LEU160     -0.1245
     44  CA       -40.1420  -58.9300  -13.2100 C.3   160  LEU160      0.1561
     45  C        -38.8440  -58.2930  -12.7480 C.2   160  LEU160      0.2260
     46  O        -38.8910  -57.2380  -12.1420 O.2   160  LEU160     -0.2867
     47  CB       -40.9190  -57.9170  -14.0640 C.3   160  LEU160      0.0270
     48  CG       -42.2570  -58.3940  -14.6750 C.3   160  LEU160      0.0019
     49  CD1      -43.0820  -57.1850  -15.1440 C.3   160  LEU160      0.0001
     50  CD2      -42.0010  -59.3510  -15.8470 C.3   160  LEU160      0.0001
     51  N        -43.7660  -49.6450  -18.3950 N.3   171  THR171     -0.1218
     52  CA       -44.6610  -50.6310  -17.8230 C.3   171  THR171      0.1862
     53  C        -45.8000  -49.7760  -17.2480 C.2   171  THR171      0.2287
     54  O        -45.5380  -48.7650  -16.5940 O.2   171  THR171     -0.2866
     55  CB       -43.9430  -51.4480  -16.7420 C.3   171  THR171      0.1770
     56  OG1      -42.8530  -52.1330  -17.3540 O.3   171  THR171     -0.2211
     57  CG2      -44.8660  -52.4740  -16.0780 C.3   171  THR171      0.0375
     58  N        -51.9330  -54.7910  -15.8260 N.3   281  HIS281     -0.1226
     59  CA       -50.6750  -54.2420  -16.3180 C.3   281  HIS281      0.1752
     60  C        -50.6490  -54.1850  -17.8290 C.2   281  HIS281      0.2597
     61  O        -51.4430  -54.8560  -18.5130 O.2   281  HIS281     -0.2718
     62  CB       -49.4420  -55.0110  -15.7350 C.3   281  HIS281      0.0759
     63  CG       -49.3990  -56.4730  -16.0710 C.ar  281  HIS281      0.0818
     64  ND1      -50.1530  -57.4050  -15.3610 N.ar  281  HIS281     -0.2268
     65  CD2      -48.6850  -57.1240  -17.0240 C.ar  281  HIS281      0.1154
     66  CE1      -49.8660  -58.5870  -15.8950 C.ar  281  HIS281      0.1986
     67  NE2      -49.0140  -58.4680  -16.9170 N.ar  281  HIS281     -0.2212
     68  N        -49.7390  -53.3720  -18.3370 N.am  282  GLY282     -0.1942
     69  CA       -49.5570  -53.1700  -19.7710 C.3   282  GLY282      0.2014
     70  C        -48.1760  -52.6380  -20.0650 C.2   282  GLY282      0.2638
     71  O        -47.3710  -52.4510  -19.1520 O.2   282  GLY282     -0.2714
     72  N        -47.8910  -52.3930  -21.3410 N.am  283  ARG283     -0.1977
     73  CA       -46.5680  -51.9230  -21.7560 C.3   283  ARG283      0.1597
     74  C        -46.6840  -51.0850  -23.0360 C.2   283  ARG283      0.2287
     75  O        -47.4730  -51.4030  -23.9280 O.2   283  ARG283     -0.2864
     76  CB       -45.6160  -53.1290  -21.9140 C.3   283  ARG283      0.0334
     77  CG       -44.1150  -52.8060  -21.9810 C.3   283  ARG283      0.0492
     78  CD       -43.4590  -53.6420  -23.0860 C.3   283  ARG283      0.2205
     79  NE       -44.0520  -53.2950  -24.3700 N.pl3 283  ARG283     -0.0865
     80  CZ       -44.6610  -54.1470  -25.1850 C.cat 283  ARG283      0.5346
     81  NH1      -44.6680  -55.4460  -24.9130 N.pl3 283  ARG283      0.1354
     82  NH2      -45.2440  -53.7090  -26.2960 N.pl3 283  ARG283      0.1354
     83  N        -33.9830  -54.7440  -24.5740 N.3   295  ARG295     -0.1245
     84  CA       -34.6440  -54.8820  -23.2820 C.3   295  ARG295      0.1563
     85  C        -34.7430  -56.3770  -22.9280 C.2   295  ARG295      0.2260
     86  O        -35.0720  -57.2110  -23.7710 O.2   295  ARG295     -0.2867
     87  CB       -36.0280  -54.2710  -23.3650 C.3   295  ARG295      0.0307
     88  CG       -36.7590  -54.2450  -22.0340 C.3   295  ARG295      0.0489
     89  CD       -38.0430  -53.4990  -22.2740 C.3   295  ARG295      0.2205
     90  NE       -38.8060  -53.2250  -21.0510 N.pl3 295  ARG295     -0.0865
     91  CZ       -39.8840  -53.9060  -20.6740 C.cat 295  ARG295      0.5346
     92  NH1      -40.2730  -54.9840  -21.3540 N.pl3 295  ARG295      0.1354
     93  NH2      -40.5580  -53.5410  -19.5950 N.pl3 295  ARG295      0.1354
     94  N        -35.9470  -58.7480  -19.5410 N.3   297  LEU297     -0.1245
     95  CA       -36.4450  -58.9420  -18.1810 C.3   297  LEU297      0.1561
     96  C        -36.4740  -60.4160  -17.8800 C.2   297  LEU297      0.2260
     97  O        -36.6140  -61.2420  -18.7900 O.2   297  LEU297     -0.2867
     98  CB       -37.8600  -58.3750  -17.9290 C.3   297  LEU297      0.0270
     99  CG       -38.2720  -57.0100  -18.4830 C.3   297  LEU297      0.0019
    100  CD1      -39.7320  -56.7110  -18.1030 C.3   297  LEU297      0.0001
    101  CD2      -37.3470  -55.8970  -17.9970 C.3   297  LEU297      0.0001
    102  N        -38.7930  -62.9830  -15.9800 N.3   299  ARG299     -0.1245
    103  CA       -40.1370  -63.0920  -15.4310 C.3   299  ARG299      0.1563
    104  C        -40.3130  -64.3830  -14.6880 C.2   299  ARG299      0.2260
    105  O        -39.9020  -65.4380  -15.1690 O.2   299  ARG299     -0.2867
    106  CB       -41.2370  -62.9930  -16.5130 C.3   299  ARG299      0.0307
    107  CG       -42.6620  -62.9800  -15.9120 C.3   299  ARG299      0.0489
    108  CD       -43.7510  -62.6760  -16.9190 C.3   299  ARG299      0.2205
    109  NE       -43.9060  -63.7570  -17.8990 N.pl3 299  ARG299     -0.0865
    110  CZ       -44.9470  -63.8920  -18.7140 C.cat 299  ARG299      0.5346
    111  NH1      -45.9590  -63.0350  -18.6580 N.pl3 299  ARG299      0.1354
    112  NH2      -45.0000  -64.9010  -19.5640 N.pl3 299  ARG299      0.1354
@<TRIPOS>BOND
     1    82    80    1
     2     9    10    1
     3    80    81    1
     4    80    79    2
     5    10    13    1
     6    10    11    1
     7    83    84    1
     8    79    78    1
     9    15    14    1
    10    13    14    1
    11    11    12    2
    12    75    74    2
    13    86    85    2
    14    87    84    1
    15    87    88    1
    16    84    85    1
    17    14    16    1
    18    78    77    1
    19    74    73    1
    20     3     4    2
    21     3     2    1
    22    89    88    1
    23    89    90    1
    24    77    76    1
    25    76    73    1
    26    73    72    1
    27     2     1    1
    28     2     5    1
    29    92    91    1
    30    72    70   am
    31    90    91    2
    32     8     7    1
    33    91    93    1
    34     5     6    1
    35     7     6    1
    36    23    25   ar
    37    23    22   ar
    38    25    26   ar
    39    70    69    1
    40    70    71    2
    41    69    68    1
    42    22    21    1
    43    22    24   ar
    44    21    18    1
    45   112   110    1
    46    94    95    1
    47    26    24   ar
    48    17    18    1
    49    97    96    2
    50   110   111    1
    51   110   109    2
    52    18    19    1
    53    61    60    2
    54    99   100    1
    55    99   101    1
    56    99    98    1
    57    51    52    1
    58    68    60   am
    59    35    33   ar
    60    95    98    1
    61    95    96    1
    62   109   108    1
    63    60    59    1
    64    52    53    1
    65    52    55    1
    66    34    33   ar
    67    33    32    1
    68    56    55    1
    69    19    20    2
    70    53    54    2
    71    65    67   ar
    72    65    63   ar
    73   108   107    1
    74    67    66   ar
    75    55    57    1
    76   106   107    1
    77   106   103    1
    78    59    58    1
    79    59    62    1
    80    32    31    1
    81    28    29    1
    82    28    27    1
    83    28    31    1
    84    63    62    1
    85    63    64   ar
    86    29    30    2
    87   102   103    1
    88    66    64   ar
    89    50    48    1
    90   103   104    1
    91   105   104    2
    92    49    48    1
    93    48    47    1
    94    47    44    1
    95    41    40    1
    96    44    45    1
    97    44    43    1
    98    42    40    1
    99    40    37    1
   100    45    46    2
   101    37    38    1
   102    37    36    1
   103    38    39    2
