@<TRIPOS>MOLECULE
tmp/6f2nA00.pdb
 129 126 0 0 0
SMALL
GASTEIGER

@<TRIPOS>ATOM
      1  N          8.3550   18.8420   49.7190 N.3    31  VAL31      -0.1231
      2  CA         8.3220   17.5620   49.0230 C.3    31  VAL31       0.1678
      3  C          8.4150   16.5120   50.1090 C.2    31  VAL31       0.2434
      4  O          9.4850   16.3760   50.7390 O.2    31  VAL31      -0.2733
      5  CB         9.4790   17.4100   48.0140 C.3    31  VAL31       0.0265
      6  CG1        9.4220   15.9990   47.3180 C.3    31  VAL31       0.0020
      7  CG2        9.4830   18.5240   46.9670 C.3    31  VAL31       0.0020
      8  N          7.3610   15.7160   50.3380 N.am   32  PRO32      -0.2729
      9  CA         7.4590   14.6330   51.3240 C.3    32  PRO32       0.1401
     10  C          8.1890   13.4410   50.7780 C.2    32  PRO32       0.2269
     11  O          8.2230   13.1980   49.5760 O.2    32  PRO32      -0.2865
     12  CB         5.9970   14.2620   51.5660 C.3    32  PRO32       0.0296
     13  CG         5.4220   14.4220   50.2800 C.3    32  PRO32       0.0237
     14  CD         6.0350   15.7230   49.7290 C.3    32  PRO32       0.0939
     15  N         16.4150   13.9870   53.8040 N.3    51  TRP51      -0.1241
     16  CA        16.9510   14.9560   52.8490 C.3    51  TRP51       0.1605
     17  C         18.2620   15.5730   53.2560 C.2    51  TRP51       0.2264
     18  O         19.0050   16.0150   52.3690 O.2    51  TRP51      -0.2867
     19  CB        15.9210   16.0750   52.6510 C.3    51  TRP51       0.0550
     20  CG        14.6290   15.6500   52.1040 C.ar   51  TRP51       0.0003
     21  CD1       13.5050   15.2490   52.8100 C.ar   51  TRP51       0.0946
     22  CD2       14.3010   15.5430   50.7080 C.ar   51  TRP51       0.0152
     23  NE1       12.4710   14.9740   51.9020 N.ar   51  TRP51      -0.2442
     24  CE2       12.9390   15.1390   50.6180 C.ar   51  TRP51       0.0810
     25  CE3       15.0090   15.8290   49.5010 C.ar   51  TRP51       0.0012
     26  CZ2       12.2720   15.0040   49.4000 C.ar   51  TRP51       0.0191
     27  CZ3       14.3350   15.6640   48.3070 C.ar   51  TRP51       0.0001
     28  CH2       12.9720   15.2980   48.2640 C.ar   51  TRP51       0.0015
     29  N         19.0780    4.3510   47.2870 N.3    78  HIS78      -0.1241
     30  CA        19.7930    4.8940   46.1190 C.3    78  HIS78       0.1621
     31  C         20.5050    6.1590   46.5940 C.2    78  HIS78       0.2264
     32  O         20.3910    6.5760   47.7200 O.2    78  HIS78      -0.2867
     33  CB        18.9500    5.0940   44.8590 C.3    78  HIS78       0.0745
     34  CG        17.9070    6.1520   44.9160 C.ar   78  HIS78       0.0817
     35  ND1       16.6650    5.9410   45.4520 N.ar   78  HIS78      -0.2268
     36  CD2       17.8530    7.3870   44.3490 C.ar   78  HIS78       0.1154
     37  CE1       15.9660    7.0500   45.3000 C.ar   78  HIS78       0.1986
     38  NE2       16.6290    7.9330   44.6060 N.ar   78  HIS78      -0.2212
     39  N         20.4310    9.4700   45.7800 N.3    80  HIS80      -0.1226
     40  CA        19.8470   10.8300   45.7720 C.3    80  HIS80       0.1752
     41  C         19.6600   11.3560   47.2370 C.2    80  HIS80       0.2596
     42  O         19.5450   10.6290   48.1760 O.2    80  HIS80      -0.2718
     43  CB        18.4850   10.8500   45.0630 C.3    80  HIS80       0.0759
     44  CG        18.5270   10.7810   43.5490 C.ar   80  HIS80       0.0818
     45  ND1       17.4520   10.3750   42.8020 N.ar   80  HIS80      -0.2268
     46  CD2       19.4900   11.1370   42.6730 C.ar   80  HIS80       0.1154
     47  CE1       17.7510   10.4850   41.5090 C.ar   80  HIS80       0.1986
     48  NE2       18.9780   10.9610   41.4060 N.ar   80  HIS80      -0.2212
     49  N         19.4930   12.6800   47.3440 N.am   81  ALA81      -0.1966
     50  CA        19.4640   13.3580   48.6410 C.3    81  ALA81       0.1728
     51  C         18.3400   12.8780   49.5710 C.2    81  ALA81       0.2616
     52  O         18.5290   12.8640   50.8010 O.2    81  ALA81      -0.2715
     53  CB        19.3470   14.8650   48.4560 C.3    81  ALA81       0.0334
     54  N         17.1570   12.6110   49.0560 N.am   82  ASP82      -0.1971
     55  CA        16.0480   12.1560   49.8760 C.3    82  ASP82       0.1709
     56  C         16.4010   10.9200   50.6330 C.2    82  ASP82       0.2293
     57  O         15.8670   10.6790   51.7140 O.2    82  ASP82      -0.2864
     58  CB        14.7210   12.0190   49.1400 C.3    82  ASP82       0.1436
     59  CG        14.7420   11.0290   47.9800 C.2    82  ASP82       0.3671
     60  OD1       15.7800   10.8250   47.3340 O.co2  82  ASP82      -0.2456
     61  OD2       13.6430   10.5150   47.6510 O.co2  82  ASP82      -0.2456
     62  N         14.2320    4.2130   38.2980 N.3   141  HIS141     -0.1241
     63  CA        14.3040    5.5920   38.7320 C.3   141  HIS141      0.1621
     64  C         15.7190    6.1100   38.7130 C.2   141  HIS141      0.2264
     65  O         15.9760    7.2500   38.3460 O.2   141  HIS141     -0.2867
     66  CB        13.6700    5.7130   40.1140 C.3   141  HIS141      0.0745
     67  CG        13.9770    6.9800   40.7980 C.ar  141  HIS141      0.0817
     68  ND1       13.4280    8.1970   40.4450 N.ar  141  HIS141     -0.2268
     69  CD2       14.8310    7.2300   41.7990 C.ar  141  HIS141      0.1154
     70  CE1       13.9190    9.1340   41.2500 C.ar  141  HIS141      0.1986
     71  NE2       14.7990    8.5720   42.1090 N.ar  141  HIS141     -0.2212
     72  N         11.9540    4.8390   45.4450 N.3   160  CYS160     -0.1235
     73  CA        11.5990    5.7380   44.3960 C.3   160  CYS160      0.1677
     74  C         11.4320    5.0740   43.0360 C.2   160  CYS160      0.2270
     75  O         10.9170    5.6960   42.1230 O.2   160  CYS160     -0.2867
     76  CB        12.5370    6.9000   44.3990 C.3   160  CYS160      0.0956
     77  SG        12.6600    7.6700   46.1060 S.3   160  CYS160     -0.0801
     78  N          6.0390    4.5470   42.1140 N.3   163  LYS163     -0.1245
     79  CA         5.2790    5.7800   42.2410 C.3   163  LYS163      0.1561
     80  C          3.9670    5.5710   42.9750 C.2   163  LYS163      0.2260
     81  O          3.3160    4.5320   42.8340 O.2   163  LYS163     -0.2867
     82  CB         4.9990    6.2980   40.8210 C.3   163  LYS163      0.0271
     83  CG         6.2780    6.6330   40.0430 C.3   163  LYS163      0.0035
     84  CD         7.0350    7.8140   40.6950 C.3   163  LYS163      0.0206
     85  CE         8.2130    8.3280   40.0120 C.3   163  LYS163      0.1093
     86  NZ         8.7590    9.5750   40.6510 N.3   163  LYS163     -0.1314
     87  N          6.3720   10.5510   35.9120 N.3   170  LEU170     -0.1231
     88  CA         7.5160    9.8940   36.5030 C.3   170  LEU170      0.1693
     89  C          8.3950   10.8070   37.3160 C.2   170  LEU170      0.2593
     90  O          9.3380   10.3350   37.9190 O.2   170  LEU170     -0.2718
     91  CB         8.3410    9.2660   35.3860 C.3   170  LEU170      0.0284
     92  CG         7.6220    8.1560   34.5780 C.3   170  LEU170      0.0019
     93  CD1        8.4010    7.8380   33.3250 C.3   170  LEU170      0.0001
     94  CD2        7.4240    6.9220   35.4920 C.3   170  LEU170      0.0001
     95  N          8.1380   12.0930   37.3210 N.am  171  GLY171     -0.1942
     96  CA         8.9440   12.9850   38.1010 C.3   171  GLY171      0.2014
     97  C         10.3000   13.2570   37.4650 C.2   171  GLY171      0.2638
     98  O         10.4700   13.2950   36.2520 O.2   171  GLY171     -0.2714
     99  N         11.3080   13.4170   38.2990 N.am  172  ASN172     -0.1972
    100  CA        12.6450   13.7560   37.8180 C.3   172  ASN172      0.1688
    101  C         13.2800   12.5000   37.2360 C.2   172  ASN172      0.2292
    102  O         13.5760   11.5350   37.9680 O.2   172  ASN172     -0.2864
    103  CB        13.5080   14.3840   38.9090 C.3   172  ASN172      0.1181
    104  CG        14.8060   14.9740   38.3620 C.2   172  ASN172      0.2629
    105  OD1       15.4670   14.3590   37.5580 O.2   172  ASN172     -0.2716
    106  ND2       15.1900   16.1720   38.8500 N.am  172  ASN172     -0.0877
    107  N         16.1080   12.6900   35.2280 N.3   174  ALA174     -0.1231
    108  CA        17.4650   12.9950   34.7890 C.3   174  ALA174      0.1694
    109  C         18.3870   11.7830   34.9350 C.2   174  ALA174      0.2592
    110  O         19.3120   11.5740   34.1180 O.2   174  ALA174     -0.2718
    111  CB        18.0390   14.1500   35.6280 C.3   174  ALA174      0.0304
    112  N         18.2130   11.0210   36.0030 N.am  175  ASP175     -0.1974
    113  CA        19.0700    9.9070   36.3240 C.3   175  ASP175      0.1709
    114  C         18.4190    8.5660   36.0430 C.2   175  ASP175      0.2293
    115  O         18.9500    7.5340   36.4630 O.2   175  ASP175     -0.2864
    116  CB        19.5360   10.0300   37.7820 C.3   175  ASP175      0.1436
    117  CG        20.3730   11.2700   38.0250 C.2   175  ASP175      0.3671
    118  OD1       21.1690   11.6430   37.1590 O.co2 175  ASP175     -0.2456
    119  OD2       20.2410   11.8190   39.1050 O.co2 175  ASP175     -0.2456
    120  N          7.7230    8.2990   47.7740 N.3   202  HIS202     -0.1241
    121  CA         6.9740    9.5060   48.0300 C.3   202  HIS202      0.1621
    122  C          5.4780    9.1670   47.9230 C.2   202  HIS202      0.2264
    123  O          5.0840    8.4420   47.0080 O.2   202  HIS202     -0.2867
    124  CB         7.3790   10.6470   47.0110 C.3   202  HIS202      0.0745
    125  CG         8.8900   10.8970   46.9000 C.ar  202  HIS202      0.0817
    126  ND1        9.6020   11.7800   47.6780 N.ar  202  HIS202     -0.2268
    127  CD2        9.8440   10.3020   46.0970 C.ar  202  HIS202      0.1154
    128  CE1       10.8870   11.6880   47.4130 C.ar  202  HIS202      0.1986
    129  NE2       11.0700   10.8060   46.4310 N.ar  202  HIS202     -0.2212
@<TRIPOS>BOND
     1    93    92    1
     2   110   109    2
     3    92    91    1
     4    92    94    1
     5   108   109    1
     6   108   107    1
     7   108   111    1
     8   109   112   am
     9    91    88    1
    10    87    88    1
    11   112   113    1
    12   114   113    1
    13   114   115    2
    14    98    97    2
    15   113   116    1
    16    88    89    1
    17   118   117   ar
    18   101   100    1
    19   101   102    2
    20    89    95   am
    21    89    90    2
    22    95    96    1
    23    97    96    1
    24    97    99   am
    25   105   104    2
    26   116   117    1
    27   100    99    1
    28   100   103    1
    29   117   119   ar
    30    62    63    1
    31    65    64    2
    32   104   106   am
    33   104   103    1
    34    64    63    1
    35    63    66    1
    36    85    86    1
    37    85    84    1
    38    83    84    1
    39    83    82    1
    40    66    67    1
    41    68    67   ar
    42    68    70   ar
    43    67    69   ar
    44    82    79    1
    45    70    71   ar
    46    48    47   ar
    47    48    46   ar
    48    47    45   ar
    49    69    71   ar
    50    78    79    1
    51    75    74    2
    52    79    80    1
    53    46    44   ar
    54    45    44   ar
    55    81    80    2
    56    74    73    1
    57    44    43    1
    58    36    38   ar
    59    36    34   ar
    60    73    76    1
    61    73    72    1
    62    76    77    1
    63    38    37   ar
    64    33    34    1
    65    33    30    1
    66    34    35   ar
    67    43    40    1
    68    37    35   ar
    69    40    39    1
    70    40    41    1
    71   127   129   ar
    72   127   125   ar
    73    30    31    1
    74    30    29    1
    75   129   128   ar
    76    31    32    2
    77   125   124    1
    78   125   126   ar
    79     7     5    1
    80   123   122    2
    81   124   121    1
    82    41    49   am
    83    41    42    2
    84     6     5    1
    85    60    59   ar
    86    49    50    1
    87   128   126   ar
    88    61    59   ar
    89   120   121    1
    90   122   121    1
    91    59    58    1
    92     5     2    1
    93    28    27   ar
    94    28    26   ar
    95    27    25   ar
    96    53    50    1
    97    50    51    1
    98     2     1    1
    99     2     3    1
   100    54    51   am
   101    54    55    1
   102    58    55    1
   103    26    24   ar
   104    25    22   ar
   105    51    52    2
   106    11    10    2
   107    14    13    1
   108    14     8    1
   109    55    56    1
   110     3     8   am
   111     3     4    2
   112    13    12    1
   113     8     9    1
   114    24    22   ar
   115    24    23   ar
   116    56    57    2
   117    22    20   ar
   118    10     9    1
   119     9    12    1
   120    23    21   ar
   121    20    19    1
   122    20    21   ar
   123    18    17    2
   124    19    16    1
   125    16    17    1
   126    16    15    1
