@<TRIPOS>MOLECULE
tmp/6f2uB01.pdb
 239 237 0 0 0
SMALL
GASTEIGER

@<TRIPOS>ATOM
      1  N        -43.5730  -54.2580  -69.0650 N.3    19  TYR19      -0.1241
      2  CA       -42.4150  -54.8870  -69.7000 C.3    19  TYR19       0.1605
      3  C        -41.6090  -53.8800  -70.5270 C.2    19  TYR19       0.2264
      4  O        -42.1620  -53.1720  -71.3730 O.2    19  TYR19      -0.2867
      5  CB       -42.8120  -56.0590  -70.6020 C.3    19  TYR19       0.0534
      6  CG       -41.5560  -56.6780  -71.1740 C.ar   19  TYR19      -0.0201
      7  CD1      -41.0860  -56.3220  -72.4480 C.ar   19  TYR19      -0.0009
      8  CD2      -40.7800  -57.5430  -70.3980 C.ar   19  TYR19      -0.0009
      9  CE1      -39.8980  -56.8480  -72.9500 C.ar   19  TYR19       0.0417
     10  CE2      -39.6020  -58.0820  -70.8870 C.ar   19  TYR19       0.0417
     11  CZ       -39.1600  -57.7310  -72.1580 C.ar   19  TYR19       0.1957
     12  OH       -37.9830  -58.2720  -72.6340 O.3    19  TYR19      -0.2866
     13  N        -41.1560  -63.0970  -65.2840 N.3    49  LEU49      -0.1231
     14  CA       -40.3840  -62.9680  -66.5160 C.3    49  LEU49       0.1693
     15  C        -39.7550  -61.5850  -66.6980 C.2    49  LEU49       0.2592
     16  O        -38.7000  -61.4590  -67.3330 O.2    49  LEU49      -0.2718
     17  CB       -41.2940  -63.2650  -67.7140 C.3    49  LEU49       0.0284
     18  CG       -40.7330  -63.0650  -69.1270 C.3    49  LEU49       0.0019
     19  CD1      -39.6070  -64.0450  -69.4130 C.3    49  LEU49       0.0001
     20  CD2      -41.8400  -63.1670  -70.2160 C.3    49  LEU49       0.0001
     21  N        -40.3970  -60.5330  -66.2030 N.am   50  TYR50      -0.1976
     22  CA       -40.0230  -59.1970  -66.6570 C.3    50  TYR50       0.1639
     23  C        -38.7950  -58.6310  -65.9410 C.2    50  TYR50       0.2290
     24  O        -38.2990  -57.5690  -66.3480 O.2    50  TYR50      -0.2864
     25  CB       -41.2020  -58.2320  -66.5020 C.3    50  TYR50       0.0560
     26  CG       -42.4750  -58.6290  -67.2390 C.ar   50  TYR50      -0.0198
     27  CD1      -43.6760  -57.9900  -66.9640 C.ar   50  TYR50      -0.0009
     28  CD2      -42.4860  -59.6690  -68.1750 C.ar   50  TYR50      -0.0009
     29  CE1      -44.8540  -58.3620  -67.5910 C.ar   50  TYR50       0.0417
     30  CE2      -43.6730  -60.0450  -68.8280 C.ar   50  TYR50       0.0417
     31  CZ       -44.8440  -59.3780  -68.5410 C.ar   50  TYR50       0.1957
     32  OH       -46.0210  -59.7330  -69.1540 O.3    50  TYR50      -0.2866
     33  N        -47.3720  -63.0780  -62.5710 N.3    79  LYS79      -0.1245
     34  CA       -47.6310  -64.2990  -63.3250 C.3    79  LYS79       0.1561
     35  C        -46.6110  -65.3640  -62.9350 C.2    79  LYS79       0.2260
     36  O        -45.4400  -65.0490  -62.6750 O.2    79  LYS79      -0.2867
     37  CB       -47.5970  -64.0220  -64.8370 C.3    79  LYS79       0.0271
     38  CG       -48.3620  -62.7510  -65.3120 C.3    79  LYS79       0.0035
     39  CD       -48.1480  -62.5310  -66.7870 C.3    79  LYS79       0.0206
     40  CE       -48.9090  -61.3160  -67.3530 C.3    79  LYS79       0.1093
     41  NZ       -48.0900  -60.0610  -67.2660 N.3    79  LYS79      -0.1314
     42  N        -44.2230  -68.2830  -63.8520 N.3    81  TRP81      -0.1227
     43  CA       -43.4870  -68.5400  -65.0870 C.3    81  TRP81       0.1737
     44  C        -43.4690  -70.0360  -65.3850 C.2    81  TRP81       0.2596
     45  O        -43.6850  -70.8740  -64.5050 O.2    81  TRP81      -0.2718
     46  CB       -42.0530  -67.9780  -65.0230 C.3    81  TRP81       0.0564
     47  CG       -41.2450  -68.2580  -66.2810 C.ar   81  TRP81       0.0003
     48  CD1      -40.0640  -68.9420  -66.3560 C.ar   81  TRP81       0.0946
     49  CD2      -41.5950  -67.9130  -67.6350 C.ar   81  TRP81       0.0152
     50  NE1      -39.6490  -69.0270  -67.6660 N.ar   81  TRP81      -0.2442
     51  CE2      -40.5690  -68.4060  -68.4690 C.ar   81  TRP81       0.0810
     52  CE3      -42.6710  -67.2280  -68.2210 C.ar   81  TRP81       0.0012
     53  CZ2      -40.5870  -68.2410  -69.8560 C.ar   81  TRP81       0.0191
     54  CZ3      -42.6850  -67.0530  -69.5990 C.ar   81  TRP81       0.0001
     55  CH2      -41.6500  -67.5620  -70.4030 C.ar   81  TRP81       0.0015
     56  N        -43.2230  -70.3630  -66.6600 N.am   82  SER82      -0.1952
     57  CA       -43.4720  -71.7110  -67.1680 C.3    82  SER82       0.1924
     58  C        -42.5650  -72.7740  -66.5580 C.2    82  SER82       0.2314
     59  O        -42.8740  -73.9700  -66.6640 O.2    82  SER82      -0.2863
     60  CB       -43.3240  -71.7130  -68.6860 C.3    82  SER82       0.2116
     61  OG       -44.0950  -70.6680  -69.2570 O.3    82  SER82      -0.2180
     62  N        -48.6320  -67.8530  -66.6330 N.3   112  HIS112     -0.1226
     63  CA       -48.1760  -66.9990  -67.7350 C.3   112  HIS112      0.1752
     64  C        -48.4340  -67.6590  -69.0870 C.2   112  HIS112      0.2597
     65  O        -48.8470  -66.9930  -70.0460 O.2   112  HIS112     -0.2718
     66  CB       -46.6850  -66.6710  -67.5780 C.3   112  HIS112      0.0759
     67  CG       -46.2550  -65.3980  -68.2510 C.ar  112  HIS112      0.0818
     68  ND1      -45.3430  -64.5310  -67.6830 N.ar  112  HIS112     -0.2268
     69  CD2      -46.5940  -64.8570  -69.4460 C.ar  112  HIS112      0.1154
     70  CE1      -45.1420  -63.5100  -68.4960 C.ar  112  HIS112      0.1986
     71  NE2      -45.8950  -63.6800  -69.5750 N.ar  112  HIS112     -0.2212
     72  N        -48.2300  -68.9740  -69.1830 N.am  113  SER113     -0.1938
     73  CA       -48.3260  -69.6240  -70.4890 C.3   113  SER113      0.2040
     74  C        -48.5840  -71.1100  -70.2840 C.2   113  SER113      0.2485
     75  O        -48.1240  -71.6760  -69.2920 O.2   113  SER113     -0.2729
     76  CB       -47.0430  -69.4020  -71.3010 C.3   113  SER113      0.2129
     77  OG       -46.8440  -70.3990  -72.2850 O.3   113  SER113     -0.2179
     78  N        -49.3230  -71.7640  -71.1940 N.am  114  PRO114     -0.2715
     79  CA       -49.5970  -73.2050  -71.0380 C.3   114  PRO114      0.1536
     80  C        -48.4260  -74.1180  -71.3740 C.2   114  PRO114      0.2598
     81  O        -48.5210  -75.3320  -71.1270 O.2   114  PRO114     -0.2715
     82  CB       -50.7600  -73.4440  -72.0170 C.3   114  PRO114      0.0310
     83  CG       -50.5510  -72.4220  -73.0990 C.3   114  PRO114      0.0237
     84  CD       -50.0030  -71.1930  -72.3750 C.3   114  PRO114      0.0939
     85  N        -47.3350  -73.5850  -71.9240 N.am  115  MET115     -0.1978
     86  CA       -46.2250  -74.4050  -72.4150 C.3   115  MET115      0.1605
     87  C        -45.2130  -74.6080  -71.2860 C.2   115  MET115      0.2287
     88  O        -44.3060  -73.7970  -71.0780 O.2   115  MET115     -0.2864
     89  CB       -45.6020  -73.7550  -73.6470 C.3   115  MET115      0.0413
     90  CG       -46.6010  -73.5600  -74.7940 C.3   115  MET115      0.0598
     91  SD       -45.8730  -73.0020  -76.3440 S.3   115  MET115     -0.1393
     92  CE       -45.9830  -71.2180  -76.1610 C.3   115  MET115      0.0692
     93  N        -52.6320  -66.6750  -72.3480 N.3   162  ASN162     -0.1240
     94  CA       -52.2190  -67.3680  -73.5790 C.3   162  ASN162      0.1653
     95  C        -52.8310  -68.7690  -73.6910 C.2   162  ASN162      0.2266
     96  O        -52.2640  -69.6480  -74.3320 O.2   162  ASN162     -0.2867
     97  CB       -50.6950  -67.4540  -73.7000 C.3   162  ASN162      0.1155
     98  CG       -50.0380  -66.0840  -73.7750 C.2   162  ASN162      0.2627
     99  OD1      -50.3060  -65.3070  -74.6960 O.2   162  ASN162     -0.2716
    100  ND2      -49.1810  -65.7820  -72.8000 N.am  162  ASN162     -0.0877
    101  N        -55.6530  -63.5680  -70.3210 N.3   185  GLN185     -0.1245
    102  CA       -54.9040  -62.4390  -70.8830 C.3   185  GLN185      0.1566
    103  C        -54.1860  -62.9150  -72.1480 C.2   185  GLN185      0.2260
    104  O        -53.3030  -63.7780  -72.0900 O.2   185  GLN185     -0.2867
    105  CB       -53.9190  -61.8580  -69.8600 C.3   185  GLN185      0.0367
    106  CG       -53.1450  -60.6300  -70.4160 C.3   185  GLN185      0.0905
    107  CD       -52.0170  -60.1300  -69.5080 C.2   185  GLN185      0.2608
    108  OE1      -50.8730  -60.0200  -69.9480 O.2   185  GLN185     -0.2717
    109  NE2      -52.3400  -59.8000  -68.2480 N.am  185  GLN185     -0.0878
    110  N        -53.0390  -61.9810  -76.5780 N.3   187  GLU187     -0.1245
    111  CA       -52.7760  -60.9480  -77.5800 C.3   187  GLU187      0.1567
    112  C        -54.0700  -60.5730  -78.2960 C.2   187  GLU187      0.2260
    113  O        -54.7620  -61.4430  -78.8500 O.2   187  GLU187     -0.2867
    114  CB       -51.7360  -61.4070  -78.6130 C.3   187  GLU187      0.0388
    115  CG       -51.5540  -60.3640  -79.7460 C.3   187  GLU187      0.1160
    116  CD       -50.4900  -60.7310  -80.7740 C.2   187  GLU187      0.3649
    117  OE1      -49.6940  -61.6620  -80.5150 O.co2 187  GLU187     -0.2457
    118  OE2      -50.4520  -60.0800  -81.8470 O.co2 187  GLU187     -0.2457
    119  N        -53.4460  -57.8470  -74.4400 N.3   211  TYR211     -0.1227
    120  CA       -52.0880  -57.3370  -74.5130 C.3   211  TYR211      0.1736
    121  C        -51.6680  -57.1040  -75.9600 C.2   211  TYR211      0.2596
    122  O        -52.3010  -57.5910  -76.9050 O.2   211  TYR211     -0.2718
    123  CB       -51.0980  -58.2600  -73.7750 C.3   211  TYR211      0.0548
    124  CG       -50.6630  -59.5830  -74.4200 C.ar  211  TYR211     -0.0200
    125  CD1      -49.9040  -59.6180  -75.5970 C.ar  211  TYR211     -0.0009
    126  CD2      -50.9240  -60.7990  -73.7730 C.ar  211  TYR211     -0.0009
    127  CE1      -49.4720  -60.8210  -76.1340 C.ar  211  TYR211      0.0417
    128  CE2      -50.4990  -61.9980  -74.3040 C.ar  211  TYR211      0.0417
    129  CZ       -49.7680  -62.0120  -75.4700 C.ar  211  TYR211      0.1957
    130  OH       -49.3390  -63.2290  -75.9680 O.3   211  TYR211     -0.2866
    131  N        -50.5870  -56.3260  -76.1170 N.am  212  SER212     -0.1952
    132  CA       -50.1470  -55.8270  -77.4250 C.3   212  SER212      0.1924
    133  C        -51.2910  -55.1200  -78.1450 C.2   212  SER212      0.2314
    134  O        -51.4530  -55.2120  -79.3670 O.2   212  SER212     -0.2863
    135  CB       -49.5660  -56.9480  -78.2920 C.3   212  SER212      0.2116
    136  OG       -48.3360  -57.4110  -77.7700 O.3   212  SER212     -0.2180
    137  N        -47.8190  -54.0280  -80.1470 N.3   216  SER216     -0.1202
    138  CA       -46.5710  -54.5690  -79.6160 C.3   216  SER216      0.2020
    139  C        -45.4220  -53.5710  -79.7000 C.2   216  SER216      0.2618
    140  O        -45.5100  -52.5500  -80.3890 O.2   216  SER216     -0.2717
    141  CB       -46.1590  -55.8490  -80.3390 C.3   216  SER216      0.2103
    142  OG       -45.3270  -55.5150  -81.4400 O.3   216  SER216     -0.2182
    143  N        -44.3280  -53.8740  -79.0150 N.am  217  GLN217     -0.1979
    144  CA       -43.1510  -53.0110  -79.0410 C.3   217  GLN217      0.1601
    145  C        -42.2820  -53.2720  -80.2640 C.2   217  GLN217      0.2287
    146  O        -41.2380  -52.6300  -80.4140 O.2   217  GLN217     -0.2864
    147  CB       -42.3490  -53.1990  -77.7460 C.3   217  GLN217      0.0394
    148  CG       -43.2180  -53.0450  -76.4860 C.3   217  GLN217      0.0908
    149  CD       -42.4140  -52.9400  -75.1790 C.2   217  GLN217      0.2608
    150  OE1      -41.3590  -52.3040  -75.1260 O.2   217  GLN217     -0.2717
    151  NE2      -42.9240  -53.5630  -74.1240 N.am  217  GLN217     -0.0878
    152  N        -40.3030  -55.5820  -81.0920 N.3   219  ASP219     -0.1239
    153  CA       -38.9670  -56.0740  -80.7820 C.3   219  ASP219      0.1674
    154  C        -38.5060  -57.0350  -81.8740 C.2   219  ASP219      0.2266
    155  O        -39.2140  -57.9910  -82.2080 O.2   219  ASP219     -0.2867
    156  CB       -38.9780  -56.7740  -79.4200 C.3   219  ASP219      0.1410
    157  CG       -37.5850  -56.9940  -78.8540 C.2   219  ASP219      0.3668
    158  OD1      -37.2900  -56.4600  -77.7600 O.co2 219  ASP219     -0.2456
    159  OD2      -36.7860  -57.7120  -79.4940 O.co2 219  ASP219     -0.2456
    160  N        -38.5660  -60.9150  -81.5760 N.3   222  TRP222     -0.1227
    161  CA       -39.8350  -61.6350  -81.5450 C.3   222  TRP222      0.1737
    162  C        -40.7620  -61.2820  -82.6990 C.2   222  TRP222      0.2595
    163  O        -41.5680  -62.1150  -83.1230 O.2   222  TRP222     -0.2718
    164  CB       -40.5840  -61.3460  -80.2440 C.3   222  TRP222      0.0564
    165  CG       -39.9440  -61.8670  -79.0250 C.ar  222  TRP222      0.0003
    166  CD1      -39.5220  -63.1440  -78.7960 C.ar  222  TRP222      0.0946
    167  CD2      -39.6610  -61.1260  -77.8330 C.ar  222  TRP222      0.0152
    168  NE1      -38.9890  -63.2440  -77.5300 N.ar  222  TRP222     -0.2442
    169  CE2      -39.0610  -62.0170  -76.9190 C.ar  222  TRP222      0.0810
    170  CE3      -39.8540  -59.7940  -77.4510 C.ar  222  TRP222      0.0012
    171  CZ2      -38.6510  -61.6160  -75.6420 C.ar  222  TRP222      0.0191
    172  CZ3      -39.4460  -59.3980  -76.1900 C.ar  222  TRP222      0.0001
    173  CH2      -38.8500  -60.3060  -75.3000 C.ar  222  TRP222      0.0015
    174  N        -40.6880  -60.0510  -83.1950 N.am  223  VAL223     -0.1980
    175  CA       -41.6800  -59.5280  -84.1260 C.3   223  VAL223      0.1595
    176  C        -41.0090  -59.2370  -85.4630 C.2   223  VAL223      0.2287
    177  O        -40.0130  -58.5040  -85.5210 O.2   223  VAL223     -0.2864
    178  CB       -42.3750  -58.2740  -83.5770 C.3   223  VAL223      0.0276
    179  CG1      -43.4120  -57.7900  -84.5700 C.3   223  VAL223      0.0022
    180  CG2      -43.0210  -58.5730  -82.2180 C.3   223  VAL223      0.0022
    181  N        -48.4390  -60.8560  -83.7740 N.3   300  TYR300     -0.1227
    182  CA       -47.1260  -60.2640  -83.9880 C.3   300  TYR300      0.1736
    183  C        -45.9970  -61.1480  -83.4780 C.2   300  TYR300      0.2595
    184  O        -44.8780  -61.0780  -84.0010 O.2   300  TYR300     -0.2718
    185  CB       -47.0700  -58.9010  -83.3020 C.3   300  TYR300      0.0548
    186  CG       -47.7460  -57.7850  -84.0710 C.ar  300  TYR300     -0.0200
    187  CD1      -49.0050  -57.3090  -83.6980 C.ar  300  TYR300     -0.0009
    188  CD2      -47.1160  -57.1930  -85.1610 C.ar  300  TYR300     -0.0009
    189  CE1      -49.6240  -56.2790  -84.4040 C.ar  300  TYR300      0.0417
    190  CE2      -47.7240  -56.1650  -85.8700 C.ar  300  TYR300      0.0417
    191  CZ       -48.9750  -55.7130  -85.4910 C.ar  300  TYR300      0.1957
    192  OH       -49.5620  -54.6840  -86.2080 O.3   300  TYR300     -0.2866
    193  N        -46.2740  -61.9690  -82.4680 N.am  301  PHE301     -0.1976
    194  CA       -45.2600  -62.7740  -81.7930 C.3   301  PHE301      0.1639
    195  C        -44.9150  -63.9800  -82.6520 C.2   301  PHE301      0.2290
    196  O        -45.8010  -64.7630  -83.0140 O.2   301  PHE301     -0.2864
    197  CB       -45.7800  -63.2240  -80.4290 C.3   301  PHE301      0.0560
    198  CG       -44.7320  -63.8280  -79.5260 C.ar  301  PHE301     -0.0200
    199  CD1      -44.8940  -65.1140  -79.0240 C.ar  301  PHE301     -0.0042
    200  CD2      -43.6060  -63.1030  -79.1520 C.ar  301  PHE301     -0.0042
    201  CE1      -43.9430  -65.6730  -78.1760 C.ar  301  PHE301     -0.0003
    202  CE2      -42.6570  -63.6530  -78.3000 C.ar  301  PHE301     -0.0003
    203  CZ       -42.8230  -64.9400  -77.8160 C.ar  301  PHE301     -0.0000
    204  N        -43.9170  -67.1460  -82.5280 N.3   303  SER303     -0.1217
    205  CA       -43.8750  -68.2590  -81.5930 C.3   303  SER303      0.1889
    206  C        -43.7410  -69.6030  -82.2950 C.2   303  SER303      0.2288
    207  O        -43.9200  -70.6480  -81.6580 O.2   303  SER303     -0.2866
    208  CB       -45.1370  -68.2580  -80.7310 C.3   303  SER303      0.2089
    209  OG       -46.2830  -68.1070  -81.5640 O.3   303  SER303     -0.2183
    210  N        -41.8680  -72.6410  -81.1220 N.3   306  PHE306     -0.1241
    211  CA       -42.4540  -73.4810  -80.0840 C.3   306  PHE306      0.1605
    212  C        -43.6660  -74.2590  -80.5770 C.2   306  PHE306      0.2264
    213  O        -44.3840  -74.8510  -79.7630 O.2   306  PHE306     -0.2867
    214  CB       -42.8400  -72.6360  -78.8660 C.3   306  PHE306      0.0534
    215  CG       -41.6650  -72.0350  -78.1450 C.ar  306  PHE306     -0.0203
    216  CD1      -41.8570  -71.1900  -77.0660 C.ar  306  PHE306     -0.0042
    217  CD2      -40.3660  -72.3110  -78.5450 C.ar  306  PHE306     -0.0042
    218  CE1      -40.7720  -70.6300  -76.4020 C.ar  306  PHE306     -0.0003
    219  CE2      -39.2840  -71.7510  -77.8910 C.ar  306  PHE306     -0.0003
    220  CZ       -39.4870  -70.9140  -76.8130 C.ar  306  PHE306     -0.0000
    221  N        -50.4290  -72.8990  -78.0700 N.3   313  PRO313     -0.2102
    222  CA       -51.8130  -72.4130  -78.0560 C.3   313  PRO313      0.1504
    223  C        -52.3460  -72.0180  -79.4220 C.2   313  PRO313      0.2575
    224  O        -53.5640  -71.8560  -79.5610 O.2   313  PRO313     -0.2718
    225  CB       -51.7440  -71.1980  -77.1220 C.3   313  PRO313      0.0282
    226  CG       -50.3540  -70.6830  -77.3060 C.3   313  PRO313      0.0208
    227  CD       -49.4860  -71.9000  -77.5230 C.3   313  PRO313      0.0893
    228  N        -51.4930  -71.8520  -80.4240 N.am  314  TYR314     -0.1977
    229  CA       -51.9790  -71.5250  -81.7590 C.3   314  TYR314      0.1639
    230  C        -52.0620  -72.7920  -82.6120 C.2   314  TYR314      0.2290
    231  O        -51.3850  -72.9080  -83.6310 O.2   314  TYR314     -0.2864
    232  CB       -51.0820  -70.4740  -82.4160 C.3   314  TYR314      0.0560
    233  CG       -51.0700  -69.1620  -81.6550 C.ar  314  TYR314     -0.0198
    234  CD1      -52.2600  -68.5480  -81.2870 C.ar  314  TYR314     -0.0009
    235  CD2      -49.8790  -68.5450  -81.2970 C.ar  314  TYR314     -0.0009
    236  CE1      -52.2660  -67.3530  -80.5870 C.ar  314  TYR314      0.0417
    237  CE2      -49.8730  -67.3420  -80.5900 C.ar  314  TYR314      0.0417
    238  CZ       -51.0740  -66.7530  -80.2380 C.ar  314  TYR314      0.1957
    239  OH       -51.1030  -65.5650  -79.5330 O.3   314  TYR314     -0.2866
@<TRIPOS>BOND
     1   192   191    1
     2   190   191   ar
     3   190   188   ar
     4   177   176    2
     5   191   189   ar
     6   176   175    1
     7   188   186   ar
     8   179   178    1
     9   189   187   ar
    10   175   178    1
    11   175   174    1
    12   186   187   ar
    13   186   185    1
    14   184   183    2
    15   182   181    1
    16   182   183    1
    17   182   185    1
    18   231   230    2
    19   178   180    1
    20   183   193   am
    21   174   162   am
    22   163   162    2
    23   196   195    2
    24   162   161    1
    25   195   194    1
    26   230   229    1
    27   204   205    1
    28   193   194    1
    29   232   229    1
    30   232   233    1
    31   206   207    2
    32   206   205    1
    33   155   154    2
    34   154   153    1
    35   118   116   ar
    36   194   197    1
    37   229   228    1
    38   233   235   ar
    39   233   234   ar
    40   205   208    1
    41   160   161    1
    42   209   208    1
    43   161   164    1
    44   142   141    1
    45   235   237   ar
    46   234   236   ar
    47   210   211    1
    48   152   153    1
    49   153   156    1
    50   116   117   ar
    51   116   115    1
    52   237   238   ar
    53   236   238   ar
    54   212   211    1
    55   212   213    2
    56   197   198    1
    57   228   223   am
    58   146   145    2
    59   140   139    2
    60   141   138    1
    61   145   144    1
    62   164   165    1
    63   238   239    1
    64   137   138    1
    65   211   214    1
    66   115   114    1
    67   139   138    1
    68   139   143   am
    69   224   223    2
    70   198   200   ar
    71   198   199   ar
    72   159   157   ar
    73   223   222    1
    74   156   157    1
    75   134   133    2
    76   200   202   ar
    77   144   143    1
    78   144   147    1
    79   165   166   ar
    80   165   167   ar
    81   199   201   ar
    82   214   215    1
    83   157   158   ar
    84   113   112    2
    85   166   168   ar
    86   114   111    1
    87   217   215   ar
    88   217   219   ar
    89   202   203   ar
    90   112   111    1
    91   135   136    1
    92   135   132    1
    93   201   203   ar
    94   133   132    1
    95   215   216   ar
    96   221   222    1
    97   221   227    1
    98   222   225    1
    99   219   220   ar
   100   167   170   ar
   101   167   169   ar
   102   147   148    1
   103   111   110    1
   104   168   169   ar
   105   227   226    1
   106   170   172   ar
   107   132   131    1
   108   226   225    1
   109   216   218   ar
   110   169   171   ar
   111   122   121    2
   112   220   218   ar
   113   148   149    1
   114    91    92    1
   115    91    90    1
   116   172   173   ar
   117   127   125   ar
   118   127   129   ar
   119   131   121   am
   120   130   129    1
   121   121   120    1
   122   171   173   ar
   123   125   124   ar
   124   129   128   ar
   125   149   150    2
   126   149   151   am
   127    90    89    1
   128    99    98    2
   129   120   119    1
   130   120   123    1
   131   124   123    1
   132   124   126   ar
   133    96    95    2
   134   128   126   ar
   135    98    97    1
   136    98   100   am
   137    97    94    1
   138    95    94    1
   139    89    86    1
   140    94    93    1
   141    83    84    1
   142    83    82    1
   143     9     7   ar
   144     9    11   ar
   145    12    11    1
   146     7     6   ar
   147    86    85    1
   148    86    87    1
   149    84    78    1
   150    77    76    1
   151    11    10   ar
   152   103   104    2
   153   103   102    1
   154    82    79    1
   155    85    80   am
   156    80    81    2
   157    80    79    1
   158     4     3    2
   159    76    73    1
   160    87    88    2
   161    78    79    1
   162    78    74   am
   163     6     5    1
   164     6     8   ar
   165    10     8   ar
   166   102   101    1
   167   102   105    1
   168     5     2    1
   169     3     2    1
   170    73    74    1
   171    73    72    1
   172   106   105    1
   173   106   107    1
   174    55    53   ar
   175    55    54   ar
   176    74    75    2
   177    20    18    1
   178    65    64    2
   179   108   107    2
   180    53    51   ar
   181     2     1    1
   182    54    52   ar
   183    71    69   ar
   184    71    70   ar
   185   107   109   am
   186    69    67   ar
   187    19    18    1
   188    61    60    1
   189    72    64   am
   190    32    31    1
   191    18    17    1
   192    64    63    1
   193    30    31   ar
   194    30    28   ar
   195    60    57    1
   196    31    29   ar
   197    70    68   ar
   198    51    50   ar
   199    51    49   ar
   200    67    68   ar
   201    67    66    1
   202    52    49   ar
   203    28    26   ar
   204    63    66    1
   205    63    62    1
   206    17    14    1
   207    50    48   ar
   208    49    47   ar
   209    29    27   ar
   210    40    41    1
   211    40    39    1
   212    16    15    2
   213    26    27   ar
   214    26    25    1
   215    57    56    1
   216    57    58    1
   217    39    38    1
   218    15    14    1
   219    15    21   am
   220    59    58    2
   221    56    44   am
   222    22    25    1
   223    22    21    1
   224    22    23    1
   225    14    13    1
   226    48    47   ar
   227    24    23    2
   228    47    46    1
   229    44    43    1
   230    44    45    2
   231    38    37    1
   232    43    46    1
   233    43    42    1
   234    37    34    1
   235    34    35    1
   236    34    33    1
   237    35    36    2
