@<TRIPOS>MOLECULE
tmp/6f2vB00.pdb
 155 149 0 0 0
SMALL
GASTEIGER

@<TRIPOS>ATOM
      1  N         15.9420   -8.5500    7.1520 N.3    24  ASP24      -0.1239
      2  CA        15.0720   -9.7280    7.1860 C.3    24  ASP24       0.1674
      3  C         13.7510   -9.4770    7.9110 C.2    24  ASP24       0.2266
      4  O         13.7480   -8.9460    9.0180 O.2    24  ASP24      -0.2867
      5  CB        15.8110  -10.9330    7.8030 C.3    24  ASP24       0.1410
      6  CG        15.3070  -12.2970    7.3590 C.2    24  ASP24       0.3668
      7  OD1       14.0790  -12.5200    7.3900 O.co2  24  ASP24      -0.2456
      8  OD2       16.1430  -13.1550    7.0220 O.co2  24  ASP24      -0.2456
      9  N         13.1710  -16.7710    3.9280 N.3    62  THR62      -0.1203
     10  CA        14.4730  -16.1070    3.7610 C.3    62  THR62       0.1994
     11  C         15.2910  -16.5870    2.5430 C.2    62  THR62       0.2617
     12  O         15.5860  -15.7660    1.6740 O.2    62  THR62      -0.2717
     13  CB        15.2790  -16.1910    5.0750 C.3    62  THR62       0.1784
     14  OG1       14.6240  -15.3640    6.0350 O.3    62  THR62      -0.2211
     15  CG2       16.7290  -15.7230    4.9300 C.3    62  THR62       0.0376
     16  N         15.7020  -17.8680    2.5110 N.am   63  PHE63      -0.1975
     17  CA        16.5420  -18.4190    1.4460 C.3    63  PHE63       0.1639
     18  C         15.8850  -18.3660    0.0460 C.2    63  PHE63       0.2290
     19  O         16.5660  -17.8880   -0.8660 O.2    63  PHE63      -0.2864
     20  CB        17.0470  -19.8280    1.8030 C.3    63  PHE63       0.0560
     21  CG        18.4030  -19.8510    2.4700 C.ar   63  PHE63      -0.0200
     22  CD1       18.6650  -19.0570    3.5840 C.ar   63  PHE63      -0.0042
     23  CD2       19.4120  -20.6830    2.0000 C.ar   63  PHE63      -0.0042
     24  CE1       19.9210  -19.0730    4.1940 C.ar   63  PHE63      -0.0003
     25  CE2       20.6660  -20.7060    2.6190 C.ar   63  PHE63      -0.0003
     26  CZ        20.9100  -19.9020    3.7130 C.ar   63  PHE63      -0.0000
     27  N         13.6860  -23.1710    2.9860 N.3    83  ASN83      -0.1240
     28  CA        14.8420  -23.1630    3.8900 C.3    83  ASN83       0.1653
     29  C         15.1970  -24.6120    4.2270 C.2    83  ASN83       0.2266
     30  O         16.3620  -24.9190    4.4750 O.2    83  ASN83      -0.2867
     31  CB        14.5390  -22.3880    5.1790 C.3    83  ASN83       0.1155
     32  CG        14.2080  -20.9260    4.9910 C.2    83  ASN83       0.2627
     33  OD1       14.6970  -20.2510    4.0790 O.2    83  ASN83      -0.2716
     34  ND2       13.3890  -20.3950    5.8850 N.am   83  ASN83      -0.0877
     35  N         19.1530  -24.9110    7.2450 N.3    96  LEU96      -0.1245
     36  CA        20.0100  -23.7940    7.6630 C.3    96  LEU96       0.1561
     37  C         21.0920  -24.2260    8.6580 C.2    96  LEU96       0.2260
     38  O         22.1170  -23.5530    8.7660 O.2    96  LEU96      -0.2867
     39  CB        19.1880  -22.6090    8.2210 C.3    96  LEU96       0.0270
     40  CG        17.9860  -22.0920    7.4030 C.3    96  LEU96       0.0019
     41  CD1       17.3730  -20.8640    8.0540 C.3    96  LEU96       0.0001
     42  CD2       18.3650  -21.7740    5.9640 C.3    96  LEU96       0.0001
     43  N         23.9860  -26.8160    2.9580 N.3   101  LYS101     -0.1245
     44  CA        23.6590  -25.4720    2.4630 C.3   101  LYS101      0.1561
     45  C         24.7990  -24.8780    1.6150 C.2   101  LYS101      0.2260
     46  O         24.5430  -24.0420    0.7480 O.2   101  LYS101     -0.2867
     47  CB        23.2540  -24.5200    3.6130 C.3   101  LYS101      0.0271
     48  CG        24.3430  -24.2600    4.6540 C.3   101  LYS101      0.0035
     49  CD        23.9350  -23.1990    5.6680 C.3   101  LYS101      0.0206
     50  CE        24.8610  -23.1530    6.8630 C.3   101  LYS101      0.1093
     51  NZ        26.2100  -22.6300    6.5250 N.3   101  LYS101     -0.1314
     52  N         24.5850  -12.9430    2.8250 N.3   128  TRP128     -0.1228
     53  CA        23.5150  -13.0930    1.8330 C.3   128  TRP128      0.1722
     54  C         23.4140  -14.5700    1.4720 C.2   128  TRP128      0.2437
     55  O         24.4340  -15.1550    1.1080 O.2   128  TRP128     -0.2733
     56  CB        23.7540  -12.2710    0.5470 C.3   128  TRP128      0.0563
     57  CG        22.5090  -12.0790   -0.2660 C.ar  128  TRP128      0.0003
     58  CD1       21.9460  -12.9720   -1.1300 C.ar  128  TRP128      0.0946
     59  CD2       21.6480  -10.9350   -0.2520 C.ar  128  TRP128      0.0152
     60  NE1       20.7840  -12.4570   -1.6530 N.ar  128  TRP128     -0.2442
     61  CE2       20.5830  -11.2010   -1.1420 C.ar  128  TRP128      0.0810
     62  CE3       21.6780   -9.7000    0.4180 C.ar  128  TRP128      0.0012
     63  CZ2       19.5580  -10.2780   -1.3810 C.ar  128  TRP128      0.0191
     64  CZ3       20.6700   -8.7830    0.1710 C.ar  128  TRP128      0.0001
     65  CH2       19.6090   -9.0850   -0.6950 C.ar  128  TRP128      0.0015
     66  N         22.2200  -15.2030    1.5420 N.am  129  PRO129     -0.2729
     67  CA        22.1200  -16.6220    1.1510 C.3   129  PRO129      0.1401
     68  C         22.6990  -16.8720   -0.2450 C.2   129  PRO129      0.2269
     69  O         22.2640  -16.2610   -1.2230 O.2   129  PRO129     -0.2865
     70  CB        20.6170  -16.9050    1.2340 C.3   129  PRO129      0.0296
     71  CG        20.1180  -15.9240    2.2450 C.3   129  PRO129      0.0237
     72  CD        20.9100  -14.6770    1.9730 C.3   129  PRO129      0.0939
     73  N         28.1840  -17.1310    0.6270 N.3   132  ASP132     -0.1239
     74  CA        29.2230  -17.9600    1.2380 C.3   132  ASP132      0.1674
     75  C         29.2000  -19.3850    0.6510 C.2   132  ASP132      0.2266
     76  O         29.6960  -20.3330    1.2660 O.2   132  ASP132     -0.2867
     77  CB        29.1390  -17.9300    2.7800 C.3   132  ASP132      0.1410
     78  CG        27.8360  -18.4150    3.3960 C.2   132  ASP132      0.3668
     79  OD1       26.8130  -18.4540    2.6790 O.co2 132  ASP132     -0.2456
     80  OD2       27.8300  -18.7130    4.6070 O.co2 132  ASP132     -0.2456
     81  N         28.7310  -17.2200    7.0250 N.3   146  TYR146     -0.1241
     82  CA        27.6270  -16.8170    7.8940 C.3   146  TYR146      0.1605
     83  C         27.8190  -17.1280    9.3810 C.2   146  TYR146      0.2264
     84  O         28.1890  -18.2390    9.7650 O.2   146  TYR146     -0.2867
     85  CB        26.2660  -17.3500    7.4140 C.3   146  TYR146      0.0534
     86  CG        25.1180  -16.6900    8.1480 C.ar  146  TYR146     -0.0201
     87  CD1       24.7430  -15.3800    7.8620 C.ar  146  TYR146     -0.0009
     88  CD2       24.4720  -17.3390    9.1970 C.ar  146  TYR146     -0.0009
     89  CE1       23.7300  -14.7450    8.5760 C.ar  146  TYR146      0.0417
     90  CE2       23.4590  -16.7130    9.9190 C.ar  146  TYR146      0.0417
     91  CZ        23.0890  -15.4170    9.6020 C.ar  146  TYR146      0.1957
     92  OH        22.0910  -14.8000   10.3070 O.3   146  TYR146     -0.2866
     93  N         25.4890  -15.3320   12.7510 N.3   148  ASN148     -0.1240
     94  CA        24.4760  -14.3810   13.2180 C.3   148  ASN148      0.1653
     95  C         24.9350  -13.5490   14.4210 C.2   148  ASN148      0.2266
     96  O         24.4410  -12.4360   14.6130 O.2   148  ASN148     -0.2867
     97  CB        23.1550  -15.1020   13.5270 C.3   148  ASN148      0.1155
     98  CG        23.2110  -16.1500   14.6250 C.2   148  ASN148      0.2627
     99  OD1       24.2750  -16.5310   15.1350 O.2   148  ASN148     -0.2716
    100  ND2       22.0470  -16.6530   15.0050 N.am  148  ASN148     -0.0877
    101  N         23.4940   -8.1170    4.7970 N.3   177  TYR177     -0.1241
    102  CA        22.3140   -8.7440    5.3820 C.3   177  TYR177      0.1605
    103  C         22.2610   -8.5500    6.8960 C.2   177  TYR177      0.2264
    104  O         23.2860   -8.6210    7.5810 O.2   177  TYR177     -0.2867
    105  CB        22.2530  -10.2360    4.9900 C.3   177  TYR177      0.0534
    106  CG        21.2830  -11.0700    5.7980 C.ar  177  TYR177     -0.0201
    107  CD1       19.9350  -11.1330    5.4580 C.ar  177  TYR177     -0.0009
    108  CD2       21.7140  -11.8020    6.9010 C.ar  177  TYR177     -0.0009
    109  CE1       19.0380  -11.8970    6.2010 C.ar  177  TYR177      0.0417
    110  CE2       20.8250  -12.5630    7.6560 C.ar  177  TYR177      0.0417
    111  CZ        19.4890  -12.6120    7.3000 C.ar  177  TYR177      0.1957
    112  OH        18.6210  -13.3750    8.0390 O.3   177  TYR177     -0.2866
    113  N         19.5800   -9.7230   10.3480 N.3   179  GLU179     -0.1245
    114  CA        18.5750  -10.6740   10.8500 C.3   179  GLU179      0.1567
    115  C         17.2850  -10.0260   11.3650 C.2   179  GLU179      0.2260
    116  O         16.2510  -10.6950   11.4120 O.2   179  GLU179     -0.2867
    117  CB        19.1710  -11.5770   11.9510 C.3   179  GLU179      0.0388
    118  CG        20.3700  -12.4140   11.5270 C.3   179  GLU179      0.1160
    119  CD        21.6980  -11.6890   11.3840 C.2   179  GLU179      0.3649
    120  OE1       21.8920  -10.6520   12.0590 O.co2 179  GLU179     -0.2457
    121  OE2       22.5390  -12.1470   10.5780 O.co2 179  GLU179     -0.2457
    122  N         13.0760   -9.5970   11.7040 N.3   182  ASP182     -0.1225
    123  CA        12.5140  -10.9510   11.5780 C.3   182  ASP182      0.1805
    124  C         12.5360  -11.7260   12.8950 C.2   182  ASP182      0.2598
    125  O         11.5100  -12.2980   13.2700 O.2   182  ASP182     -0.2718
    126  CB        13.2310  -11.7520   10.4810 C.3   182  ASP182      0.1424
    127  CG        12.7550  -13.1790   10.3170 C.2   182  ASP182      0.3668
    128  OD1       11.7220  -13.3840    9.6550 O.co2 182  ASP182     -0.2456
    129  OD2       13.4280  -14.0920   10.8390 O.co2 182  ASP182     -0.2456
    130  N         13.7010  -11.7580   13.5800 N.am  183  SER183     -0.1952
    131  CA        13.8940  -12.4610   14.8510 C.3   183  SER183      0.1924
    132  C         12.8930  -12.0060   15.9150 C.2   183  SER183      0.2314
    133  O         12.2880  -12.8530   16.5740 O.2   183  SER183     -0.2863
    134  CB        15.3280  -12.2990   15.3460 C.3   183  SER183      0.2116
    135  OG        16.2570  -12.8540   14.4290 O.3   183  SER183     -0.2180
    136  N          9.2360  -13.1400   15.0660 N.3   186  HIS186     -0.1241
    137  CA         8.9920  -14.5310   15.4450 C.3   186  HIS186      0.1621
    138  C          8.7400  -14.6560   16.9410 C.2   186  HIS186      0.2264
    139  O          7.9000  -15.4550   17.3520 O.2   186  HIS186     -0.2867
    140  CB        10.1700  -15.4300   15.0330 C.3   186  HIS186      0.0745
    141  CG        10.1900  -15.7950   13.5820 C.ar  186  HIS186      0.0817
    142  ND1        9.2560  -16.6630   13.0440 N.ar  186  HIS186     -0.2268
    143  CD2       11.0620  -15.4360   12.6110 C.ar  186  HIS186      0.1154
    144  CE1        9.5710  -16.7820   11.7630 C.ar  186  HIS186      0.1986
    145  NE2       10.6510  -16.0640   11.4560 N.ar  186  HIS186     -0.2212
    146  N          6.1960  -16.1740    8.8170 N.3   337  HIS337     -0.1241
    147  CA         6.0940  -15.8380    7.4020 C.3   337  HIS337      0.1621
    148  C          6.2720  -17.1340    6.6050 C.2   337  HIS337      0.2264
    149  O          6.8560  -18.0910    7.1150 O.2   337  HIS337     -0.2867
    150  CB         7.1930  -14.8300    7.0310 C.3   337  HIS337      0.0745
    151  CG         8.5540  -15.2970    7.4350 C.ar  337  HIS337      0.0817
    152  ND1        9.3060  -16.1120    6.6130 N.ar  337  HIS337     -0.2268
    153  CD2        9.2210  -15.1100    8.5960 C.ar  337  HIS337      0.1154
    154  CE1       10.4070  -16.3820    7.2880 C.ar  337  HIS337      0.1986
    155  NE2       10.4090  -15.7860    8.4790 N.ar  337  HIS337     -0.2212
@<TRIPOS>BOND
     1    60    61   ar
     2    60    58   ar
     3    63    61   ar
     4    63    65   ar
     5    69    68    2
     6    61    59   ar
     7    58    57   ar
     8    19    18    2
     9    65    64   ar
    10    57    59   ar
    11    57    56    1
    12    59    62   ar
    13    68    67    1
    14    18    17    1
    15    64    62   ar
    16    56    53    1
    17    73    74    1
    18    75    74    1
    19    75    76    2
    20    46    45    2
    21    55    54    2
    22    67    70    1
    23    67    66    1
    24    70    71    1
    25    74    77    1
    26    17    20    1
    27    17    16    1
    28    54    66   am
    29    54    53    1
    30    66    72    1
    31    45    44    1
    32    12    11    2
    33    20    21    1
    34    53    52    1
    35    72    71    1
    36    23    21   ar
    37    23    25   ar
    38    44    43    1
    39    44    47    1
    40    21    22   ar
    41    16    11   am
    42    11    10    1
    43    25    26   ar
    44    79    78   ar
    45    77    78    1
    46    27    28    1
    47    78    80   ar
    48    22    24   ar
    49    47    48    1
    50    26    24   ar
    51    10     9    1
    52    10    13    1
    53    28    29    1
    54    28    31    1
    55    33    32    2
    56    29    30    2
    57    48    49    1
    58   101   102    1
    59    15    13    1
    60   105   102    1
    61   105   106    1
    62    32    31    1
    63    32    34   am
    64    13    14    1
    65   102   103    1
    66   107   106   ar
    67   107   109   ar
    68    49    50    1
    69   106   108   ar
    70    42    40    1
    71   109   111   ar
    72    51    50    1
    73   148   149    2
    74   148   147    1
    75   152   154   ar
    76   152   151   ar
    77   103   104    2
    78   108   110   ar
    79     8     6   ar
    80    81    82    1
    81   150   147    1
    82   150   151    1
    83     1     2    1
    84     2     5    1
    85     2     3    1
    86    35    36    1
    87   154   155   ar
    88   111   110   ar
    89   111   112    1
    90     6     7   ar
    91     6     5    1
    92   147   146    1
    93    40    41    1
    94    40    39    1
    95    85    82    1
    96    85    86    1
    97   151   153   ar
    98    36    39    1
    99    36    37    1
   100    87    86   ar
   101    87    89   ar
   102    82    83    1
   103     3     4    2
   104    86    88   ar
   105   155   153   ar
   106    89    91   ar
   107    37    38    2
   108    88    90   ar
   109    83    84    2
   110    91    90   ar
   111    91    92    1
   112   128   127   ar
   113   127   126    1
   114   127   129   ar
   115   113   114    1
   116   126   123    1
   117   121   119   ar
   118   114   115    1
   119   114   117    1
   120   115   116    2
   121   119   118    1
   122   119   120   ar
   123   145   144   ar
   124   145   143   ar
   125   118   117    1
   126   123   122    1
   127   123   124    1
   128   144   142   ar
   129   143   141   ar
   130    93    94    1
   131   124   125    2
   132   124   130   am
   133   142   141   ar
   134    94    97    1
   135    94    95    1
   136    97    98    1
   137   130   131    1
   138   141   140    1
   139    95    96    2
   140   135   134    1
   141    98   100   am
   142    98    99    2
   143   131   134    1
   144   131   132    1
   145   140   137    1
   146   136   137    1
   147   137   138    1
   148   132   133    2
   149   138   139    2
