@<TRIPOS>MOLECULE
tmp/6f30B00.pdb
 217 212 0 0 0
SMALL
GASTEIGER

@<TRIPOS>ATOM
      1  N         15.7860   -8.8420    7.5650 N.3    24  ASP24      -0.1239
      2  CA        14.9000  -10.0020    7.6130 C.3    24  ASP24       0.1674
      3  C         13.5580   -9.7250    8.2890 C.2    24  ASP24       0.2266
      4  O         13.5250   -9.1610    9.3790 O.2    24  ASP24      -0.2867
      5  CB        15.6050  -11.1910    8.2860 C.3    24  ASP24       0.1410
      6  CG        15.0780  -12.5490    7.8640 C.2    24  ASP24       0.3668
      7  OD1       13.8580  -12.7700    7.9670 O.co2  24  ASP24      -0.2456
      8  OD2       15.8880  -13.3900    7.4350 O.co2  24  ASP24      -0.2456
      9  N          9.5820  -17.4980    2.8590 N.3    61  LYS61      -0.1231
     10  CA        10.6370  -17.9150    3.7780 C.3    61  LYS61       0.1693
     11  C         11.9980  -17.3890    3.3050 C.2    61  LYS61       0.2592
     12  O         12.1440  -17.0410    2.1320 O.2    61  LYS61      -0.2718
     13  CB        10.6190  -19.4440    3.9590 C.3    61  LYS61       0.0285
     14  CG         9.3850  -19.9210    4.7290 C.3    61  LYS61       0.0035
     15  CD         9.3780  -21.4100    4.9840 C.3    61  LYS61       0.0206
     16  CE         8.0570  -21.8730    5.5460 C.3    61  LYS61       0.1093
     17  NZ         8.1230  -23.2800    6.0220 N.3    61  LYS61      -0.1314
     18  N         12.9690  -17.3020    4.2310 N.am   62  ALA62      -0.1966
     19  CA        14.3190  -16.7450    4.0690 C.3    62  ALA62       0.1728
     20  C         15.1330  -17.2130    2.8530 C.2    62  ALA62       0.2616
     21  O         15.4950  -16.3770    2.0280 O.2    62  ALA62      -0.2715
     22  CB        15.1300  -16.9800    5.3330 C.3    62  ALA62       0.0334
     23  N         15.4850  -18.5080    2.7790 N.am   63  PHE63      -0.1974
     24  CA        16.3420  -19.0570    1.7250 C.3    63  PHE63       0.1639
     25  C         15.6930  -19.0430    0.3230 C.2    63  PHE63       0.2290
     26  O         16.3830  -18.5890   -0.5940 O.2    63  PHE63      -0.2864
     27  CB        16.8800  -20.4430    2.1100 C.3    63  PHE63       0.0560
     28  CG        18.1780  -20.3930    2.8870 C.ar   63  PHE63      -0.0200
     29  CD1       18.2870  -19.6350    4.0490 C.ar   63  PHE63      -0.0042
     30  CD2       19.2880  -21.1120    2.4640 C.ar   63  PHE63      -0.0042
     31  CE1       19.4930  -19.5690    4.7510 C.ar   63  PHE63      -0.0003
     32  CE2       20.4910  -21.0600    3.1770 C.ar   63  PHE63      -0.0003
     33  CZ        20.5840  -20.2920    4.3180 C.ar   63  PHE63      -0.0000
     34  N         13.5910  -24.0830    3.2800 N.3    83  ASN83      -0.1240
     35  CA        14.7600  -24.1270    4.1630 C.3    83  ASN83       0.1653
     36  C         15.0190  -25.5760    4.5530 C.2    83  ASN83       0.2266
     37  O         16.1620  -25.9540    4.8050 O.2    83  ASN83      -0.2867
     38  CB        14.5290  -23.2760    5.4070 C.3    83  ASN83       0.1155
     39  CG        13.9220  -21.9310    5.1000 C.2    83  ASN83       0.2627
     40  OD1       12.7370  -21.6990    5.3390 O.2    83  ASN83      -0.2716
     41  ND2       14.7280  -20.9950    4.6190 N.am   83  ASN83      -0.0877
     42  N         19.1920  -25.7320    7.4440 N.3    96  LEU96      -0.1245
     43  CA        20.1270  -24.6850    7.8820 C.3    96  LEU96       0.1561
     44  C         21.1030  -25.1930    8.9480 C.2    96  LEU96       0.2260
     45  O         22.2240  -24.6890    9.0330 O.2    96  LEU96      -0.2867
     46  CB        19.3860  -23.4310    8.4030 C.3    96  LEU96       0.0270
     47  CG        18.0500  -23.0320    7.7520 C.3    96  LEU96       0.0019
     48  CD1       17.3580  -21.9470    8.5530 C.3    96  LEU96       0.0001
     49  CD2       18.2280  -22.5920    6.3110 C.3    96  LEU96       0.0001
     50  N         23.6690  -27.5990    3.6090 N.3   101  LYS101     -0.1245
     51  CA        23.3500  -26.2340    3.1750 C.3   101  LYS101      0.1561
     52  C         24.5050  -25.6190    2.3590 C.2   101  LYS101      0.2260
     53  O         24.2760  -24.6970    1.5740 O.2   101  LYS101     -0.2867
     54  CB        22.9320  -25.3310    4.3590 C.3   101  LYS101      0.0271
     55  CG        24.0500  -24.9650    5.3360 C.3   101  LYS101      0.0035
     56  CD        23.7740  -23.6410    6.0340 C.3   101  LYS101      0.0206
     57  CE        24.9590  -23.1800    6.8480 C.3   101  LYS101      0.1093
     58  NZ        24.7330  -21.8360    7.4400 N.3   101  LYS101     -0.1314
     59  N         27.2270  -11.8660    4.8510 N.3   127  TYR127     -0.1227
     60  CA        26.0240  -12.6840    5.0200 C.3   127  TYR127      0.1736
     61  C         25.0040  -12.4430    3.9250 C.2   127  TYR127      0.2595
     62  O         24.6490  -11.3020    3.6290 O.2   127  TYR127     -0.2718
     63  CB        25.3700  -12.5750    6.4200 C.3   127  TYR127      0.0548
     64  CG        26.2940  -12.7880    7.6030 C.ar  127  TYR127     -0.0200
     65  CD1       27.3170  -13.7330    7.5560 C.ar  127  TYR127     -0.0009
     66  CD2       26.0960  -12.1020    8.7970 C.ar  127  TYR127     -0.0009
     67  CE1       28.1680  -13.9310    8.6420 C.ar  127  TYR127      0.0417
     68  CE2       26.9270  -12.3090    9.8970 C.ar  127  TYR127      0.0417
     69  CZ        27.9610  -13.2270    9.8150 C.ar  127  TYR127      0.1957
     70  OH        28.7750  -13.4460   10.8970 O.3   127  TYR127     -0.2866
     71  N         24.5700  -13.5430    3.3060 N.am  128  TRP128     -0.1963
     72  CA        23.5420  -13.6670    2.2760 C.3   128  TRP128      0.1756
     73  C         23.4290  -15.1460    1.9170 C.2   128  TRP128      0.2461
     74  O         24.4440  -15.7480    1.5520 O.2   128  TRP128     -0.2730
     75  CB        23.8160  -12.8240    1.0130 C.3   128  TRP128      0.0590
     76  CG        22.5730  -12.6000    0.2050 C.ar  128  TRP128      0.0006
     77  CD1       22.0030  -13.4680   -0.6810 C.ar  128  TRP128      0.0946
     78  CD2       21.6910  -11.4740    0.2880 C.ar  128  TRP128      0.0152
     79  NE1       20.8300  -12.9450   -1.1690 N.ar  128  TRP128     -0.2442
     80  CE2       20.6230  -11.7120   -0.6070 C.ar  128  TRP128      0.0810
     81  CE3       21.7110  -10.2700    1.0140 C.ar  128  TRP128      0.0012
     82  CZ2       19.5880  -10.7890   -0.8000 C.ar  128  TRP128      0.0191
     83  CZ3       20.6990   -9.3480    0.8030 C.ar  128  TRP128      0.0001
     84  CH2       19.6350   -9.6240   -0.0680 C.ar  128  TRP128      0.0015
     85  N         22.2290  -15.7640    2.0430 N.am  129  PRO129     -0.2727
     86  CA        22.0970  -17.1930    1.7050 C.3   129  PRO129      0.1402
     87  C         22.6340  -17.5130    0.3100 C.2   129  PRO129      0.2269
     88  O         22.2060  -16.9140   -0.6770 O.2   129  PRO129     -0.2865
     89  CB        20.5910  -17.4480    1.8340 C.3   129  PRO129      0.0296
     90  CG        20.1370  -16.4330    2.8270 C.3   129  PRO129      0.0237
     91  CD        20.9410  -15.2060    2.5000 C.3   129  PRO129      0.0939
     92  N         28.0160  -17.9310    1.1800 N.3   132  ASP132     -0.1239
     93  CA        28.9360  -18.7400    1.9840 C.3   132  ASP132      0.1674
     94  C         28.9410  -20.1940    1.4450 C.2   132  ASP132      0.2266
     95  O         29.3150  -21.1310    2.1550 O.2   132  ASP132     -0.2867
     96  CB        28.5730  -18.6590    3.4850 C.3   132  ASP132      0.1410
     97  CG        27.1870  -19.1590    3.8610 C.2   132  ASP132      0.3668
     98  OD1       26.2270  -18.8820    3.1060 O.co2 132  ASP132     -0.2456
     99  OD2       27.0520  -19.7750    4.9400 O.co2 132  ASP132     -0.2456
    100  N         28.2120  -17.8890    7.6730 N.3   146  TYR146     -0.1241
    101  CA        27.1270  -17.4200    8.5320 C.3   146  TYR146      0.1605
    102  C         27.2810  -17.7580   10.0200 C.2   146  TYR146      0.2264
    103  O         27.5840  -18.8930   10.3930 O.2   146  TYR146     -0.2867
    104  CB        25.7450  -17.8610    8.0250 C.3   146  TYR146      0.0534
    105  CG        24.6120  -17.2280    8.8070 C.ar  146  TYR146     -0.0201
    106  CD1       24.3180  -15.8730    8.6760 C.ar  146  TYR146     -0.0009
    107  CD2       23.8840  -17.9660    9.7360 C.ar  146  TYR146     -0.0009
    108  CE1       23.2990  -15.2780    9.4190 C.ar  146  TYR146      0.0417
    109  CE2       22.8690  -17.3800   10.4890 C.ar  146  TYR146      0.0417
    110  CZ        22.5720  -16.0380   10.3200 C.ar  146  TYR146      0.1957
    111  OH        21.5620  -15.4670   11.0530 O.3   146  TYR146     -0.2866
    112  N         25.0960  -15.7700   13.4360 N.3   148  ASN148     -0.1240
    113  CA        24.1800  -14.7340   13.9240 C.3   148  ASN148      0.1653
    114  C         24.7170  -13.9260   15.1160 C.2   148  ASN148      0.2266
    115  O         24.1770  -12.8570   15.4130 O.2   148  ASN148     -0.2867
    116  CB        22.7970  -15.3300   14.2470 C.3   148  ASN148      0.1155
    117  CG        22.7900  -16.5470   15.1530 C.2   148  ASN148      0.2627
    118  OD1       23.6360  -16.7230   16.0410 O.2   148  ASN148     -0.2716
    119  ND2       21.7940  -17.4010   14.9700 N.am  148  ASN148     -0.0877
    120  N         23.3700   -8.6020    5.4360 N.3   177  TYR177     -0.1241
    121  CA        22.1770   -9.1990    6.0210 C.3   177  TYR177      0.1605
    122  C         22.0850   -8.9450    7.5280 C.2   177  TYR177      0.2264
    123  O         23.0870   -9.0350    8.2420 O.2   177  TYR177     -0.2867
    124  CB        22.1090  -10.7050    5.6750 C.3   177  TYR177      0.0534
    125  CG        21.0880  -11.4950    6.4640 C.ar  177  TYR177     -0.0201
    126  CD1       19.7590  -11.5590    6.0560 C.ar  177  TYR177     -0.0009
    127  CD2       21.4490  -12.1740    7.6250 C.ar  177  TYR177     -0.0009
    128  CE1       18.8120  -12.2690    6.7910 C.ar  177  TYR177      0.0417
    129  CE2       20.5090  -12.8760    8.3740 C.ar  177  TYR177      0.0417
    130  CZ        19.1930  -12.9270    7.9500 C.ar  177  TYR177      0.1957
    131  OH        18.2760  -13.6280    8.6900 O.3   177  TYR177     -0.2866
    132  N         19.3730   -9.9870   10.9210 N.3   179  GLU179     -0.1245
    133  CA        18.3540  -10.9250   11.4120 C.3   179  GLU179      0.1567
    134  C         17.0330  -10.2800   11.8350 C.2   179  GLU179      0.2260
    135  O         15.9930  -10.9320   11.7460 O.2   179  GLU179     -0.2867
    136  CB        18.9040  -11.7900   12.5640 C.3   179  GLU179      0.0388
    137  CG        20.0430  -12.7290   12.1850 C.3   179  GLU179      0.1160
    138  CD        21.4130  -12.1050   11.9810 C.2   179  GLU179      0.3649
    139  OE1       21.6570  -10.9990   12.5150 O.co2 179  GLU179     -0.2457
    140  OE2       22.2440  -12.7230   11.2790 O.co2 179  GLU179     -0.2457
    141  N         12.8180   -9.7680   12.0800 N.3   182  ASP182     -0.1239
    142  CA        12.2530  -11.1210   11.9800 C.3   182  ASP182      0.1674
    143  C         12.2440  -11.8770   13.3080 C.2   182  ASP182      0.2266
    144  O         11.2100  -12.4520   13.6590 O.2   182  ASP182     -0.2867
    145  CB        12.9630  -11.9440   10.8980 C.3   182  ASP182      0.1410
    146  CG        12.4800  -13.3720   10.7740 C.2   182  ASP182      0.3668
    147  OD1       11.4820  -13.5970   10.0690 O.co2 182  ASP182     -0.2456
    148  OD2       13.1010  -14.2620   11.3880 O.co2 182  ASP182     -0.2456
    149  N          8.8490  -13.2540   15.4200 N.3   186  HIS186     -0.1241
    150  CA         8.5700  -14.6320   15.8230 C.3   186  HIS186      0.1621
    151  C          8.2370  -14.7390   17.3100 C.2   186  HIS186      0.2264
    152  O          7.3610  -15.5250   17.6830 O.2   186  HIS186     -0.2867
    153  CB         9.7470  -15.5610   15.4750 C.3   186  HIS186      0.0745
    154  CG         9.8030  -15.9590   14.0320 C.ar  186  HIS186      0.0817
    155  ND1        8.8740  -16.8300   13.4850 N.ar  186  HIS186     -0.2268
    156  CD2       10.6940  -15.6140   13.0740 C.ar  186  HIS186      0.1154
    157  CE1        9.2150  -16.9680   12.2130 C.ar  186  HIS186      0.1986
    158  NE2       10.3010  -16.2560   11.9170 N.ar  186  HIS186     -0.2212
    159  N         10.5670  -11.2160    3.2670 N.3   230  HIS230     -0.1241
    160  CA         9.1360  -11.4670    3.4860 C.3   230  HIS230      0.1621
    161  C          8.6040  -10.5530    4.5940 C.2   230  HIS230      0.2264
    162  O          9.3660   -9.8170    5.2210 O.2   230  HIS230     -0.2867
    163  CB         8.9130  -12.9360    3.9200 C.3   230  HIS230      0.0745
    164  CG         9.8460  -13.3660    5.0100 C.ar  230  HIS230      0.0817
    165  ND1        9.7430  -12.8580    6.2930 N.ar  230  HIS230     -0.2268
    166  CD2       10.9040  -14.2040    4.9550 C.ar  230  HIS230      0.1154
    167  CE1       10.7420  -13.3940    6.9690 C.ar  230  HIS230      0.1986
    168  NE2       11.4660  -14.2120    6.2070 N.ar  230  HIS230     -0.2212
    169  N          5.6370  -29.2540    8.3340 N.3   256  GLN256     -0.1231
    170  CA         4.6360  -28.4720    9.0700 C.3   256  GLN256      0.1698
    171  C          4.8220  -26.9440    9.0020 C.2   256  GLN256      0.2593
    172  O          5.8990  -26.4640    8.6360 O.2   256  GLN256     -0.2718
    173  CB         4.5900  -28.9490   10.5340 C.3   256  GLN256      0.0381
    174  CG         4.2680  -30.4380   10.6900 C.3   256  GLN256      0.0905
    175  CD         4.8050  -31.0370   11.9670 C.2   256  GLN256      0.2608
    176  OE1        4.0480  -31.4790   12.8350 O.2   256  GLN256     -0.2717
    177  NE2        6.1240  -31.1120   12.0910 N.am  256  GLN256     -0.0878
    178  N          3.7590  -26.2080    9.3530 N.am  257  GLY257     -0.1943
    179  CA         3.7640  -24.7500    9.4140 C.3   257  GLY257      0.1998
    180  C          2.8130  -24.0150    8.4850 C.2   257  GLY257      0.2480
    181  O          1.6850  -24.4650    8.2640 O.2   257  GLY257     -0.2729
    182  N          3.2490  -22.8490    7.9440 N.am  258  PRO258     -0.2726
    183  CA         2.3640  -22.0520    7.0760 C.3   258  PRO258      0.1402
    184  C          2.3160  -22.4520    5.6000 C.2   258  PRO258      0.2269
    185  O          1.4150  -22.0010    4.8940 O.2   258  PRO258     -0.2865
    186  CB         2.9030  -20.6350    7.2500 C.3   258  PRO258      0.0296
    187  CG         4.3450  -20.8220    7.5330 C.3   258  PRO258      0.0237
    188  CD         4.5460  -22.1720    8.1510 C.3   258  PRO258      0.0939
    189  N         -0.1950  -28.7260   11.3640 N.3   326  TYR326     -0.1241
    190  CA         0.7560  -29.6590   11.9720 C.3   326  TYR326      0.1605
    191  C          0.2540  -31.1050   11.9250 C.2   326  TYR326      0.2264
    192  O         -0.9350  -31.3350   11.6860 O.2   326  TYR326     -0.2867
    193  CB         1.0610  -29.2290   13.4230 C.3   326  TYR326      0.0534
    194  CG         2.0690  -28.1040   13.5290 C.ar  326  TYR326     -0.0201
    195  CD1        1.6900  -26.7780   13.3300 C.ar  326  TYR326     -0.0009
    196  CD2        3.3960  -28.3600   13.8580 C.ar  326  TYR326     -0.0009
    197  CE1        2.6160  -25.7400   13.4170 C.ar  326  TYR326      0.0417
    198  CE2        4.3310  -27.3300   13.9500 C.ar  326  TYR326      0.0417
    199  CZ         3.9350  -26.0200   13.7320 C.ar  326  TYR326      0.1957
    200  OH         4.8480  -25.0000   13.8350 O.3   326  TYR326     -0.2866
    201  N          4.7270  -15.7490   12.5540 N.3   336  THR336     -0.1203
    202  CA         5.4850  -16.4550   11.5180 C.3   336  THR336      0.1994
    203  C          5.1670  -15.9120   10.1110 C.2   336  THR336      0.2617
    204  O          4.2960  -15.0550    9.9290 O.2   336  THR336     -0.2717
    205  CB         5.3590  -17.9970   11.6290 C.3   336  THR336      0.1784
    206  OG1        6.5050  -18.5840   11.0100 O.3   336  THR336     -0.2211
    207  CG2        4.0820  -18.5550   10.9950 C.3   336  THR336      0.0376
    208  N          5.9110  -16.4320    9.1330 N.am  337  HIS337     -0.1975
    209  CA         5.8440  -16.1390    7.7080 C.3   337  HIS337      0.1656
    210  C          6.0390  -17.4670    6.9560 C.2   337  HIS337      0.2291
    211  O          6.5220  -18.4380    7.5400 O.2   337  HIS337     -0.2864
    212  CB         6.9460  -15.1340    7.3380 C.3   337  HIS337      0.0771
    213  CG         8.2970  -15.5800    7.7860 C.ar  337  HIS337      0.0820
    214  ND1        9.0830  -16.3910    6.9940 N.ar  337  HIS337     -0.2267
    215  CD2        8.9240  -15.3760    8.9640 C.ar  337  HIS337      0.1154
    216  CE1       10.1670  -16.6400    7.7030 C.ar  337  HIS337      0.1986
    217  NE2       10.1240  -16.0360    8.8890 N.ar  337  HIS337     -0.2212
@<TRIPOS>BOND
     1    79    77   ar
     2    79    80   ar
     3    82    80   ar
     4    82    84   ar
     5    77    76   ar
     6    88    87    2
     7    80    78   ar
     8    26    25    2
     9    84    83   ar
    10    76    78   ar
    11    76    75    1
    12    78    81   ar
    13    87    86    1
    14    25    24    1
    15    83    81   ar
    16    75    72    1
    17    92    93    1
    18    94    93    1
    19    94    95    2
    20    74    73    2
    21    53    52    2
    22    86    89    1
    23    86    85    1
    24    24    27    1
    25    24    23    1
    26    89    90    1
    27    73    85   am
    28    73    72    1
    29    93    96    1
    30    21    20    2
    31    85    91    1
    32    27    28    1
    33    12    11    2
    34    72    71    1
    35    52    51    1
    36    30    28   ar
    37    30    32   ar
    38    91    90    1
    39    23    20   am
    40    20    19    1
    41     9    10    1
    42    28    29   ar
    43    98    97   ar
    44    51    50    1
    45    51    54    1
    46    32    33   ar
    47   159   160    1
    48    34    35    1
    49    11    10    1
    50    11    18   am
    51    71    61   am
    52    96    97    1
    53   160   163    1
    54   160   161    1
    55    62    61    2
    56    10    13    1
    57    97    99   ar
    58   163   164    1
    59    61    60    1
    60    13    14    1
    61    29    31   ar
    62    19    18    1
    63    19    22    1
    64    35    36    1
    65    35    38    1
    66    33    31   ar
    67    54    55    1
    68    36    37    2
    69   161   162    2
    70    41    39   am
    71    14    15    1
    72    59    60    1
    73   185   184    2
    74   166   164   ar
    75   166   168   ar
    76    15    16    1
    77   164   165   ar
    78    60    63    1
    79    39    40    2
    80    39    38    1
    81    55    56    1
    82   120   121    1
    83    16    17    1
    84   184   183    1
    85   124   121    1
    86   124   125    1
    87   121   122    1
    88    56    57    1
    89   126   125   ar
    90   126   128   ar
    91   168   167   ar
    92   165   167   ar
    93    49    47    1
    94    63    64    1
    95   125   127   ar
    96   128   130   ar
    97    57    58    1
    98   210   211    2
    99   210   209    1
   100   214   216   ar
   101   214   213   ar
   102   183   186    1
   103   183   182    1
   104   186   187    1
   105   212   209    1
   106   212   213    1
   107     8     6   ar
   108    42    43    1
   109   122   123    2
   110   187   188    1
   111    65    64   ar
   112    65    67   ar
   113     1     2    1
   114    64    66   ar
   115     2     5    1
   116     2     3    1
   117   127   129   ar
   118   100   101    1
   119   216   217   ar
   120   209   208    1
   121    47    46    1
   122    47    48    1
   123   213   215   ar
   124     6     7   ar
   125     6     5    1
   126    43    46    1
   127    43    44    1
   128   182   188    1
   129   182   180   am
   130   130   129   ar
   131   130   131    1
   132   104   101    1
   133   104   105    1
   134   181   180    2
   135     3     4    2
   136   169   170    1
   137   180   179    1
   138   101   102    1
   139   172   171    2
   140    67    69   ar
   141   106   105   ar
   142   106   108   ar
   143    66    68   ar
   144   105   107   ar
   145   217   215   ar
   146    44    45    2
   147   171   170    1
   148   171   178   am
   149   170   173    1
   150   208   203   am
   151   178   179    1
   152   108   110   ar
   153   107   109   ar
   154    69    68   ar
   155    69    70    1
   156   204   203    2
   157   102   103    2
   158   147   146   ar
   159   203   202    1
   160   110   109   ar
   161   110   111    1
   162   173   174    1
   163   174   175    1
   164   146   145    1
   165   146   148   ar
   166   145   142    1
   167   132   133    1
   168   207   205    1
   169   206   205    1
   170   140   138   ar
   171   189   190    1
   172   133   134    1
   173   133   136    1
   174   202   205    1
   175   202   201    1
   176   192   191    2
   177   135   134    2
   178   158   157   ar
   179   158   156   ar
   180   191   190    1
   181   175   177   am
   182   175   176    2
   183   190   193    1
   184   142   141    1
   185   142   143    1
   186   138   137    1
   187   138   139   ar
   188   137   136    1
   189   157   155   ar
   190   156   154   ar
   191   143   144    2
   192   195   197   ar
   193   195   194   ar
   194   197   199   ar
   195   193   194    1
   196   112   113    1
   197   155   154   ar
   198   194   196   ar
   199   199   200    1
   200   199   198   ar
   201   196   198   ar
   202   113   116    1
   203   113   114    1
   204   154   153    1
   205   116   117    1
   206   119   117   am
   207   114   115    2
   208   117   118    2
   209   149   150    1
   210   153   150    1
   211   150   151    1
   212   151   152    2
