@<TRIPOS>MOLECULE
tmp/6f32B01.pdb
 112 107 0 0 0
SMALL
GASTEIGER

@<TRIPOS>ATOM
      1  N         12.5070   38.4340  -19.1210 N.3    63  HIS63      -0.1241
      2  CA        13.3660   37.5530  -19.8940 C.3    63  HIS63       0.1621
      3  C         14.3350   38.1960  -20.8350 C.2    63  HIS63       0.2264
      4  O         14.0210   39.1740  -21.5200 O.2    63  HIS63      -0.2867
      5  CB        12.5340   36.5560  -20.6750 C.3    63  HIS63       0.0745
      6  CG        11.8410   35.5730  -19.8010 C.ar   63  HIS63       0.0817
      7  ND1       12.5550   34.6690  -19.0190 N.ar   63  HIS63      -0.2268
      8  CD2       10.5240   35.3840  -19.6030 C.ar   63  HIS63       0.1154
      9  CE1       11.6410   33.9720  -18.3640 C.ar   63  HIS63       0.1986
     10  NE2       10.4070   34.3480  -18.7090 N.ar   63  HIS63      -0.2212
     11  N         20.8980   37.0910  -27.0580 N.3    68  LEU68      -0.1245
     12  CA        19.8020   37.9550  -27.4930 C.3    68  LEU68       0.1561
     13  C         19.8900   39.3840  -26.9480 C.2    68  LEU68       0.2260
     14  O         19.5850   40.3430  -27.6630 O.2    68  LEU68      -0.2867
     15  CB        18.4690   37.3060  -27.0780 C.3    68  LEU68       0.0270
     16  CG        17.1940   38.0500  -27.4500 C.3    68  LEU68       0.0019
     17  CD1       16.9180   37.9640  -28.9400 C.3    68  LEU68       0.0001
     18  CD2       16.0270   37.5170  -26.6910 C.3    68  LEU68       0.0001
     19  N          4.8310   36.5380  -24.8200 N.3   161  TYR161     -0.1241
     20  CA         5.4310   37.8480  -25.0570 C.3   161  TYR161      0.1605
     21  C          4.3360   38.8420  -25.3630 C.2   161  TYR161      0.2264
     22  O          4.2810   39.9260  -24.7710 O.2   161  TYR161     -0.2867
     23  CB         6.3800   37.8180  -26.2850 C.3   161  TYR161      0.0534
     24  CG         7.4310   36.7290  -26.3410 C.ar  161  TYR161     -0.0201
     25  CD1        7.4830   35.7280  -25.3790 C.ar  161  TYR161     -0.0009
     26  CD2        8.3480   36.6740  -27.3850 C.ar  161  TYR161     -0.0009
     27  CE1        8.4190   34.7070  -25.4510 C.ar  161  TYR161      0.0417
     28  CE2        9.3300   35.6890  -27.4350 C.ar  161  TYR161      0.0417
     29  CZ         9.3610   34.7050  -26.4660 C.ar  161  TYR161      0.1957
     30  OH        10.3010   33.7100  -26.5390 O.3   161  TYR161     -0.2866
     31  N          9.7090   37.6440  -36.7060 N.3   175  TYR175     -0.1241
     32  CA         9.6740   37.6790  -35.2460 C.3   175  TYR175      0.1605
     33  C          9.3720   36.2710  -34.6770 C.2   175  TYR175      0.2264
     34  O         10.0670   35.8270  -33.7650 O.2   175  TYR175     -0.2867
     35  CB         8.6690   38.7480  -34.7720 C.3   175  TYR175      0.0534
     36  CG         8.0600   38.5160  -33.4110 C.ar  175  TYR175     -0.0201
     37  CD1        8.7640   38.8160  -32.2500 C.ar  175  TYR175     -0.0009
     38  CD2        6.7670   38.0250  -33.2810 C.ar  175  TYR175     -0.0009
     39  CE1        8.2020   38.6170  -30.9920 C.ar  175  TYR175      0.0417
     40  CE2        6.1980   37.8100  -32.0280 C.ar  175  TYR175      0.0417
     41  CZ         6.9180   38.1120  -30.8850 C.ar  175  TYR175      0.1957
     42  OH         6.3520   37.9240  -29.6510 O.3   175  TYR175     -0.2866
     43  N         12.3390   33.6530  -35.9320 N.3   178  LEU178     -0.1231
     44  CA        13.5190   33.8280  -35.0800 C.3   178  LEU178      0.1693
     45  C         13.3020   33.3930  -33.6330 C.2   178  LEU178      0.2592
     46  O         14.2510   32.9000  -33.0340 O.2   178  LEU178     -0.2718
     47  CB        14.0880   35.2540  -35.1440 C.3   178  LEU178      0.0284
     48  CG        14.4510   35.7790  -36.5430 C.3   178  LEU178      0.0019
     49  CD1       14.7520   37.2540  -36.5080 C.3   178  LEU178      0.0001
     50  CD2       15.5860   34.9890  -37.1870 C.3   178  LEU178      0.0001
     51  N         12.0650   33.5170  -33.0820 N.am  179  SER179     -0.1952
     52  CA        11.7480   33.0600  -31.7200 C.3   179  SER179      0.1924
     53  C         11.8800   31.5390  -31.6450 C.2   179  SER179      0.2314
     54  O         12.2490   31.0090  -30.6040 O.2   179  SER179     -0.2863
     55  CB        10.3440   33.4900  -31.3060 C.3   179  SER179      0.2116
     56  OG        10.2700   34.9010  -31.1990 O.3   179  SER179     -0.2180
     57  N         15.9420   30.5290  -32.7690 N.3   182  MET182     -0.1245
     58  CA        16.8520   30.8000  -31.6570 C.3   182  MET182      0.1570
     59  C         16.4170   30.1520  -30.3420 C.2   182  MET182      0.2261
     60  O         16.7620   30.6700  -29.2830 O.2   182  MET182     -0.2867
     61  CB        17.0030   32.3090  -31.4370 C.3   182  MET182      0.0387
     62  CG        17.6120   33.0480  -32.5820 C.3   182  MET182      0.0595
     63  SD        17.2260   34.7920  -32.3520 S.3   182  MET182     -0.1393
     64  CE        18.0120   35.4720  -33.7620 C.3   182  MET182      0.0692
     65  N         13.8520   30.2280  -28.4240 N.3   184  LEU184     -0.1245
     66  CA        13.2140   31.0780  -27.4170 C.3   184  LEU184      0.1561
     67  C         11.8620   30.4520  -27.1410 C.2   184  LEU184      0.2260
     68  O         11.4430   30.3290  -25.9890 O.2   184  LEU184     -0.2867
     69  CB        13.0690   32.5310  -27.8900 C.3   184  LEU184      0.0270
     70  CG        14.3440   33.2680  -28.3420 C.3   184  LEU184      0.0019
     71  CD1       14.0280   34.6820  -28.7840 C.3   184  LEU184      0.0001
     72  CD2       15.4090   33.3060  -27.2540 C.3   184  LEU184      0.0001
     73  N         16.2060   30.6380  -21.4790 N.3   193  TRP193     -0.1241
     74  CA        15.9060   31.9370  -20.9130 C.3   193  TRP193      0.1605
     75  C         16.5670   32.1910  -19.5900 C.2   193  TRP193      0.2264
     76  O         16.7180   31.2710  -18.7880 O.2   193  TRP193     -0.2867
     77  CB        14.4150   32.0320  -20.6980 C.3   193  TRP193      0.0550
     78  CG        13.6220   32.5010  -21.8650 C.ar  193  TRP193      0.0003
     79  CD1       14.0760   32.8680  -23.1000 C.ar  193  TRP193      0.0946
     80  CD2       12.2140   32.6780  -21.8840 C.ar  193  TRP193      0.0152
     81  NE1       13.0220   33.2430  -23.8940 N.ar  193  TRP193     -0.2442
     82  CE2       11.8660   33.1480  -23.1660 C.ar  193  TRP193      0.0810
     83  CE3       11.1950   32.4130  -20.9630 C.ar  193  TRP193      0.0012
     84  CZ2       10.5500   33.4280  -23.5170 C.ar  193  TRP193      0.0191
     85  CZ3        9.8930   32.7180  -21.3030 C.ar  193  TRP193      0.0001
     86  CH2        9.5830   33.2170  -22.5670 C.ar  193  TRP193      0.0015
     87  N          3.0600   44.1370  -33.2490 N.3   360  LEU360     -0.1245
     88  CA         4.2120   43.8040  -34.0830 C.3   360  LEU360      0.1561
     89  C          3.8500   43.3620  -35.4830 C.2   360  LEU360      0.2260
     90  O          4.5100   42.4830  -36.0360 O.2   360  LEU360     -0.2867
     91  CB         5.0930   42.7400  -33.4010 C.3   360  LEU360      0.0270
     92  CG         5.5900   43.0350  -31.9980 C.3   360  LEU360      0.0019
     93  CD1        6.2240   41.8050  -31.3970 C.3   360  LEU360      0.0001
     94  CD2        6.5260   44.2430  -31.9860 C.3   360  LEU360      0.0001
     95  N         13.3800   47.8020  -32.2670 N.3   389  VAL389     -0.1231
     96  CA        13.0940   46.3720  -32.3790 C.3   389  VAL389      0.1692
     97  C         12.4790   45.9470  -31.0320 C.2   389  VAL389      0.2593
     98  O         12.7300   46.5610  -29.9890 O.2   389  VAL389     -0.2718
     99  CB        14.3780   45.5140  -32.6970 C.3   389  VAL389      0.0266
    100  CG1       14.0570   44.0380  -32.9400 C.3   389  VAL389      0.0020
    101  CG2       15.2400   46.0860  -33.8330 C.3   389  VAL389      0.0020
    102  N         11.6820   44.8900  -31.0700 N.am  390  THR390     -0.1939
    103  CA        11.0170   44.3110  -29.9160 C.3   390  THR390      0.2028
    104  C         12.0060   43.8280  -28.8450 C.2   390  THR390      0.2642
    105  O         13.1800   43.5710  -29.1410 O.2   390  THR390     -0.2714
    106  CB        10.0870   43.1930  -30.3750 C.3   390  THR390      0.1808
    107  OG1        9.5990   43.4760  -31.6790 O.3   390  THR390     -0.2208
    108  CG2        8.9510   42.9880  -29.4330 C.3   390  THR390      0.0379
    109  N         11.5130   43.7470  -27.6090 N.am  391  GLY391     -0.1954
    110  CA        12.2860   43.3100  -26.4570 C.3   391  GLY391      0.1869
    111  C         13.0960   44.4060  -25.8050 C.2   391  GLY391      0.2309
    112  O         13.4540   45.4020  -26.4480 O.2   391  GLY391     -0.2863
@<TRIPOS>BOND
     1    50    48    1
     2    31    32    1
     3    48    49    1
     4    48    47    1
     5    90    89    2
     6    43    44    1
     7    89    88    1
     8    32    35    1
     9    32    33    1
    10    47    44    1
    11    44    45    1
    12    35    36    1
    13    33    34    2
    14    88    91    1
    15    88    87    1
    16   101    99    1
    17    64    63    1
    18    45    51   am
    19    45    46    2
    20    36    38   ar
    21    36    37   ar
    22    91    92    1
    23    38    40   ar
    24    51    52    1
    25   100    99    1
    26    57    58    1
    27    99    96    1
    28    62    63    1
    29    62    61    1
    30    96    95    1
    31    96    97    1
    32    37    39   ar
    33    40    41   ar
    34    92    94    1
    35    92    93    1
    36    52    53    1
    37    52    55    1
    38   107   106    1
    39    58    61    1
    40    58    59    1
    41    53    54    2
    42    55    56    1
    43   102    97   am
    44   102   103    1
    45    97    98    2
    46    39    41   ar
    47    41    42    1
    48   106   103    1
    49   106   108    1
    50    59    60    2
    51   103   104    1
    52   105   104    2
    53    17    16    1
    54   104   109   am
    55    71    70    1
    56    65    66    1
    57    70    69    1
    58    70    72    1
    59    69    66    1
    60    14    13    2
    61   109   110    1
    62    12    15    1
    63    12    11    1
    64    12    13    1
    65    16    15    1
    66    16    18    1
    67    28    26   ar
    68    28    29   ar
    69    66    67    1
    70    26    24   ar
    71    67    68    2
    72    30    29    1
    73    29    27   ar
    74   110   111    1
    75   112   111    2
    76    24    23    1
    77    24    25   ar
    78    23    20    1
    79    27    25   ar
    80    21    20    1
    81    21    22    2
    82    20    19    1
    83    81    82   ar
    84    81    79   ar
    85    84    82   ar
    86    84    86   ar
    87    82    80   ar
    88    79    78   ar
    89    86    85   ar
    90    80    78   ar
    91    80    83   ar
    92    78    77    1
    93     4     3    2
    94    73    74    1
    95    85    83   ar
    96    74    77    1
    97    74    75    1
    98     3     2    1
    99     5     2    1
   100     5     6    1
   101     2     1    1
   102     6     8   ar
   103     6     7   ar
   104     8    10   ar
   105    75    76    2
   106     7     9   ar
   107    10     9   ar
