@<TRIPOS>MOLECULE
tmp/6f32A01.pdb
 126 121 0 0 0
SMALL
GASTEIGER

@<TRIPOS>ATOM
      1  N         21.6190   11.0860  -35.3480 N.3    65  HIS65      -0.1241
      2  CA        21.2620   12.4870  -35.1800 C.3    65  HIS65       0.1621
      3  C         21.8120   13.4710  -36.1800 C.2    65  HIS65       0.2264
      4  O         22.9680   13.4130  -36.5930 O.2    65  HIS65      -0.2867
      5  CB        21.6280   12.9610  -33.7860 C.3    65  HIS65       0.0745
      6  CG        20.8260   12.3120  -32.7200 C.ar   65  HIS65       0.0817
      7  ND1       19.4670   12.5230  -32.6230 N.ar   65  HIS65      -0.2268
      8  CD2       21.2220   11.5010  -31.7220 C.ar   65  HIS65       0.1154
      9  CE1       19.0760   11.8240  -31.5690 C.ar   65  HIS65       0.1986
     10  NE2       20.1020   11.2020  -30.9910 N.ar   65  HIS65      -0.2212
     11  N         22.2390   22.2320  -38.7800 N.3    70  LEU70      -0.1245
     12  CA        23.5450   21.6020  -38.6000 C.3    70  LEU70       0.1561
     13  C         23.9630   20.7340  -39.7790 C.2    70  LEU70       0.2260
     14  O         25.1380   20.7330  -40.1530 O.2    70  LEU70      -0.2867
     15  CB        23.5240   20.7640  -37.3070 C.3    70  LEU70       0.0270
     16  CG        24.8090   20.0300  -36.9370 C.3    70  LEU70       0.0019
     17  CD1       25.8830   20.9960  -36.4600 C.3    70  LEU70       0.0001
     18  CD2       24.5450   19.0010  -35.8890 C.3    70  LEU70       0.0001
     19  N         27.8140   11.6500  -27.7120 N.3   164  TYR164     -0.1227
     20  CA        28.3440   11.3860  -29.0310 C.3   164  TYR164      0.1736
     21  C         29.8940   11.2250  -29.0820 C.2   164  TYR164      0.2596
     22  O         30.4470   11.1560  -30.1560 O.2   164  TYR164     -0.2718
     23  CB        27.8100   12.3630  -30.0870 C.3   164  TYR164      0.0548
     24  CG        27.6000   13.7990  -29.6730 C.ar  164  TYR164     -0.0200
     25  CD1       28.6800   14.6540  -29.5020 C.ar  164  TYR164     -0.0009
     26  CD2       26.3240   14.3560  -29.6460 C.ar  164  TYR164     -0.0009
     27  CE1       28.4990   16.0070  -29.2340 C.ar  164  TYR164      0.0417
     28  CE2       26.1300   15.7090  -29.3860 C.ar  164  TYR164      0.0417
     29  CZ        27.2220   16.5310  -29.1790 C.ar  164  TYR164      0.1957
     30  OH        27.0390   17.8670  -28.9450 O.3   164  TYR164     -0.2866
     31  N         30.5690   11.0140  -27.9640 N.am  165  SER165     -0.1952
     32  CA        31.9950   10.6610  -27.9740 C.3   165  SER165      0.1924
     33  C         32.1590    9.1770  -27.5860 C.2   165  SER165      0.2314
     34  O         33.1340    8.5300  -27.9760 O.2   165  SER165     -0.2863
     35  CB        32.7990   11.5430  -27.0270 C.3   165  SER165      0.2116
     36  OG        32.8890   12.8650  -27.5290 O.3   165  SER165     -0.2180
     37  N         34.3530   22.6820  -29.9960 N.3   178  TYR178     -0.1241
     38  CA        33.4220   21.5850  -30.2480 C.3   178  TYR178      0.1605
     39  C         32.3610   21.5150  -29.1340 C.2   178  TYR178      0.2264
     40  O         31.1750   21.4100  -29.4450 O.2   178  TYR178     -0.2867
     41  CB        34.1840   20.2610  -30.4180 C.3   178  TYR178      0.0534
     42  CG        33.4070   19.0090  -30.0720 C.ar  178  TYR178     -0.0201
     43  CD1       32.4910   18.4610  -30.9690 C.ar  178  TYR178     -0.0009
     44  CD2       33.6210   18.3450  -28.8680 C.ar  178  TYR178     -0.0009
     45  CE1       31.7830   17.2990  -30.6580 C.ar  178  TYR178      0.0417
     46  CE2       32.9260   17.1810  -28.5510 C.ar  178  TYR178      0.0417
     47  CZ        32.0090   16.6600  -29.4500 C.ar  178  TYR178      0.1957
     48  OH        31.3570   15.4920  -29.1390 O.3   178  TYR178     -0.2866
     49  N         30.2690   25.0780  -29.0640 N.3   181  LEU181     -0.1231
     50  CA        29.2660   25.0750  -30.1300 C.3   181  LEU181      0.1693
     51  C         28.1510   24.0510  -29.9220 C.2   181  LEU181      0.2592
     52  O         27.0190   24.3290  -30.3020 O.2   181  LEU181     -0.2718
     53  CB        29.8950   24.9280  -31.5210 C.3   181  LEU181      0.0284
     54  CG        30.9650   25.9590  -31.9070 C.3   181  LEU181      0.0019
     55  CD1       31.6790   25.5600  -33.1720 C.3   181  LEU181      0.0001
     56  CD2       30.3960   27.3550  -32.0200 C.3   181  LEU181      0.0001
     57  N         28.4420   22.8940  -29.2990 N.am  182  SER182     -0.1952
     58  CA        27.4170   21.8960  -28.9830 C.3   182  SER182      0.1924
     59  C         26.3810   22.5200  -28.0320 C.2   182  SER182      0.2314
     60  O         25.1920   22.2630  -28.1710 O.2   182  SER182     -0.2863
     61  CB        28.0530   20.6730  -28.3330 C.3   182  SER182      0.2116
     62  OG        28.8100   19.9350  -29.2780 O.3   182  SER182     -0.2180
     63  N         24.6640   25.9920  -29.7840 N.3   185  MET185     -0.1245
     64  CA        23.6650   25.5960  -30.7780 C.3   185  MET185      0.1570
     65  C         22.6060   24.6330  -30.2400 C.2   185  MET185      0.2261
     66  O         22.0410   23.8670  -31.0260 O.2   185  MET185     -0.2867
     67  CB        24.3390   24.9570  -31.9960 C.3   185  MET185      0.0387
     68  CG        25.2550   25.8630  -32.7500 C.3   185  MET185      0.0595
     69  SD        26.3200   24.8260  -33.7780 S.3   185  MET185     -0.1393
     70  CE        27.2970   26.0690  -34.5710 C.3   185  MET185      0.0692
     71  N         22.5540   21.7300  -28.8860 N.3   187  LEU187     -0.1245
     72  CA        22.6740   20.3100  -29.2390 C.3   187  LEU187      0.1561
     73  C         22.7480   19.5600  -27.9230 C.2   187  LEU187      0.2260
     74  O         22.1020   18.5240  -27.7360 O.2   187  LEU187     -0.2867
     75  CB        23.9150   20.0330  -30.1070 C.3   187  LEU187      0.0270
     76  CG        24.0580   20.8210  -31.4150 C.3   187  LEU187      0.0019
     77  CD1       25.3250   20.4230  -32.1540 C.3   187  LEU187      0.0001
     78  CD2       22.8540   20.6100  -32.3240 C.3   187  LEU187      0.0001
     79  N         17.1150   17.8800  -31.9510 N.3   196  TRP196     -0.1241
     80  CA        17.6380   16.8540  -32.8410 C.3   196  TRP196      0.1605
     81  C         16.5550   16.1970  -33.6790 C.2   196  TRP196      0.2264
     82  O         15.4100   16.0960  -33.2440 O.2   196  TRP196     -0.2867
     83  CB        18.3440   15.7720  -32.0290 C.3   196  TRP196      0.0550
     84  CG        19.7010   16.1420  -31.5290 C.ar  196  TRP196      0.0003
     85  CD1       20.0920   16.2390  -30.2290 C.ar  196  TRP196      0.0946
     86  CD2       20.8720   16.3660  -32.3200 C.ar  196  TRP196      0.0152
     87  NE1       21.4330   16.5250  -30.1570 N.ar  196  TRP196     -0.2442
     88  CE2       21.9370   16.6170  -31.4280 C.ar  196  TRP196      0.0810
     89  CE3       21.1220   16.4110  -33.7020 C.ar  196  TRP196      0.0012
     90  CZ2       23.2370   16.8800  -31.8720 C.ar  196  TRP196      0.0191
     91  CZ3       22.4110   16.6640  -34.1400 C.ar  196  TRP196      0.0001
     92  CH2       23.4510   16.8910  -33.2300 C.ar  196  TRP196      0.0015
     93  N         35.5400    5.4730  -33.0590 N.3   360  LEU360     -0.1231
     94  CA        35.2970    6.8870  -33.2590 C.3   360  LEU360      0.1678
     95  C         36.5760    7.6920  -33.1880 C.2   360  LEU360      0.2434
     96  O         37.3910    7.4580  -32.3050 O.2   360  LEU360     -0.2733
     97  CB        34.3360    7.3980  -32.1950 C.3   360  LEU360      0.0284
     98  CG        32.8720    7.2150  -32.4990 C.3   360  LEU360      0.0019
     99  CD1       32.0570    7.5710  -31.2940 C.3   360  LEU360      0.0001
    100  CD2       32.4280    8.0810  -33.7050 C.3   360  LEU360      0.0001
    101  N         36.7390    8.7110  -34.0460 N.am  361  PRO361     -0.2729
    102  CA        37.9520    9.5260  -33.9650 C.3   361  PRO361      0.1401
    103  C         37.9830   10.4130  -32.7290 C.2   361  PRO361      0.2269
    104  O         36.9350   10.8210  -32.2240 O.2   361  PRO361     -0.2865
    105  CB        37.8890   10.3750  -35.2450 C.3   361  PRO361      0.0296
    106  CG        36.8420    9.7520  -36.1100 C.3   361  PRO361      0.0237
    107  CD        35.8740    9.1450  -35.1600 C.3   361  PRO361      0.0939
    108  N         38.8710   13.9440  -30.7780 N.3   363  LEU363     -0.1245
    109  CA        38.6860   15.3360  -31.1640 C.3   363  LEU363      0.1561
    110  C         39.5230   16.3030  -30.3590 C.2   363  LEU363      0.2260
    111  O         39.0630   17.3980  -30.0520 O.2   363  LEU363     -0.2867
    112  CB        37.1980   15.7250  -31.0990 C.3   363  LEU363      0.0270
    113  CG        36.2140   14.8820  -31.9050 C.3   363  LEU363      0.0019
    114  CD1       34.8020   15.2690  -31.5790 C.3   363  LEU363      0.0001
    115  CD2       36.4590   15.0050  -33.3960 C.3   363  LEU363      0.0001
    116  N         33.7070   17.0620  -37.4710 N.3   393  THR393     -0.1203
    117  CA        32.9420   16.0180  -36.8060 C.3   393  THR393      0.1994
    118  C         31.4780   15.9680  -37.3050 C.2   393  THR393      0.2618
    119  O         30.9620   16.9470  -37.8590 O.2   393  THR393     -0.2717
    120  CB        33.1030   16.1810  -35.2970 C.3   393  THR393      0.1784
    121  OG1       32.3460   15.2170  -34.5870 O.3   393  THR393     -0.2211
    122  CG2       32.7990   17.5900  -34.7990 C.3   393  THR393      0.0376
    123  N         30.8670   14.7990  -37.1590 N.am  394  GLY394     -0.1956
    124  CA        29.4920   14.5550  -37.5650 C.3   394  GLY394      0.1869
    125  C         29.3270   14.1550  -39.0140 C.2   394  GLY394      0.2309
    126  O         30.1640   14.4770  -39.8620 O.2   394  GLY394     -0.2863
@<TRIPOS>BOND
     1    14    13    2
     2   126   125    2
     3    13    12    1
     4   125   124    1
     5    11    12    1
     6    12    15    1
     7   119   118    2
     8   124   123    1
     9   116   117    1
    10    15    16    1
    11   118   123   am
    12   118   117    1
    13    16    17    1
    14    16    18    1
    15   117   120    1
    16     4     3    2
    17     3     2    1
    18   106   105    1
    19   106   107    1
    20     1     2    1
    21   120   122    1
    22   120   121    1
    23   105   102    1
    24     2     5    1
    25   107   101    1
    26    70    69    1
    27    91    89   ar
    28    91    92   ar
    29   101   102    1
    30   101    95   am
    31   102   103    1
    32     5     6    1
    33    69    68    1
    34   100    98    1
    35    89    86   ar
    36    81    82    2
    37    81    80    1
    38   115   113    1
    39    94    95    1
    40    94    93    1
    41    94    97    1
    42    92    90   ar
    43    95    96    2
    44    55    54    1
    45    80    83    1
    46    80    79    1
    47    68    67    1
    48   103   104    2
    49     6     7   ar
    50     6     8   ar
    51     7     9   ar
    52    98    97    1
    53    98    99    1
    54    78    76    1
    55    86    84   ar
    56    86    88   ar
    57    77    76    1
    58    83    84    1
    59    56    54    1
    60    67    64    1
    61    54    53    1
    62   113   114    1
    63   113   112    1
    64    90    88   ar
    65     8    10   ar
    66     9    10   ar
    67    84    85   ar
    68    53    50    1
    69    88    87   ar
    70    76    75    1
    71   109   112    1
    72   109   108    1
    73   109   110    1
    74    66    65    2
    75    43    45   ar
    76    43    42   ar
    77    64    65    1
    78    64    63    1
    79    45    47   ar
    80    41    38    1
    81    41    42    1
    82   110   111    2
    83    52    51    2
    84    38    37    1
    85    38    39    1
    86    85    87   ar
    87    22    21    2
    88    50    51    1
    89    50    49    1
    90    75    72    1
    91    23    24    1
    92    23    20    1
    93    42    44   ar
    94    51    57   am
    95    24    26   ar
    96    24    25   ar
    97    26    28   ar
    98    25    27   ar
    99    47    48    1
   100    47    46   ar
   101    40    39    2
   102    28    29   ar
   103    57    58    1
   104    62    61    1
   105    72    71    1
   106    72    73    1
   107    27    29   ar
   108    29    30    1
   109    21    20    1
   110    21    31   am
   111    20    19    1
   112    58    61    1
   113    58    59    1
   114    44    46   ar
   115    60    59    2
   116    34    33    2
   117    32    31    1
   118    32    33    1
   119    32    35    1
   120    73    74    2
   121    36    35    1
