@<TRIPOS>MOLECULE
tmp/6f33A00.pdb
 186 180 0 0 0
SMALL
GASTEIGER

@<TRIPOS>ATOM
      1  N         -4.3810   11.3530   29.8080 N.3    25  ASP25      -0.1239
      2  CA        -5.5760   11.2830   28.9650 C.3    25  ASP25       0.1674
      3  C         -5.3810   10.3590   27.7660 C.2    25  ASP25       0.2266
      4  O         -4.3470   10.4220   27.1040 O.2    25  ASP25      -0.2867
      5  CB        -5.9730   12.6940   28.4880 C.3    25  ASP25       0.1410
      6  CG        -7.4430   12.8720   28.1600 C.2    25  ASP25       0.3668
      7  OD1       -7.9560   12.1230   27.3090 O.co2  25  ASP25      -0.2456
      8  OD2       -8.0720   13.7820   28.7330 O.co2  25  ASP25      -0.2456
      9  N        -15.2810    9.9210   28.0140 N.3    62  LYS62      -0.1231
     10  CA       -14.7290   11.2420   27.7030 C.3    62  LYS62       0.1693
     11  C        -13.9980   11.7920   28.9370 C.2    62  LYS62       0.2592
     12  O        -14.1650   11.2470   30.0270 O.2    62  LYS62      -0.2718
     13  CB       -15.8350   12.1970   27.2250 C.3    62  LYS62       0.0285
     14  CG       -16.3370   11.8930   25.8180 C.3    62  LYS62       0.0035
     15  CD       -17.2990   12.9590   25.3140 C.3    62  LYS62       0.0206
     16  CE       -17.9940   12.5690   24.0310 C.3    62  LYS62       0.1093
     17  NZ       -17.0900   12.6610   22.8520 N.3    62  LYS62      -0.1314
     18  N        -13.1780   12.8470   28.7650 N.am   63  ALA63      -0.1966
     19  CA       -12.3710   13.4310   29.8400 C.3    63  ALA63       0.1728
     20  C        -13.1630   13.9650   31.0350 C.2    63  ALA63       0.2616
     21  O        -13.0200   13.4160   32.1250 O.2    63  ALA63      -0.2715
     22  CB       -11.4460   14.5090   29.2960 C.3    63  ALA63       0.0334
     23  N        -13.9890   15.0140   30.8350 N.am   64  PHE64      -0.1974
     24  CA       -14.7740   15.6720   31.8850 C.3    64  PHE64       0.1639
     25  C        -15.7000   14.7240   32.6940 C.2    64  PHE64       0.2290
     26  O        -15.6460   14.8250   33.9220 O.2    64  PHE64      -0.2864
     27  CB       -15.5460   16.8760   31.3280 C.3    64  PHE64       0.0560
     28  CG       -14.7740   18.1710   31.4390 C.ar   64  PHE64      -0.0200
     29  CD1      -13.6090   18.3730   30.7070 C.ar   64  PHE64      -0.0042
     30  CD2      -15.2120   19.1880   32.2740 C.ar   64  PHE64      -0.0042
     31  CE1      -12.8830   19.5610   30.8310 C.ar   64  PHE64      -0.0003
     32  CE2      -14.4940   20.3840   32.3840 C.ar   64  PHE64      -0.0003
     33  CZ       -13.3380   20.5640   31.6580 C.ar   64  PHE64      -0.0000
     34  N        -18.9270   16.6090   27.9600 N.3    84  ASN84      -0.1240
     35  CA       -18.0490   17.7740   27.7880 C.3    84  ASN84       0.1653
     36  C        -18.8710   18.9440   27.2380 C.2    84  ASN84       0.2266
     37  O        -18.6030   20.1000   27.5700 O.2    84  ASN84      -0.2867
     38  CB       -16.9000   17.4490   26.8220 C.3    84  ASN84       0.1155
     39  CG       -15.8670   16.4790   27.3500 C.2    84  ASN84       0.2627
     40  OD1      -16.1830   15.4600   27.9780 O.2    84  ASN84      -0.2716
     41  ND2      -14.6010   16.7500   27.0590 N.am   84  ASN84      -0.0877
     42  N        -16.3530   23.3860   26.6740 N.3    97  LEU97      -0.1245
     43  CA       -14.9330   23.5340   27.0190 C.3    97  LEU97       0.1561
     44  C        -14.4310   24.9410   26.6620 C.2    97  LEU97       0.2260
     45  O        -13.6160   25.5030   27.3950 O.2    97  LEU97      -0.2867
     46  CB       -14.0860   22.4710   26.2980 C.3    97  LEU97       0.0270
     47  CG       -14.4250   21.0130   26.6050 C.3    97  LEU97       0.0019
     48  CD1      -14.8190   20.2700   25.3380 C.3    97  LEU97       0.0001
     49  CD2      -13.2700   20.3220   27.2910 C.3    97  LEU97       0.0001
     50  N        -17.9720   26.7860   31.9840 N.3   102  LYS102     -0.1245
     51  CA       -17.2130   25.6840   32.5910 C.3   102  LYS102      0.1561
     52  C        -16.8170   25.9940   34.0500 C.2   102  LYS102      0.2260
     53  O        -16.6170   25.0710   34.8380 O.2   102  LYS102     -0.2867
     54  CB       -15.9800   25.3120   31.7370 C.3   102  LYS102      0.0271
     55  CG       -14.9470   26.4310   31.5710 C.3   102  LYS102      0.0035
     56  CD       -13.7390   25.9900   30.7650 C.3   102  LYS102      0.0206
     57  CE       -12.7160   27.0940   30.6570 C.3   102  LYS102      0.1093
     58  NZ       -11.5020   26.6550   29.9230 N.3   102  LYS102     -0.1314
     59  N         -6.9410   19.7460   36.3420 N.3   129  TRP129     -0.1228
     60  CA        -7.9560   18.7170   36.5790 C.3   129  TRP129      0.1722
     61  C         -9.3470   19.2950   36.3010 C.2   129  TRP129      0.2437
     62  O         -9.6790   20.3450   36.8600 O.2   129  TRP129     -0.2733
     63  CB        -7.9030   18.1360   38.0050 C.3   129  TRP129      0.0563
     64  CG        -8.6420   16.8400   38.1300 C.ar  129  TRP129      0.0003
     65  CD1       -9.9750   16.6730   38.3650 C.ar  129  TRP129      0.0946
     66  CD2       -8.0970   15.5260   37.9600 C.ar  129  TRP129      0.0152
     67  NE1      -10.2940   15.3360   38.3600 N.ar  129  TRP129     -0.2442
     68  CE2       -9.1570   14.6070   38.1240 C.ar  129  TRP129      0.0810
     69  CE3       -6.8090   15.0320   37.6890 C.ar  129  TRP129      0.0012
     70  CZ2       -8.9680   13.2230   38.0390 C.ar  129  TRP129      0.0191
     71  CZ3       -6.6220   13.6620   37.6130 C.ar  129  TRP129      0.0001
     72  CH2       -7.6960   12.7740   37.7630 C.ar  129  TRP129      0.0015
     73  N        -10.1830   18.6300   35.4640 N.am  130  PRO130     -0.2729
     74  CA       -11.5400   19.1530   35.2100 C.3   130  PRO130      0.1401
     75  C        -12.3600   19.2200   36.5030 C.2   130  PRO130      0.2269
     76  O        -12.7620   18.1900   37.0500 O.2   130  PRO130     -0.2865
     77  CB       -12.1170   18.1670   34.1840 C.3   130  PRO130      0.0296
     78  CG       -10.9230   17.4890   33.5860 C.3   130  PRO130      0.0237
     79  CD        -9.9460   17.3840   34.7120 C.3   130  PRO130      0.0939
     80  N        -10.1060   23.8300   38.7080 N.3   133  ASP133     -0.1239
     81  CA       -10.0720   25.2550   38.3660 C.3   133  ASP133      0.1674
     82  C        -11.4790   25.8840   38.4660 C.2   133  ASP133      0.2266
     83  O        -11.6950   27.0120   38.0140 O.2   133  ASP133     -0.2867
     84  CB        -9.4300   25.4800   36.9800 C.3   133  ASP133      0.1410
     85  CG        -9.9570   24.5830   35.8780 C.2   133  ASP133      0.3668
     86  OD1      -11.0980   24.8100   35.4220 O.co2 133  ASP133     -0.2456
     87  OD2       -9.2170   23.6720   35.4520 O.co2 133  ASP133     -0.2456
     88  N         -6.5100   26.2570   33.7430 N.3   147  TYR147     -0.1241
     89  CA        -6.0830   25.3820   32.6570 C.3   147  TYR147      0.1605
     90  C         -5.4450   26.0810   31.4540 C.2   147  TYR147      0.2264
     91  O         -5.8940   27.1420   31.0280 O.2   147  TYR147     -0.2867
     92  CB        -7.2280   24.4700   32.1950 C.3   147  TYR147      0.0534
     93  CG        -6.7530   23.3550   31.2930 C.ar  147  TYR147     -0.0201
     94  CD1       -6.0100   22.2910   31.7980 C.ar  147  TYR147     -0.0009
     95  CD2       -6.9870   23.3940   29.9220 C.ar  147  TYR147     -0.0009
     96  CE1       -5.5310   21.2840   30.9660 C.ar  147  TYR147      0.0417
     97  CE2       -6.5200   22.3900   29.0810 C.ar  147  TYR147      0.0417
     98  CZ        -5.7930   21.3350   29.6080 C.ar  147  TYR147      0.1957
     99  OH        -5.3350   20.3370   28.7900 O.3   147  TYR147     -0.2866
    100  N         -3.4900   23.9860   28.0850 N.3   149  ASN149     -0.1240
    101  CA        -3.0410   22.7310   27.4680 C.3   149  ASN149      0.1653
    102  C         -1.6500   22.7770   26.8290 C.2   149  ASN149      0.2266
    103  O         -1.0500   21.7220   26.6170 O.2   149  ASN149     -0.2867
    104  CB        -4.0680   22.2260   26.4440 C.3   149  ASN149      0.1155
    105  CG        -4.3860   23.1950   25.3360 C.2   149  ASN149      0.2627
    106  OD1       -5.2380   24.0790   25.4730 O.2   149  ASN149     -0.2716
    107  ND2       -3.7270   23.0290   24.2030 N.am  149  ASN149     -0.0877
    108  N         -2.6520   16.6400   35.5020 N.3   178  TYR178     -0.1241
    109  CA        -3.2670   16.2370   34.2420 C.3   178  TYR178      0.1605
    110  C         -2.3360   16.4240   33.0570 C.2   178  TYR178      0.2264
    111  O         -1.6690   17.4530   32.9410 O.2   178  TYR178     -0.2867
    112  CB        -4.6130   16.9600   34.0280 C.3   178  TYR178      0.0534
    113  CG        -5.2220   16.7580   32.6590 C.ar  178  TYR178     -0.0201
    114  CD1       -5.8430   15.5600   32.3190 C.ar  178  TYR178     -0.0009
    115  CD2       -5.1730   17.7620   31.6980 C.ar  178  TYR178     -0.0009
    116  CE1       -6.3890   15.3620   31.0530 C.ar  178  TYR178      0.0417
    117  CE2       -5.7110   17.5740   30.4270 C.ar  178  TYR178      0.0417
    118  CZ        -6.3280   16.3760   30.1120 C.ar  178  TYR178      0.1957
    119  OH        -6.8660   16.1940   28.8630 O.3   178  TYR178     -0.2866
    120  N         -2.3820   15.8390   28.6970 N.3   180  GLU180     -0.1245
    121  CA        -3.1980   15.7240   27.4820 C.3   180  GLU180      0.1567
    122  C         -2.8860   14.4770   26.6600 C.2   180  GLU180      0.2260
    123  O         -3.7610   13.9990   25.9400 O.2   180  GLU180     -0.2867
    124  CB        -3.0130   16.9640   26.5830 C.3   180  GLU180      0.0388
    125  CG        -3.4250   18.2890   27.2030 C.3   180  GLU180      0.1160
    126  CD        -2.4460   18.9060   28.1860 C.2   180  GLU180      0.3649
    127  OE1       -1.2490   19.0340   27.8420 O.co2 180  GLU180     -0.2457
    128  OE2       -2.8790   19.2600   29.3060 O.co2 180  GLU180     -0.2457
    129  N         -3.6760   11.1610   24.2630 N.3   183  ASP183     -0.1225
    130  CA        -5.0140   11.3460   23.6910 C.3   183  ASP183      0.1805
    131  C         -4.9610   12.1750   22.4170 C.2   183  ASP183      0.2598
    132  O         -5.5400   11.7650   21.4120 O.2   183  ASP183     -0.2718
    133  CB        -5.9780   11.9830   24.7040 C.3   183  ASP183      0.1424
    134  CG        -7.3830   12.2070   24.1860 C.2   183  ASP183      0.3668
    135  OD1       -8.1090   11.2110   23.9950 O.co2 183  ASP183     -0.2456
    136  OD2       -7.7680   13.3830   24.0080 O.co2 183  ASP183     -0.2456
    137  N         -4.2830   13.3440   22.4640 N.am  184  SER184     -0.1952
    138  CA        -4.1320   14.2670   21.3340 C.3   184  SER184      0.1924
    139  C         -3.5370   13.5750   20.1080 C.2   184  SER184      0.2314
    140  O         -4.0140   13.8030   18.9970 O.2   184  SER184     -0.2863
    141  CB        -3.2940   15.4770   21.7330 C.3   184  SER184      0.2116
    142  OG        -3.8850   16.1740   22.8180 O.3   184  SER184     -0.2180
    143  N         -6.1160   11.1090   18.3550 N.3   187  HIS187     -0.1241
    144  CA        -7.0510   11.7610   17.4430 C.3   187  HIS187      0.1621
    145  C         -6.3470   12.1170   16.1290 C.2   187  HIS187      0.2264
    146  O         -6.9690   12.0600   15.0660 O.2   187  HIS187     -0.2867
    147  CB        -7.6480   13.0260   18.0810 C.3   187  HIS187      0.0745
    148  CG        -8.5440   12.7660   19.2530 C.ar  187  HIS187      0.0817
    149  ND1       -9.8080   12.2270   19.0910 N.ar  187  HIS187     -0.2268
    150  CD2       -8.3470   13.0260   20.5670 C.ar  187  HIS187      0.1154
    151  CE1      -10.3260   12.1530   20.3070 C.ar  187  HIS187      0.1986
    152  NE2       -9.4840   12.6200   21.2270 N.ar  187  HIS187     -0.2212
    153  N         -9.9910    7.2730   29.9420 N.3   231  HIS231     -0.1241
    154  CA       -10.5440    6.3930   28.9040 C.3   231  HIS231      0.1621
    155  C         -9.4310    5.8010   28.0160 C.2   231  HIS231      0.2264
    156  O         -8.2440    5.9780   28.3020 O.2   231  HIS231     -0.2867
    157  CB       -11.5650    7.1640   28.0380 C.3   231  HIS231      0.0745
    158  CG       -11.0510    8.4760   27.5360 C.ar  231  HIS231      0.0817
    159  ND1      -10.0450    8.5450   26.5870 N.ar  231  HIS231     -0.2268
    160  CD2      -11.4130    9.7310   27.8800 C.ar  231  HIS231      0.1154
    161  CE1       -9.8190    9.8320   26.3990 C.ar  231  HIS231      0.1986
    162  NE2      -10.6130   10.5850   27.1590 N.ar  231  HIS231     -0.2212
    163  N        -19.2480    9.5120   19.3170 N.3   259  PRO259     -0.2116
    164  CA       -19.4510    8.1150   19.7420 C.3   259  PRO259      0.1372
    165  C        -20.6190    7.9150   20.7050 C.2   259  PRO259      0.2244
    166  O        -21.1200    6.7960   20.8240 O.2   259  PRO259     -0.2868
    167  CB       -18.1140    7.7380   20.3950 C.3   259  PRO259      0.0268
    168  CG       -17.2030    8.9260   20.2030 C.3   259  PRO259      0.0207
    169  CD       -18.0910   10.1030   20.0140 C.3   259  PRO259      0.0892
    170  N        -10.9970    8.1730   18.1600 N.3   336  THR336     -0.1203
    171  CA       -11.8520    8.8960   19.1090 C.3   336  THR336      0.1994
    172  C        -12.2330    8.0280   20.3250 C.2   336  THR336      0.2617
    173  O        -11.9030    6.8400   20.3800 O.2   336  THR336     -0.2717
    174  CB       -13.0800    9.5280   18.4070 C.3   336  THR336      0.1784
    175  OG1      -13.6810   10.4710   19.2910 O.3   336  THR336     -0.2211
    176  CG2      -14.1180    8.4990   17.9660 C.3   336  THR336      0.0376
    177  N        -12.9310    8.6440   21.2930 N.am  337  HIS337     -0.1975
    178  CA       -13.4030    8.0200   22.5290 C.3   337  HIS337      0.1656
    179  C        -14.7680    8.6030   22.9170 C.2   337  HIS337      0.2291
    180  O        -15.0430    9.7750   22.6440 O.2   337  HIS337     -0.2864
    181  CB       -12.3800    8.2280   23.6560 C.3   337  HIS337      0.0771
    182  CG       -12.0530    9.6680   23.8940 C.ar  337  HIS337      0.0820
    183  ND1      -12.7900   10.4350   24.7760 N.ar  337  HIS337     -0.2267
    184  CD2      -11.1070   10.4470   23.3200 C.ar  337  HIS337      0.1154
    185  CE1      -12.2700   11.6470   24.7150 C.ar  337  HIS337      0.1986
    186  NE2      -11.2420   11.6990   23.8660 N.ar  337  HIS337     -0.2212
@<TRIPOS>BOND
     1   146   145    2
     2   145   144    1
     3   144   147    1
     4   144   143    1
     5   176   174    1
     6   147   148    1
     7   170   171    1
     8   174   171    1
     9   174   175    1
    10   140   139    2
    11   149   148   ar
    12   149   151   ar
    13   171   172    1
    14   148   150   ar
    15   163   164    1
    16   163   169    1
    17   164   167    1
    18   164   165    1
    19   169   168    1
    20   139   138    1
    21   168   167    1
    22   151   152   ar
    23   172   173    2
    24   172   177   am
    25   150   152   ar
    26   165   166    2
    27   177   178    1
    28   138   141    1
    29   138   137    1
    30   132   131    2
    31   141   142    1
    32   131   137   am
    33   131   130    1
    34   178   179    1
    35   178   181    1
    36   180   179    2
    37    17    16    1
    38   184   186   ar
    39   184   182   ar
    40   181   182    1
    41   130   129    1
    42   130   133    1
    43   186   185   ar
    44   182   183   ar
    45   135   134   ar
    46   136   134   ar
    47    16    15    1
    48   134   133    1
    49   107   105   am
    50   185   183   ar
    51    15    14    1
    52   105   106    2
    53   105   104    1
    54    48    47    1
    55    14    13    1
    56   123   122    2
    57    46    47    1
    58    46    43    1
    59   161   159   ar
    60   161   162   ar
    61   104   101    1
    62   124   125    1
    63   124   121    1
    64   159   158   ar
    65    47    49    1
    66   103   102    2
    67   122   121    1
    68    44    43    1
    69    44    45    2
    70    42    43    1
    71    38    39    1
    72    38    35    1
    73   102   101    1
    74    41    39   am
    75     4     3    2
    76   162   160   ar
    77   125   126    1
    78    13    10    1
    79    36    37    2
    80    36    35    1
    81     7     6   ar
    82    39    40    2
    83   101   100    1
    84   121   120    1
    85   158   160   ar
    86   158   157    1
    87    10     9    1
    88    10    11    1
    89     3     2    1
    90    35    34    1
    91   127   126   ar
    92   155   156    2
    93   155   154    1
    94   157   154    1
    95     6     5    1
    96     6     8   ar
    97   126   128   ar
    98     5     2    1
    99    18    11   am
   100    18    19    1
   101    99    98    1
   102   119   118    1
   103   154   153    1
   104    11    12    2
   105     2     1    1
   106    97    98   ar
   107    97    95   ar
   108    22    19    1
   109    98    96   ar
   110    19    20    1
   111    95    93   ar
   112    58    57    1
   113   118   117   ar
   114   118   116   ar
   115   117   115   ar
   116    57    56    1
   117    29    31   ar
   118    29    28   ar
   119    56    55    1
   120    31    33   ar
   121    23    20   am
   122    23    24    1
   123    96    94   ar
   124    91    90    2
   125    20    21    2
   126   116   114   ar
   127    93    94   ar
   128    93    92    1
   129    27    28    1
   130    27    24    1
   131    28    30   ar
   132    90    89    1
   133    55    54    1
   134    33    32   ar
   135   115   113   ar
   136    54    51    1
   137    24    25    1
   138    50    51    1
   139    92    89    1
   140    30    32   ar
   141   114   113   ar
   142    51    52    1
   143    89    88    1
   144   113   112    1
   145    25    26    2
   146   111   110    2
   147   110   109    1
   148    78    77    1
   149    78    79    1
   150   112   109    1
   151    52    53    2
   152    77    74    1
   153   109   108    1
   154    79    73    1
   155    74    73    1
   156    74    75    1
   157    86    85   ar
   158    87    85   ar
   159    73    61   am
   160    85    84    1
   161    61    60    1
   162    61    62    2
   163    59    60    1
   164    75    76    2
   165    60    63    1
   166    84    81    1
   167    71    69   ar
   168    71    72   ar
   169    69    66   ar
   170    72    70   ar
   171    66    68   ar
   172    66    64   ar
   173    63    64    1
   174    83    82    2
   175    70    68   ar
   176    68    67   ar
   177    64    65   ar
   178    67    65   ar
   179    81    82    1
   180    81    80    1
