@<TRIPOS>MOLECULE
tmp/6f34A00.pdb
 117 108 0 0 0
SMALL
GASTEIGER

@<TRIPOS>ATOM
      1  N        -12.9210    4.5220   23.8260 N.3    39  ALA39      -0.1231
      2  CA       -13.2250    3.1010   23.9040 C.3    39  ALA39       0.1694
      3  C        -12.3460    2.3600   24.9020 C.2    39  ALA39       0.2591
      4  O        -12.5540    1.1600   25.1150 O.2    39  ALA39      -0.2718
      5  CB       -13.0920    2.4550   22.5200 C.3    39  ALA39       0.0304
      6  N        -11.3820    3.0340   25.5200 N.am   40  ILE40      -0.1980
      7  CA       -10.4660    2.4110   26.4720 C.3    40  ILE40       0.1595
      8  C        -10.8120    2.7800   27.9110 C.2    40  ILE40       0.2287
      9  O        -10.9800    1.9040   28.7600 O.2    40  ILE40      -0.2864
     10  CB        -9.0050    2.7840   26.1350 C.3    40  ILE40       0.0276
     11  CG1       -8.5820    2.1590   24.8050 C.3    40  ILE40       0.0022
     12  CG2       -8.0690    2.3460   27.2470 C.3    40  ILE40       0.0022
     13  CD1       -7.1970    2.5700   24.3550 C.3    40  ILE40       0.0001
     14  N        -12.7860    3.2950   30.9400 N.3    42  GLY42      -0.1210
     15  CA       -14.1070    2.8650   31.3550 C.3    42  GLY42       0.1956
     16  C        -14.1290    2.0480   32.6310 C.2    42  GLY42       0.2613
     17  O        -13.5290    2.4380   33.6370 O.2    42  GLY42      -0.2717
     18  N        -14.8190    0.9030   32.5930 N.am   43  THR43      -0.1938
     19  CA       -15.0100    0.0970   33.7970 C.3    43  THR43       0.2028
     20  C        -13.6880   -0.4260   34.3470 C.2    43  THR43       0.2642
     21  O        -13.5350   -0.5650   35.5670 O.2    43  THR43      -0.2714
     22  CB       -15.9680   -1.0600   33.4950 C.3    43  THR43       0.1808
     23  OG1      -17.2750   -0.5390   33.2270 O.3    43  THR43      -0.2208
     24  CG2      -16.0570   -2.0250   34.6670 C.3    43  THR43       0.0379
     25  N        -12.7170   -0.6960   33.4730 N.am   44  GLY44      -0.1954
     26  CA       -11.4500   -1.2490   33.9300 C.3    44  GLY44       0.1869
     27  C        -10.7270   -0.3470   34.9130 C.2    44  GLY44       0.2309
     28  O        -10.2700   -0.7970   35.9680 O.2    44  GLY44      -0.2863
     29  N        -16.2020  -12.3090   23.1260 N.3   115  GLU115     -0.1231
     30  CA       -15.3970  -11.3420   23.8670 C.3   115  GLU115      0.1699
     31  C        -16.0400   -9.9600   23.8630 C.2   115  GLU115      0.2592
     32  O        -16.0900   -9.2910   24.9010 O.2   115  GLU115     -0.2718
     33  CB       -13.9840  -11.2790   23.2880 C.3   115  GLU115      0.0402
     34  CG       -13.0340  -10.3830   24.0680 C.3   115  GLU115      0.1161
     35  CD       -12.8460   -9.0240   23.4230 C.2   115  GLU115      0.3649
     36  OE1      -12.0340   -8.2280   23.9400 O.co2 115  GLU115     -0.2457
     37  OE2      -13.5150   -8.7460   22.4050 O.co2 115  GLU115     -0.2457
     38  N        -16.5330   -9.5110   22.7050 N.am  116  TYR116     -0.1976
     39  CA       -17.2550   -8.2440   22.6640 C.3   116  TYR116      0.1639
     40  C        -18.5410   -8.3030   23.4790 C.2   116  TYR116      0.2290
     41  O        -18.9810   -7.2800   24.0150 O.2   116  TYR116     -0.2864
     42  CB       -17.5730   -7.8540   21.2190 C.3   116  TYR116      0.0560
     43  CG       -16.4130   -7.2750   20.4360 C.ar  116  TYR116     -0.0198
     44  CD1      -15.9790   -5.9740   20.6590 C.ar  116  TYR116     -0.0009
     45  CD2      -15.7690   -8.0210   19.4590 C.ar  116  TYR116     -0.0009
     46  CE1      -14.9250   -5.4410   19.9400 C.ar  116  TYR116      0.0417
     47  CE2      -14.7160   -7.4970   18.7350 C.ar  116  TYR116      0.0417
     48  CZ       -14.2980   -6.2080   18.9790 C.ar  116  TYR116      0.1957
     49  OH       -13.2490   -5.6880   18.2570 O.3   116  TYR116     -0.2866
     50  N        -17.6430   -8.5570   27.4360 N.3   119  ALA119     -0.1245
     51  CA       -17.1490   -7.2380   27.8160 C.3   119  ALA119      0.1562
     52  C        -18.2780   -6.2190   27.8800 C.2   119  ALA119      0.2260
     53  O        -18.2600   -5.3270   28.7360 O.2   119  ALA119     -0.2867
     54  CB       -16.0730   -6.7710   26.8360 C.3   119  ALA119      0.0290
     55  N        -18.8660   -4.1130   31.1500 N.3   123  VAL123     -0.1245
     56  CA       -18.8620   -2.6540   31.1860 C.3   123  VAL123      0.1561
     57  C        -20.1280   -2.1330   31.8560 C.2   123  VAL123      0.2260
     58  O        -20.0920   -1.1510   32.6080 O.2   123  VAL123     -0.2867
     59  CB       -18.6840   -2.0920   29.7620 C.3   123  VAL123      0.0252
     60  CG1      -18.9540   -0.6010   29.7310 C.3   123  VAL123      0.0019
     61  CG2      -17.2780   -2.3710   29.2610 C.3   123  VAL123      0.0019
     62  N         -8.0930   -5.7540   31.3890 N.3   228  PHE228     -0.1227
     63  CA        -9.3880   -5.3200   30.8680 C.3   228  PHE228      0.1736
     64  C         -9.3980   -3.8390   30.5050 C.2   228  PHE228      0.2595
     65  O        -10.0260   -3.4390   29.5180 O.2   228  PHE228     -0.2718
     66  CB       -10.4610   -5.6200   31.9160 C.3   228  PHE228      0.0547
     67  CG       -11.8690   -5.3290   31.4770 C.ar  228  PHE228     -0.0202
     68  CD1      -12.4090   -4.0650   31.6400 C.ar  228  PHE228     -0.0042
     69  CD2      -12.6600   -6.3230   30.9300 C.ar  228  PHE228     -0.0042
     70  CE1      -13.7070   -3.7930   31.2530 C.ar  228  PHE228     -0.0003
     71  CE2      -13.9600   -6.0560   30.5390 C.ar  228  PHE228     -0.0003
     72  CZ       -14.4830   -4.7900   30.7010 C.ar  228  PHE228     -0.0000
     73  N         -8.7050   -3.0100   31.2900 N.am  229  ALA229     -0.1980
     74  CA        -8.8250   -1.5640   31.1340 C.3   229  ALA229      0.1597
     75  C         -8.2140   -1.0650   29.8290 C.2   229  ALA229      0.2287
     76  O         -8.6270   -0.0170   29.3210 O.2   229  ALA229     -0.2864
     77  CB        -8.1770   -0.8560   32.3230 C.3   229  ALA229      0.0319
     78  N         -8.2070   -2.5480   26.7820 N.3   231  ILE231     -0.1231
     79  CA        -8.8690   -2.9340   25.5420 C.3   231  ILE231      0.1692
     80  C         -9.6540   -1.7510   24.9960 C.2   231  ILE231      0.2592
     81  O        -10.2930   -1.0060   25.7510 O.2   231  ILE231     -0.2718
     82  CB        -9.8080   -4.1300   25.7670 C.3   231  ILE231      0.0266
     83  CG1       -9.1910   -5.1540   26.7080 C.3   231  ILE231      0.0019
     84  CG2      -10.1210   -4.8130   24.4470 C.3   231  ILE231      0.0020
     85  CD1      -10.2470   -5.9480   27.4270 C.3   231  ILE231      0.0001
     86  N         -9.6320   -1.5860   23.6760 N.am  232  GLY232     -0.1957
     87  CA       -10.4020   -0.5290   23.0480 C.3   232  GLY232      0.1869
     88  C         -9.6910    0.1550   21.9000 C.2   232  GLY232      0.2309
     89  O        -10.3370    0.7310   21.0190 O.2   232  GLY232     -0.2863
     90  N         -8.3310   -1.1470   19.4650 N.3   234  ASP234     -0.1239
     91  CA        -8.6600   -1.8040   18.2070 C.3   234  ASP234      0.1674
     92  C         -9.8570   -1.1620   17.5170 C.2   234  ASP234      0.2266
     93  O        -10.0580   -1.3840   16.3180 O.2   234  ASP234     -0.2867
     94  CB        -8.9360   -3.2890   18.4460 C.3   234  ASP234      0.1410
     95  CG        -9.8440   -3.5280   19.6360 C.2   234  ASP234      0.3668
     96  OD1      -11.0800   -3.4990   19.4570 O.co2 234  ASP234     -0.2456
     97  OD2       -9.3230   -3.7420   20.7510 O.co2 234  ASP234     -0.2456
     98  N        -18.0160    3.3720   26.1620 N.3   314  VAL314     -0.1245
     99  CA       -17.3620    2.0820   25.9570 C.3   314  VAL314      0.1561
    100  C        -18.3970    1.0080   25.6480 C.2   314  VAL314      0.2260
    101  O        -18.1520    0.1000   24.8430 O.2   314  VAL314     -0.2867
    102  CB       -16.5120    1.7150   27.1880 C.3   314  VAL314      0.0252
    103  CG1      -15.8910    0.3370   27.0240 C.3   314  VAL314      0.0019
    104  CG2      -15.4330    2.7600   27.4100 C.3   314  VAL314      0.0019
    105  N        -18.4970   -1.2740   22.3110 N.3   318  SER318     -0.1217
    106  CA       -18.3590   -2.7220   22.4560 C.3   318  SER318      0.1889
    107  C        -19.4880   -3.4640   21.7500 C.2   318  SER318      0.2288
    108  O        -19.2430   -4.4060   20.9880 O.2   318  SER318     -0.2866
    109  CB       -18.3150   -3.0990   23.9380 C.3   318  SER318      0.2089
    110  OG       -17.0000   -2.9970   24.4530 O.3   318  SER318     -0.2183
    111  N        -13.7590  -12.1740   29.6410 N.3   376  THR376     -0.1218
    112  CA       -13.3830  -11.2580   28.5710 C.3   376  THR376      0.1862
    113  C        -11.8750  -11.2690   28.3520 C.2   376  THR376      0.2287
    114  O        -11.4030  -11.1810   27.2120 O.2   376  THR376     -0.2866
    115  CB       -13.8670   -9.8430   28.8980 C.3   376  THR376      0.1770
    116  OG1      -15.3010   -9.8120   28.9090 O.3   376  THR376     -0.2211
    117  CG2      -13.3450   -8.8370   27.8770 C.3   376  THR376      0.0375
@<TRIPOS>BOND
     1    93    92    2
     2    92    91    1
     3    91    94    1
     4    91    90    1
     5    49    48    1
     6    94    95    1
     7    47    48   ar
     8    47    45   ar
     9    48    46   ar
    10    96    95   ar
    11    45    43   ar
    12    95    97   ar
    13    46    44   ar
    14    43    44   ar
    15    43    42    1
    16   108   107    2
    17    89    88    2
    18    42    39    1
    19   107   106    1
    20    88    87    1
    21   105   106    1
    22    37    35   ar
    23   106   109    1
    24     5     2    1
    25    39    38    1
    26    39    40    1
    27    38    31   am
    28    87    86    1
    29    29    30    1
    30    33    30    1
    31    33    34    1
    32    35    36   ar
    33    35    34    1
    34    40    41    2
    35    86    80   am
    36     1     2    1
    37    31    30    1
    38    31    32    2
    39     2     3    1
    40   109   110    1
    41    13    11    1
    42    84    82    1
    43    11    10    1
    44   101   100    2
    45     3     4    2
    46     3     6   am
    47    80    79    1
    48    80    81    2
    49     6     7    1
    50    79    82    1
    51    79    78    1
    52   100    99    1
    53    82    83    1
    54    99    98    1
    55    99   102    1
    56    10     7    1
    57    10    12    1
    58     7     8    1
    59    83    85    1
    60    54    51    1
    61   103   102    1
    62   102   104    1
    63   114   113    2
    64    50    51    1
    65    51    52    1
    66   117   115    1
    67    52    53    2
    68     8     9    2
    69   113   112    1
    70   112   115    1
    71   112   111    1
    72   115   116    1
    73    61    59    1
    74    76    75    2
    75    65    64    2
    76    60    59    1
    77    59    56    1
    78    75    74    1
    79    64    63    1
    80    64    73   am
    81    71    72   ar
    82    71    69   ar
    83    72    70   ar
    84    63    62    1
    85    63    66    1
    86    69    67   ar
    87    14    15    1
    88    74    73    1
    89    74    77    1
    90    55    56    1
    91    56    57    1
    92    70    68   ar
    93    15    16    1
    94    67    68   ar
    95    67    66    1
    96    57    58    2
    97    18    16   am
    98    18    19    1
    99    16    17    2
   100    23    22    1
   101    25    26    1
   102    25    20   am
   103    22    19    1
   104    22    24    1
   105    19    20    1
   106    26    27    1
   107    20    21    2
   108    27    28    2
