@<TRIPOS>MOLECULE
tmp/6f34A02.pdb
 122 115 0 0 0
SMALL
GASTEIGER

@<TRIPOS>ATOM
      1  N        -11.4200    8.3840   19.3010 N.3    35  LEU35      -0.1245
      2  CA       -12.1230    7.1170   19.1350 C.3    35  LEU35       0.1561
      3  C        -11.4690    6.0060   19.9450 C.2    35  LEU35       0.2260
      4  O        -12.1580    5.0930   20.4140 O.2    35  LEU35      -0.2867
      5  CB       -12.1740    6.7420   17.6540 C.3    35  LEU35       0.0270
      6  CG       -12.9980    5.5150   17.2640 C.3    35  LEU35       0.0019
      7  CD1      -14.4630    5.7180   17.6100 C.3    35  LEU35       0.0001
      8  CD2      -12.8300    5.2190   15.7810 C.3    35  LEU35       0.0001
      9  N        -30.5660    2.5320   21.5170 N.3   169  LEU169     -0.1231
     10  CA       -29.8510    3.5980   20.8230 C.3   169  LEU169      0.1693
     11  C        -29.2840    3.1080   19.4960 C.2   169  LEU169      0.2591
     12  O        -29.4830    3.7420   18.4530 O.2   169  LEU169     -0.2718
     13  CB       -28.7370    4.1470   21.7130 C.3   169  LEU169      0.0284
     14  CG       -28.9500    5.5480   22.2860 C.3   169  LEU169      0.0019
     15  CD1      -30.2910    5.6360   22.9960 C.3   169  LEU169      0.0001
     16  CD2      -27.8140    5.9180   23.2260 C.3   169  LEU169      0.0001
     17  N        -28.5710    1.9800   19.5180 N.am  170  LEU170     -0.1980
     18  CA       -27.9760    1.4570   18.2940 C.3   170  LEU170      0.1596
     19  C        -29.0390    1.0210   17.2940 C.2   170  LEU170      0.2287
     20  O        -28.7820    1.0020   16.0850 O.2   170  LEU170     -0.2864
     21  CB       -27.0400    0.2930   18.6230 C.3   170  LEU170      0.0297
     22  CG       -25.7720    0.6570   19.3990 C.3   170  LEU170      0.0022
     23  CD1      -25.1710   -0.5720   20.0660 C.3   170  LEU170      0.0001
     24  CD2      -24.7540    1.3300   18.4910 C.3   170  LEU170      0.0001
     25  N        -29.8860    4.1460   15.4150 N.3   173  GLY173     -0.1210
     26  CA       -28.7720    4.4650   14.5460 C.3   173  GLY173      0.1956
     27  C        -28.5780    5.9490   14.3170 C.2   173  GLY173      0.2612
     28  O        -28.4760    6.3950   13.1710 O.2   173  GLY173     -0.2717
     29  N        -28.5350    6.7250   15.3990 N.am  174  ALA174     -0.1965
     30  CA       -28.2500    8.1490   15.2820 C.3   174  ALA174      0.1728
     31  C        -26.8420    8.3500   14.7390 C.2   174  ALA174      0.2616
     32  O        -25.8770    7.7930   15.2670 O.2   174  ALA174     -0.2715
     33  CB       -28.4050    8.8370   16.6360 C.3   174  ALA174      0.0334
     34  N        -26.7310    9.1430   13.6740 N.am  175  LYS175     -0.1963
     35  CA       -25.4570    9.3320   12.9900 C.3   175  LYS175      0.1728
     36  C        -24.3960    9.8610   13.9460 C.2   175  LYS175      0.2616
     37  O        -24.4960   10.9900   14.4370 O.2   175  LYS175     -0.2715
     38  CB       -25.6300   10.2720   11.7960 C.3   175  LYS175      0.0311
     39  CG       -24.4930   10.2070   10.7880 C.3   175  LYS175      0.0038
     40  CD       -24.8770   10.8730    9.4780 C.3   175  LYS175      0.0206
     41  CE       -23.7840   10.7010    8.4370 C.3   175  LYS175      0.1093
     42  NZ       -24.1880   11.2470    7.1110 N.3   175  LYS175     -0.1314
     43  N        -23.3840    9.0390   14.2190 N.am  176  LYS176     -0.1963
     44  CA       -22.3390    9.4080   15.1630 C.3   176  LYS176      0.1728
     45  C        -21.5880   10.6450   14.6860 C.2   176  LYS176      0.2616
     46  O        -21.2430   10.7710   13.5080 O.2   176  LYS176     -0.2715
     47  CB       -21.3710    8.2400   15.3560 C.3   176  LYS176      0.0311
     48  CG       -20.9370    7.5750   14.0600 C.3   176  LYS176      0.0038
     49  CD       -20.1720    6.2920   14.3260 C.3   176  LYS176      0.0206
     50  CE       -19.7430    5.6290   13.0290 C.3   176  LYS176      0.1093
     51  NZ       -18.7730    6.4710   12.2790 N.3   176  LYS176     -0.1314
     52  N        -21.3360   11.5610   15.6160 N.am  177  SER177     -0.1950
     53  CA       -20.6840   12.8300   15.3260 C.3   177  SER177      0.1924
     54  C        -19.2610   12.8130   15.8650 C.2   177  SER177      0.2314
     55  O        -19.0270   12.3880   17.0020 O.2   177  SER177     -0.2863
     56  CB       -21.4660   13.9960   15.9360 C.3   177  SER177      0.2116
     57  OG       -20.8020   15.2280   15.7170 O.3   177  SER177     -0.2180
     58  N        -19.1960   15.4640   18.7030 N.3   180  PHE180     -0.1227
     59  CA       -19.8660   14.9500   19.8930 C.3   180  PHE180      0.1736
     60  C        -19.0120   13.9120   20.6060 C.2   180  PHE180      0.2595
     61  O        -19.0690   13.7990   21.8360 O.2   180  PHE180     -0.2718
     62  CB       -21.2240   14.3550   19.5150 C.3   180  PHE180      0.0547
     63  CG       -22.0540   13.9310   20.6950 C.ar  180  PHE180     -0.0202
     64  CD1      -22.0400   12.6160   21.1330 C.ar  180  PHE180     -0.0042
     65  CD2      -22.8520   14.8440   21.3650 C.ar  180  PHE180     -0.0042
     66  CE1      -22.8020   12.2210   22.2150 C.ar  180  PHE180     -0.0003
     67  CE2      -23.6160   14.4530   22.4490 C.ar  180  PHE180     -0.0003
     68  CZ       -23.5910   13.1410   22.8740 C.ar  180  PHE180     -0.0000
     69  N        -18.2170   13.1480   19.8540 N.am  181  ASN181     -0.1974
     70  CA       -17.3400   12.1600   20.4710 C.3   181  ASN181      0.1688
     71  C        -16.2350   12.8300   21.2790 C.2   181  ASN181      0.2292
     72  O        -15.9180   12.3890   22.3890 O.2   181  ASN181     -0.2864
     73  CB       -16.7460   11.2480   19.3990 C.3   181  ASN181      0.1181
     74  CG       -16.1180    9.9960   19.9800 C.2   181  ASN181      0.2629
     75  OD1      -16.2660    9.7060   21.1680 O.2   181  ASN181     -0.2716
     76  ND2      -15.4070    9.2490   19.1440 N.am  181  ASN181     -0.0877
     77  N        -10.6500   -0.3720   18.2430 N.3   235  ALA235     -0.1245
     78  CA       -11.8190    0.2840   17.6710 C.3   235  ALA235      0.1562
     79  C        -11.4640    1.4530   16.7640 C.2   235  ALA235      0.2260
     80  O        -12.3730    2.0480   16.1750 O.2   235  ALA235     -0.2867
     81  CB       -12.7490    0.7650   18.7870 C.3   235  ALA235      0.0290
     82  N        -12.4330    1.1060   13.0430 N.3   238  THR238     -0.1218
     83  CA       -13.8440    1.1310   12.6700 C.3   238  THR238      0.1862
     84  C        -14.1190    2.2170   11.6390 C.2   238  THR238      0.2287
     85  O        -14.8000    1.9790   10.6350 O.2   238  THR238     -0.2866
     86  CB       -14.7160    1.3410   13.9080 C.3   238  THR238      0.1770
     87  OG1      -14.2980    0.4530   14.9520 O.3   238  THR238     -0.2211
     88  CG2      -16.1810    1.0870   13.5760 C.3   238  THR238      0.0375
     89  N        -19.9860    5.2300   26.8590 N.3   313  THR313     -0.1218
     90  CA       -19.4330    5.2520   25.5100 C.3   313  THR313      0.1862
     91  C        -18.7250    3.9430   25.1850 C.2   313  THR313      0.2287
     92  O        -18.8160    3.4480   24.0570 O.2   313  THR313     -0.2866
     93  CB       -18.4720    6.4300   25.3530 C.3   313  THR313      0.1770
     94  OG1      -19.0250    7.5830   25.9970 O.3   313  THR313     -0.2211
     95  CG2      -18.2550    6.7450   23.8810 C.3   313  THR313      0.0375
     96  N        -21.2990    1.5240   24.1050 N.3   316  LEU316     -0.1231
     97  CA       -21.7440    1.7420   22.7310 C.3   316  LEU316      0.1693
     98  C        -20.7540    1.1550   21.7340 C.2   316  LEU316      0.2591
     99  O        -21.1530    0.5440   20.7360 O.2   316  LEU316     -0.2718
    100  CB       -21.9380    3.2360   22.4690 C.3   316  LEU316      0.0284
    101  CG       -23.3030    3.8550   22.7740 C.3   316  LEU316      0.0019
    102  CD1      -23.1610    5.3290   23.1230 C.3   316  LEU316      0.0001
    103  CD2      -24.2370    3.6750   21.5900 C.3   316  LEU316      0.0001
    104  N        -19.4560    1.3280   21.9910 N.am  317  VAL317     -0.1980
    105  CA       -18.4400    0.8310   21.0700 C.3   317  VAL317      0.1595
    106  C        -18.3690   -0.6910   21.1160 C.2   317  VAL317      0.2287
    107  O        -18.2140   -1.3500   20.0800 O.2   317  VAL317     -0.2864
    108  CB       -17.0790    1.4760   21.3930 C.3   317  VAL317      0.0276
    109  CG1      -15.9720    0.8450   20.5610 C.3   317  VAL317      0.0022
    110  CG2      -17.1360    2.9790   21.1650 C.3   317  VAL317      0.0022
    111  N        -21.4540   -2.3440   19.4120 N.3   320  TYR320     -0.1241
    112  CA       -21.3630   -2.1130   17.9730 C.3   320  TYR320      0.1605
    113  C        -20.2800   -2.9850   17.3510 C.2   320  TYR320      0.2264
    114  O        -20.4680   -3.5340   16.2590 O.2   320  TYR320     -0.2867
    115  CB       -21.0990   -0.6320   17.6920 C.3   320  TYR320      0.0534
    116  CG       -21.0250   -0.2730   16.2190 C.ar  320  TYR320     -0.0201
    117  CD1      -19.8220   -0.3370   15.5240 C.ar  320  TYR320     -0.0009
    118  CD2      -22.1580    0.1390   15.5270 C.ar  320  TYR320     -0.0009
    119  CE1      -19.7510   -0.0090   14.1820 C.ar  320  TYR320      0.0417
    120  CE2      -22.0950    0.4700   14.1840 C.ar  320  TYR320      0.0417
    121  CZ       -20.8900    0.3950   13.5170 C.ar  320  TYR320      0.1957
    122  OH       -20.8200    0.7230   12.1810 O.3   320  TYR320     -0.2866
@<TRIPOS>BOND
     1    42    41    1
     2    41    40    1
     3    40    39    1
     4    85    84    2
     5    39    38    1
     6    84    83    1
     7    38    35    1
     8   122   121    1
     9    51    50    1
    10    83    82    1
    11    83    86    1
    12    35    34    1
    13    35    36    1
    14    50    49    1
    15    28    27    2
    16    46    45    2
    17   121   119   ar
    18   121   120   ar
    19    88    86    1
    20    34    31   am
    21    86    87    1
    22    36    43   am
    23    36    37    2
    24    48    49    1
    25    48    47    1
    26   119   117   ar
    27   120   118   ar
    28    43    44    1
    29    27    26    1
    30    27    29   am
    31    26    25    1
    32    45    44    1
    33    45    52   am
    34    31    32    2
    35    31    30    1
    36    44    47    1
    37    30    29    1
    38    30    33    1
    39    53    52    1
    40    53    54    1
    41    53    56    1
    42   117   116   ar
    43   118   116   ar
    44    57    56    1
    45     8     6    1
    46    54    55    2
    47    20    19    2
    48    80    79    2
    49   116   115    1
    50   114   113    2
    51    79    78    1
    52     6     7    1
    53     6     5    1
    54    19    18    1
    55   113   112    1
    56     5     2    1
    57    78    77    1
    58    78    81    1
    59   115   112    1
    60   112   111    1
    61    18    21    1
    62    18    17    1
    63    12    11    2
    64    24    22    1
    65    21    22    1
    66    58    59    1
    67     2     1    1
    68     2     3    1
    69    76    74   am
    70    73    74    1
    71    73    70    1
    72    22    23    1
    73    11    17   am
    74    11    10    1
    75    62    59    1
    76    62    63    1
    77    69    70    1
    78    69    60   am
    79    59    60    1
    80     3     4    2
    81    74    75    2
    82   107   106    2
    83    70    71    1
    84   109   108    1
    85    60    61    2
    86    63    64   ar
    87    63    65   ar
    88    99    98    2
    89    10     9    1
    90    10    13    1
    91   105   106    1
    92   105   108    1
    93   105   104    1
    94    64    66   ar
    95   110   108    1
    96    71    72    2
    97    65    67   ar
    98   103   101    1
    99    13    14    1
   100    98   104   am
   101    98    97    1
   102    66    68   ar
   103    14    15    1
   104    14    16    1
   105    67    68   ar
   106   100    97    1
   107   100   101    1
   108    97    96    1
   109   101   102    1
   110    95    93    1
   111    92    91    2
   112    91    90    1
   113    93    90    1
   114    93    94    1
   115    90    89    1
