@<TRIPOS>MOLECULE
tmp/6f35A00.pdb
 137 130 0 0 0
SMALL
GASTEIGER

@<TRIPOS>ATOM
      1  N         -3.4590   29.1000  -30.0240 N.3    99  GLY99      -0.1210
      2  CA        -4.3440   29.2980  -28.8960 C.3    99  GLY99       0.1956
      3  C         -5.4670   30.2710  -29.2090 C.2    99  GLY99       0.2612
      4  O         -5.3990   31.0740  -30.1390 O.2    99  GLY99      -0.2717
      5  N         -6.5340   30.1880  -28.4040 N.am  100  ALA100     -0.1965
      6  CA        -7.5700   31.2160  -28.4600 C.3   100  ALA100      0.1728
      7  C         -7.0120   32.5740  -28.0620 C.2   100  ALA100      0.2616
      8  O         -7.5410   33.6080  -28.4810 O.2   100  ALA100     -0.2715
      9  CB        -8.7580   30.8430  -27.5540 C.3   100  ALA100      0.0334
     10  N         -5.9570   32.5930  -27.2400 N.am  101  LYS101     -0.1977
     11  CA        -5.2320   33.8330  -26.9890 C.3   101  LYS101      0.1596
     12  C         -4.9050   34.5560  -28.2960 C.2   101  LYS101      0.2287
     13  O         -5.2100   35.7460  -28.4540 O.2   101  LYS101     -0.2864
     14  CB        -3.9520   33.5350  -26.2020 C.3   101  LYS101      0.0298
     15  CG        -3.0470   34.7470  -25.9690 C.3   101  LYS101      0.0038
     16  CD        -3.7480   35.8310  -25.1610 C.3   101  LYS101      0.0206
     17  CE        -4.1630   35.3140  -23.7990 C.3   101  LYS101      0.1093
     18  NZ        -3.1430   35.5820  -22.7770 N.3   101  LYS101     -0.1314
     19  N         -7.9730   36.0660  -30.1480 N.3   104  LEU104     -0.1245
     20  CA        -8.3910   37.3430  -29.5730 C.3   104  LEU104      0.1561
     21  C         -7.4360   38.4580  -29.9670 C.2   104  LEU104      0.2260
     22  O         -7.8570   39.5680  -30.3210 O.2   104  LEU104     -0.2867
     23  CB        -8.4550   37.2210  -28.0470 C.3   104  LEU104      0.0270
     24  CG        -9.4550   36.2070  -27.4790 C.3   104  LEU104      0.0019
     25  CD1       -9.1070   35.8930  -26.0300 C.3   104  LEU104      0.0001
     26  CD2      -10.8930   36.7430  -27.6110 C.3   104  LEU104      0.0001
     27  N        -11.2180   38.9910  -16.1730 N.3   125  TRP125     -0.1241
     28  CA        -9.7850   38.7530  -16.0700 C.3   125  TRP125      0.1605
     29  C         -9.0440   39.7920  -16.9050 C.2   125  TRP125      0.2264
     30  O         -9.3490   39.9840  -18.0870 O.2   125  TRP125     -0.2867
     31  CB        -9.4520   37.3430  -16.5470 C.3   125  TRP125      0.0550
     32  CG        -8.0290   36.9300  -16.3260 C.ar  125  TRP125      0.0003
     33  CD1       -7.1160   37.5060  -15.4780 C.ar  125  TRP125      0.0946
     34  CD2       -7.3520   35.8480  -16.9760 C.ar  125  TRP125      0.0152
     35  NE1       -5.9020   36.8420  -15.5700 N.ar  125  TRP125     -0.2442
     36  CE2       -6.0250   35.8180  -16.4750 C.ar  125  TRP125      0.0810
     37  CE3       -7.7370   34.9000  -17.9310 C.ar  125  TRP125      0.0012
     38  CZ2       -5.0870   34.8680  -16.8980 C.ar  125  TRP125      0.0191
     39  CZ3       -6.8080   33.9630  -18.3520 C.ar  125  TRP125      0.0001
     40  CH2       -5.4940   33.9530  -17.8340 C.ar  125  TRP125      0.0015
     41  N         -7.9040   40.1790  -20.7820 N.3   128  TYR128     -0.1241
     42  CA        -8.6490   40.7820  -21.8830 C.3   128  TYR128      0.1605
     43  C         -8.2840   42.2460  -22.0780 C.2   128  TYR128      0.2264
     44  O         -8.1190   42.7000  -23.2120 O.2   128  TYR128     -0.2867
     45  CB       -10.1610   40.6790  -21.6500 C.3   128  TYR128      0.0534
     46  CG       -10.7630   39.3160  -21.8540 C.ar  128  TYR128     -0.0201
     47  CD1      -10.7580   38.7000  -23.1040 C.ar  128  TYR128     -0.0009
     48  CD2      -11.3860   38.6620  -20.7990 C.ar  128  TYR128     -0.0009
     49  CE1      -11.3410   37.4440  -23.2850 C.ar  128  TYR128      0.0417
     50  CE2      -11.9720   37.4220  -20.9650 C.ar  128  TYR128      0.0417
     51  CZ       -11.9590   36.8150  -22.2040 C.ar  128  TYR128      0.1957
     52  OH       -12.5590   35.5740  -22.3250 O.3   128  TYR128     -0.2866
     53  N        -18.2840   36.6040  -22.9560 N.3   171  ASN171     -0.1240
     54  CA       -17.4940   35.4340  -22.5590 C.3   171  ASN171      0.1653
     55  C        -18.3390   34.5500  -21.6440 C.2   171  ASN171      0.2266
     56  O        -18.5560   34.8890  -20.4730 O.2   171  ASN171     -0.2867
     57  CB       -16.2040   35.8890  -21.8730 C.3   171  ASN171      0.1155
     58  CG       -15.4900   34.7690  -21.1330 C.2   171  ASN171      0.2627
     59  OD1      -15.0360   34.9490  -19.9980 O.2   171  ASN171     -0.2716
     60  ND2      -15.3820   33.6070  -21.7720 N.am  171  ASN171     -0.0877
     61  N        -14.5010   32.9220  -16.8680 N.3   175  ASN175     -0.1240
     62  CA       -13.5090   33.0810  -15.8080 C.3   175  ASN175      0.1653
     63  C        -13.4950   34.5590  -15.4700 C.2   175  ASN175      0.2266
     64  O        -13.2080   35.3650  -16.3680 O.2   175  ASN175     -0.2867
     65  CB       -12.1280   32.6180  -16.2780 C.3   175  ASN175      0.1155
     66  CG       -11.0020   32.9230  -15.2810 C.2   175  ASN175      0.2627
     67  OD1      -11.2310   33.2140  -14.1050 O.2   175  ASN175     -0.2716
     68  ND2       -9.7640   32.8270  -15.7590 N.am  175  ASN175     -0.0877
     69  N        -16.4530   34.6870  -26.7220 N.3   204  ASP204     -0.1239
     70  CA       -15.4170   33.7650  -26.2630 C.3   204  ASP204      0.1674
     71  C        -16.0970   32.5560  -25.6190 C.2   204  ASP204      0.2266
     72  O        -16.4250   32.5790  -24.4260 O.2   204  ASP204     -0.2867
     73  CB       -14.4580   34.4750  -25.3060 C.3   204  ASP204      0.1410
     74  CG       -13.2920   33.5990  -24.8890 C.2   204  ASP204      0.3668
     75  OD1      -13.3710   32.3630  -25.0620 O.co2 204  ASP204     -0.2456
     76  OD2      -12.2960   34.1560  -24.3760 O.co2 204  ASP204     -0.2456
     77  N        -14.8670   29.5230  -24.9670 N.3   206  MET206     -0.1230
     78  CA       -13.8670   28.5070  -24.6260 C.3   206  MET206      0.1702
     79  C        -14.3430   27.4890  -23.5880 C.2   206  MET206      0.2592
     80  O        -13.8500   26.3530  -23.5870 O.2   206  MET206     -0.2718
     81  CB       -12.5730   29.1720  -24.1400 C.3   206  MET206      0.0401
     82  CG       -11.7310   29.7100  -25.2980 C.3   206  MET206      0.0596
     83  SD       -11.1160   28.3770  -26.3240 S.3   206  MET206     -0.1393
     84  CE        -9.9130   27.6320  -25.2080 C.3   206  MET206      0.0692
     85  N        -15.2550   27.8550  -22.6730 N.am  207  TYR207     -0.1976
     86  CA       -15.7190   26.8960  -21.6660 C.3   207  TYR207      0.1639
     87  C        -17.0160   26.1930  -22.0600 C.2   207  TYR207      0.2290
     88  O        -17.6690   25.5830  -21.1980 O.2   207  TYR207     -0.2864
     89  CB       -15.9100   27.5590  -20.3000 C.3   207  TYR207      0.0560
     90  CG       -14.6100   27.8660  -19.6120 C.ar  207  TYR207     -0.0198
     91  CD1      -13.8210   26.8520  -19.0910 C.ar  207  TYR207     -0.0009
     92  CD2      -14.1680   29.1680  -19.4900 C.ar  207  TYR207     -0.0009
     93  CE1      -12.6070   27.1430  -18.4640 C.ar  207  TYR207      0.0417
     94  CE2      -12.9760   29.4640  -18.8580 C.ar  207  TYR207      0.0417
     95  CZ       -12.2010   28.4560  -18.3570 C.ar  207  TYR207      0.1957
     96  OH       -11.0040   28.7710  -17.7480 O.3   207  TYR207     -0.2866
     97  N         -8.2470   24.0230  -25.8840 N.3   238  SER238     -0.1202
     98  CA        -7.5370   24.0600  -24.5970 C.3   238  SER238      0.2020
     99  C         -8.3360   23.4910  -23.4270 C.2   238  SER238      0.2618
    100  O         -7.8450   22.6330  -22.7020 O.2   238  SER238     -0.2717
    101  CB        -7.1180   25.4940  -24.2440 C.3   238  SER238      0.2103
    102  OG        -5.8370   25.7970  -24.7820 O.3   238  SER238     -0.2182
    103  N         -9.5560   23.9870  -23.2260 N.am  239  LYS239     -0.1979
    104  CA       -10.2850   23.6450  -21.9870 C.3   239  LYS239      0.1596
    105  C        -11.1270   22.4250  -22.1800 C.2   239  LYS239      0.2287
    106  O        -11.1560   21.5630  -21.3120 O.2   239  LYS239     -0.2864
    107  CB       -11.1280   24.8220  -21.5330 C.3   239  LYS239      0.0298
    108  CG       -10.2940   26.1140  -21.4380 C.3   239  LYS239      0.0038
    109  CD        -9.2920   26.0650  -20.2660 C.3   239  LYS239      0.0206
    110  CE        -8.1820   27.1320  -20.4510 C.3   239  LYS239      0.1093
    111  NZ        -8.8030   28.4620  -20.5920 N.3   239  LYS239     -0.1314
    112  N         -4.2050   22.5870  -23.2460 N.3   244  THR244     -0.1218
    113  CA        -3.6720   23.9420  -23.1190 C.3   244  THR244      0.1862
    114  C         -2.2470   24.0480  -23.6610 C.2   244  THR244      0.2287
    115  O         -1.8970   25.0490  -24.2940 O.2   244  THR244     -0.2866
    116  CB        -3.7270   24.3990  -21.6590 C.3   244  THR244      0.1770
    117  OG1       -3.1460   23.4000  -20.8140 O.3   244  THR244     -0.2211
    118  CG2       -5.1890   24.6450  -21.2180 C.3   244  THR244      0.0375
    119  N         -1.6540   24.6480  -27.7820 N.3   247  ARG247     -0.1231
    120  CA        -1.8280   25.9940  -28.3480 C.3   247  ARG247      0.1694
    121  C         -2.5460   25.9670  -29.7080 C.2   247  ARG247      0.2591
    122  O         -1.9900   26.3280  -30.7470 O.2   247  ARG247     -0.2718
    123  CB        -0.4860   26.7270  -28.4790 C.3   247  ARG247      0.0321
    124  CG         0.5630   26.4470  -27.3800 C.3   247  ARG247      0.0489
    125  CD         0.0960   26.9230  -26.0040 C.3   247  ARG247      0.2205
    126  NE        -0.4390   28.2760  -26.0750 N.pl3 247  ARG247     -0.0865
    127  CZ        -1.7050   28.5920  -25.8180 C.cat 247  ARG247      0.5346
    128  NH1       -2.5650   27.6480  -25.4520 N.pl3 247  ARG247      0.1354
    129  NH2       -2.1120   29.8530  -25.9240 N.pl3 247  ARG247      0.1354
    130  N         -3.8280   25.6030  -29.6800 N.am  248  ILE248     -0.1980
    131  CA        -4.6690   25.7100  -30.8760 C.3   248  ILE248      0.1595
    132  C         -5.9960   26.3570  -30.4980 C.2   248  ILE248      0.2287
    133  O         -6.7810   25.7840  -29.7270 O.2   248  ILE248     -0.2864
    134  CB        -4.9100   24.3500  -31.5550 C.3   248  ILE248      0.0276
    135  CG1       -3.6240   23.8230  -32.2060 C.3   248  ILE248      0.0022
    136  CG2       -6.0300   24.4650  -32.6020 C.3   248  ILE248      0.0022
    137  CD1       -3.1100   24.6410  -33.4060 C.3   248  ILE248      0.0001
@<TRIPOS>BOND
     1   137   135    1
     2   136   134    1
     3   135   134    1
     4   134   131    1
     5   131   132    1
     6   131   130    1
     7   122   121    2
     8   132   133    2
     9    22    21    2
    10    19    20    1
    11     4     3    2
    12     1     2    1
    13    21    20    1
    14   121   130   am
    15   121   120    1
    16    20    23    1
    17     3     2    1
    18     3     5   am
    19     8     7    2
    20   123   120    1
    21   123   124    1
    22     6     5    1
    23     6     7    1
    24     6     9    1
    25    13    12    2
    26   120   119    1
    27    12    11    1
    28     7    10   am
    29    23    24    1
    30    26    24    1
    31    24    25    1
    32   124   125    1
    33    10    11    1
    34    11    14    1
    35    69    70    1
    36    83    82    1
    37    83    84    1
    38    70    71    1
    39    70    73    1
    40    14    15    1
    41   126   125    1
    42   126   127    2
    43    15    16    1
    44   129   127    1
    45    97    98    1
    46   127   128    1
    47    71    72    2
    48    73    74    1
    49    82    81    1
    50    16    17    1
    51    75    74   ar
    52    77    78    1
    53    74    76   ar
    54   102   101    1
    55    78    81    1
    56    78    79    1
    57    98   101    1
    58    98    99    1
    59   115   114    2
    60    17    18    1
    61   114   113    1
    62    79    80    2
    63    79    85   am
    64    99   103   am
    65    99   100    2
    66    49    47   ar
    67    49    51   ar
    68   112   113    1
    69   103   104    1
    70    44    43    2
    71   113   116    1
    72    47    46   ar
    73    53    54    1
    74    85    86    1
    75    54    57    1
    76    54    55    1
    77    52    51    1
    78    51    50   ar
    79   105   104    1
    80   105   106    2
    81    43    42    1
    82    87    86    1
    83    87    88    2
    84   104   107    1
    85    42    45    1
    86    42    41    1
    87    57    58    1
    88    46    45    1
    89    46    48   ar
    90    60    58   am
    91    86    89    1
    92   116   118    1
    93   116   117    1
    94    55    56    2
    95   107   108    1
    96   108   109    1
    97    58    59    2
    98    50    48   ar
    99   111   110    1
   100   110   109    1
   101    89    90    1
   102    90    92   ar
   103    90    91   ar
   104    92    94   ar
   105    91    93   ar
   106    94    95   ar
   107    93    95   ar
   108    95    96    1
   109    39    37   ar
   110    39    40   ar
   111    30    29    2
   112    37    34   ar
   113    40    38   ar
   114    34    36   ar
   115    34    32   ar
   116    29    28    1
   117    38    36   ar
   118    61    62    1
   119    31    32    1
   120    31    28    1
   121    36    35   ar
   122    64    63    2
   123    32    33   ar
   124    65    62    1
   125    65    66    1
   126    27    28    1
   127    62    63    1
   128    68    66   am
   129    35    33   ar
   130    66    67    2
