@<TRIPOS>MOLECULE
tmp/6f37A00.pdb
 113 109 0 0 0
SMALL
GASTEIGER

@<TRIPOS>ATOM
      1  N         -8.2780   -0.1680  -10.5170 N.3    34  TRP34      -0.1241
      2  CA        -7.0530    0.2550   -9.8390 C.3    34  TRP34       0.1605
      3  C         -7.1640    1.6600   -9.2590 C.2    34  TRP34       0.2264
      4  O         -7.9880    2.4750   -9.6970 O.2    34  TRP34      -0.2867
      5  CB        -5.8390    0.1310  -10.7740 C.3    34  TRP34       0.0550
      6  CG        -5.8310    1.0260  -11.9870 C.ar   34  TRP34       0.0003
      7  CD1       -5.3070    2.2810  -12.0700 C.ar   34  TRP34       0.0946
      8  CD2       -6.3250    0.7130  -13.2970 C.ar   34  TRP34       0.0152
      9  NE1       -5.4610    2.7810  -13.3400 N.ar   34  TRP34      -0.2442
     10  CE2       -6.0780    1.8410  -14.1180 C.ar   34  TRP34       0.0810
     11  CE3       -6.9540   -0.4070  -13.8590 C.ar   34  TRP34       0.0012
     12  CZ2       -6.4480    1.8880  -15.4680 C.ar   34  TRP34       0.0191
     13  CZ3       -7.3210   -0.3640  -15.2070 C.ar   34  TRP34       0.0001
     14  CH2       -7.0600    0.7760  -15.9970 C.ar   34  TRP34       0.0015
     15  N        -11.9900   -1.0550  -15.8680 N.3    41  ARG41      -0.1245
     16  CA       -12.0600   -1.5670  -17.2190 C.3    41  ARG41       0.1563
     17  C        -12.9280   -2.8060  -17.2030 C.2    41  ARG41       0.2260
     18  O        -12.7440   -3.6800  -16.3600 O.2    41  ARG41      -0.2867
     19  CB       -10.6660   -1.8870  -17.7320 C.3    41  ARG41       0.0307
     20  CG        -9.7290   -0.6880  -17.7510 C.3    41  ARG41       0.0489
     21  CD       -10.0990    0.2910  -18.8450 C.3    41  ARG41       0.2205
     22  NE        -9.2010    1.4440  -18.8600 N.pl3  41  ARG41      -0.0865
     23  CZ        -9.3400    2.5510  -18.1250 C.cat  41  ARG41       0.5346
     24  NH1      -10.3580    2.7070  -17.2730 N.pl3  41  ARG41       0.1354
     25  NH2       -8.4480    3.5290  -18.2450 N.pl3  41  ARG41       0.1354
     26  N        -13.9580   -3.4250  -24.8420 N.3    52  GLU52      -0.1245
     27  CA       -13.5730   -2.8570  -23.5560 C.3    52  GLU52       0.1567
     28  C        -14.3070   -1.5460  -23.3070 C.2    52  GLU52       0.2260
     29  O        -14.3560   -0.6830  -24.1870 O.2    52  GLU52      -0.2867
     30  CB       -12.0670   -2.6090  -23.5610 C.3    52  GLU52       0.0388
     31  CG       -11.5090   -1.8520  -22.3600 C.3    52  GLU52       0.1160
     32  CD       -10.0570   -1.4650  -22.5530 C.2    52  GLU52       0.3649
     33  OE1       -9.7270   -0.9130  -23.6210 O.co2  52  GLU52      -0.2457
     34  OE2       -9.2480   -1.7200  -21.6360 O.co2  52  GLU52      -0.2457
     35  N        -14.5400    1.6400  -20.3270 N.3    54  CYS54      -0.1235
     36  CA       -13.5840    2.2570  -19.4140 C.3    54  CYS54       0.1677
     37  C        -14.2420    3.3200  -18.5460 C.2    54  CYS54       0.2270
     38  O        -15.1170    4.0410  -19.0110 O.2    54  CYS54      -0.2867
     39  CB       -12.4750    2.9210  -20.2180 C.3    54  CYS54       0.0956
     40  SG       -11.7080    1.8690  -21.4600 S.3    54  CYS54      -0.0801
     41  N        -12.7790    6.3330  -15.7450 N.3    56  ASP56      -0.1239
     42  CA       -11.7270    6.9980  -14.9620 C.3    56  ASP56       0.1674
     43  C        -12.3020    8.1330  -14.1060 C.2    56  ASP56       0.2266
     44  O        -11.5860    9.0650  -13.7480 O.2    56  ASP56      -0.2867
     45  CB       -10.6290    7.5360  -15.8810 C.3    56  ASP56       0.1410
     46  CG       -10.0390    6.4710  -16.7810 C.2    56  ASP56       0.3668
     47  OD1       -9.5850    5.4240  -16.2740 O.co2  56  ASP56      -0.2456
     48  OD2      -10.0190    6.6900  -18.0020 O.co2  56  ASP56      -0.2456
     49  N        -16.6020    5.1570  -21.4070 N.3    61  TYR61      -0.1241
     50  CA       -16.2160    5.2520  -22.8120 C.3    61  TYR61       0.1605
     51  C        -15.5470    3.9720  -23.2720 C.2    61  TYR61       0.2264
     52  O        -15.0640    3.1890  -22.4620 O.2    61  TYR61      -0.2867
     53  CB       -15.2920    6.4530  -23.0350 C.3    61  TYR61       0.0534
     54  CG       -13.9690    6.3440  -22.3220 C.ar   61  TYR61      -0.0201
     55  CD1      -13.8410    6.7090  -20.9780 C.ar   61  TYR61      -0.0009
     56  CD2      -12.8440    5.8660  -22.9810 C.ar   61  TYR61      -0.0009
     57  CE1      -12.6230    6.6030  -20.3180 C.ar   61  TYR61       0.0417
     58  CE2      -11.6250    5.7560  -22.3300 C.ar   61  TYR61       0.0417
     59  CZ       -11.5180    6.1290  -21.0020 C.ar   61  TYR61       0.1957
     60  OH       -10.3080    6.0210  -20.3630 O.3    61  TYR61      -0.2866
     61  N        -12.7480    1.6580  -24.8610 N.3    63  GLY63      -0.1210
     62  CA       -11.2920    1.6340  -24.9000 C.3    63  GLY63       0.1956
     63  C        -10.7360    1.0440  -26.1800 C.2    63  GLY63       0.2611
     64  O        -11.4780    0.5330  -27.0240 O.2    63  GLY63      -0.2717
     65  N         -9.4120    1.1020  -26.3030 N.am   64  ALA64      -0.1979
     66  CA        -8.7120    0.6280  -27.4930 C.3    64  ALA64       0.1597
     67  C         -8.7550   -0.8860  -27.7090 C.2    64  ALA64       0.2287
     68  O         -8.5770   -1.3340  -28.8400 O.2    64  ALA64      -0.2864
     69  CB        -7.2680    1.0910  -27.4590 C.3    64  ALA64       0.0319
     70  N         -0.1690    1.7230  -14.8640 N.3    83  ILE83      -0.1245
     71  CA        -1.0260    0.5280  -14.8640 C.3    83  ILE83       0.1561
     72  C         -0.5590   -0.4660  -15.9230 C.2    83  ILE83       0.2260
     73  O         -0.1870   -0.0800  -17.0340 O.2    83  ILE83      -0.2867
     74  CB        -2.5390    0.8580  -15.0460 C.3    83  ILE83       0.0252
     75  CG1       -3.4140   -0.3920  -14.8140 C.3    83  ILE83       0.0019
     76  CG2       -2.8500    1.4420  -16.4240 C.3    83  ILE83       0.0019
     77  CD1       -3.3990   -0.9220  -13.3920 C.3    83  ILE83       0.0001
     78  N         -2.0420   -4.1360  -17.5770 N.3    85  ILE85      -0.1245
     79  CA        -3.2300   -4.9860  -17.6790 C.3    85  ILE85       0.1561
     80  C         -2.8750   -6.2120  -18.5070 C.2    85  ILE85       0.2260
     81  O         -2.1110   -6.1260  -19.4730 O.2    85  ILE85      -0.2867
     82  CB        -4.4300   -4.2560  -18.3350 C.3    85  ILE85       0.0252
     83  CG1       -4.6070   -2.8450  -17.7620 C.3    85  ILE85       0.0019
     84  CG2       -5.7200   -5.0530  -18.1420 C.3    85  ILE85       0.0019
     85  CD1       -5.6370   -2.0150  -18.5030 C.3    85  ILE85       0.0001
     86  N         -1.3700   -4.5940  -21.9800 N.3   100  TRP100     -0.1241
     87  CA        -1.2760   -3.1350  -21.9260 C.3   100  TRP100      0.1605
     88  C         -0.1280   -2.7780  -20.9910 C.2   100  TRP100      0.2264
     89  O         -0.0790   -3.2670  -19.8680 O.2   100  TRP100     -0.2867
     90  CB        -2.5750   -2.5110  -21.4090 C.3   100  TRP100      0.0550
     91  CG        -2.4990   -1.0120  -21.3290 C.ar  100  TRP100      0.0003
     92  CD1       -2.1430   -0.2610  -20.2450 C.ar  100  TRP100      0.0946
     93  CD2       -2.7430   -0.0920  -22.3910 C.ar  100  TRP100      0.0152
     94  NE1       -2.1660    1.0710  -20.5630 N.ar  100  TRP100     -0.2442
     95  CE2       -2.5280    1.2060  -21.8770 C.ar  100  TRP100      0.0810
     96  CE3       -3.1260   -0.2360  -23.7320 C.ar  100  TRP100      0.0012
     97  CZ2       -2.6880    2.3620  -22.6590 C.ar  100  TRP100      0.0191
     98  CZ3       -3.2990    0.9070  -24.5020 C.ar  100  TRP100      0.0001
     99  CH2       -3.0750    2.1930  -23.9630 C.ar  100  TRP100      0.0015
    100  N         -1.8050   -2.3540  -27.1770 N.3   105  TRP105     -0.1241
    101  CA        -2.0180   -3.7430  -26.8170 C.3   105  TRP105      0.1605
    102  C         -1.1020   -4.6520  -27.6410 C.2   105  TRP105      0.2264
    103  O         -1.1540   -4.6310  -28.8710 O.2   105  TRP105     -0.2867
    104  CB        -3.4840   -4.1160  -27.0250 C.3   105  TRP105      0.0550
    105  CG        -4.3800   -3.5030  -25.9990 C.ar  105  TRP105      0.0003
    106  CD1       -5.0730   -2.3320  -26.1040 C.ar  105  TRP105      0.0946
    107  CD2       -4.6670   -4.0260  -24.6980 C.ar  105  TRP105      0.0152
    108  NE1       -5.7860   -2.0980  -24.9530 N.ar  105  TRP105     -0.2442
    109  CE2       -5.5570   -3.1240  -24.0730 C.ar  105  TRP105      0.0810
    110  CE3       -4.2720   -5.1800  -24.0050 C.ar  105  TRP105      0.0012
    111  CZ2       -6.0580   -3.3370  -22.7770 C.ar  105  TRP105      0.0191
    112  CZ3       -4.7670   -5.3930  -22.7140 C.ar  105  TRP105      0.0001
    113  CH2       -5.6520   -4.4740  -22.1160 C.ar  105  TRP105      0.0015
@<TRIPOS>BOND
     1   103   102    2
     2    68    67    2
     3    67    66    1
     4   102   101    1
     5    66    69    1
     6    66    65    1
     7   100   101    1
     8   104   101    1
     9   104   105    1
    10    64    63    2
    11    65    63   am
    12    63    62    1
    13   106   105   ar
    14   106   108   ar
    15   105   107   ar
    16   108   109   ar
    17    62    61    1
    18    26    27    1
    19   107   109   ar
    20   107   110   ar
    21    98    99   ar
    22    98    96   ar
    23    29    28    2
    24   109   111   ar
    25   110   112   ar
    26    99    97   ar
    27    96    93   ar
    28    33    32   ar
    29    30    27    1
    30    30    31    1
    31    27    28    1
    32    51    50    1
    33    51    52    2
    34    53    50    1
    35    53    54    1
    36    56    58   ar
    37    56    54   ar
    38    50    49    1
    39   111   113   ar
    40   112   113   ar
    41    97    95   ar
    42    32    31    1
    43    32    34   ar
    44    93    95   ar
    45    93    91   ar
    46    58    59   ar
    47    54    55   ar
    48    86    87    1
    49    87    90    1
    50    87    88    1
    51    95    94   ar
    52    40    39    1
    53    90    91    1
    54    91    92   ar
    55    59    60    1
    56    59    57   ar
    57    88    89    2
    58    55    57   ar
    59    94    92   ar
    60    35    36    1
    61    39    36    1
    62    81    80    2
    63    36    37    1
    64    38    37    2
    65    22    21    1
    66    22    23    2
    67    21    20    1
    68    80    79    1
    69    85    83    1
    70    82    84    1
    71    82    83    1
    72    82    79    1
    73    25    23    1
    74    23    24    1
    75    48    46   ar
    76    20    19    1
    77    19    16    1
    78    79    78    1
    79    16    17    1
    80    16    15    1
    81    17    18    2
    82    73    72    2
    83    46    47   ar
    84    46    45    1
    85    76    74    1
    86    14    12   ar
    87    14    13   ar
    88    72    71    1
    89    45    42    1
    90    41    42    1
    91    12    10   ar
    92    13    11   ar
    93    74    71    1
    94    74    75    1
    95    42    43    1
    96    71    70    1
    97    75    77    1
    98    10     9   ar
    99    10     8   ar
   100    43    44    2
   101    11     8   ar
   102     9     7   ar
   103     8     6   ar
   104     7     6   ar
   105     6     5    1
   106     5     2    1
   107     1     2    1
   108     2     3    1
   109     4     3    2
