@<TRIPOS>MOLECULE
tmp/6f3bA00.pdb
 170 167 0 0 0
SMALL
GASTEIGER

@<TRIPOS>ATOM
      1  N         20.7370   30.0200   13.5910 N.3    64  HIS64      -0.1241
      2  CA        19.6960   29.3810   14.3830 C.3    64  HIS64       0.1621
      3  C         19.8590   27.8690   14.3830 C.2    64  HIS64       0.2264
      4  O         20.2290   27.2810   13.3620 O.2    64  HIS64      -0.2867
      5  CB        18.2950   29.7100   13.8100 C.3    64  HIS64       0.0745
      6  CG        17.9260   31.1580   13.8890 C.ar   64  HIS64       0.0817
      7  ND1       16.8970   31.6970   13.1470 N.ar   64  HIS64      -0.2268
      8  CD2       18.4130   32.1660   14.6490 C.ar   64  HIS64       0.1154
      9  CE1       16.7850   32.9820   13.4290 C.ar   64  HIS64       0.1986
     10  NE2       17.6830   33.2880   14.3480 N.ar   64  HIS64      -0.2212
     11  N         11.4420   25.1820   20.1370 N.3    88  PHE88      -0.1227
     12  CA        11.5850   25.2840   18.6790 C.3    88  PHE88       0.1736
     13  C         12.9470   25.6840   18.1460 C.2    88  PHE88       0.2595
     14  O         13.2480   25.4210   16.9870 O.2    88  PHE88      -0.2718
     15  CB        10.4430   26.0970   18.0130 C.3    88  PHE88       0.0547
     16  CG        10.4970   27.5880   18.2330 C.ar   88  PHE88      -0.0202
     17  CD1        9.9190   28.1610   19.3740 C.ar   88  PHE88      -0.0042
     18  CD2       11.0840   28.4190   17.2840 C.ar   88  PHE88      -0.0042
     19  CE1        9.9360   29.5470   19.5540 C.ar   88  PHE88      -0.0003
     20  CE2       11.1000   29.8190   17.4580 C.ar   88  PHE88      -0.0003
     21  CZ        10.5410   30.3720   18.5990 C.ar   88  PHE88      -0.0000
     22  N         13.7470   26.3770   18.9720 N.am   89  GLN89      -0.1979
     23  CA        15.0160   26.9150   18.4960 C.3    89  GLN89       0.1601
     24  C         15.8990   27.3400   19.6570 C.2    89  GLN89       0.2287
     25  O         15.3910   27.7160   20.7390 O.2    89  GLN89      -0.2864
     26  CB        14.7360   28.1520   17.6210 C.3    89  GLN89       0.0394
     27  CG        15.9230   28.8430   16.9740 C.3    89  GLN89       0.0908
     28  CD        15.4800   30.1170   16.3220 C.2    89  GLN89       0.2608
     29  OE1       15.7070   31.2190   16.8390 O.2    89  GLN89      -0.2717
     30  NE2       14.7820   29.9760   15.1770 N.am   89  GLN89      -0.0878
     31  N         19.5340   30.0570   19.8300 N.3    91  HIS91      -0.1241
     32  CA        20.4950   30.8920   19.1060 C.3    91  HIS91       0.1621
     33  C         21.2350   31.7600   20.1160 C.2    91  HIS91       0.2264
     34  O         20.9390   31.6950   21.3290 O.2    91  HIS91      -0.2867
     35  CB        19.7670   31.7550   18.0490 C.3    91  HIS91       0.0745
     36  CG        18.8030   32.7270   18.6450 C.ar   91  HIS91       0.0817
     37  ND1       17.4350   32.5610   18.5580 N.ar   91  HIS91      -0.2268
     38  CD2       19.0060   33.8720   19.3340 C.ar   91  HIS91       0.1154
     39  CE1       16.8340   33.5730   19.1680 C.ar   91  HIS91       0.1986
     40  NE2       17.7680   34.3800   19.6480 N.ar   91  HIS91      -0.2212
     41  N         23.3180   35.6920   20.9470 N.3    93  HIS93      -0.1241
     42  CA        23.6810   37.0560   20.5650 C.3    93  HIS93       0.1621
     43  C         25.0690   37.3180   21.1000 C.2    93  HIS93       0.2264
     44  O         25.4480   36.7470   22.1150 O.2    93  HIS93      -0.2867
     45  CB        22.7060   38.0510   21.1600 C.3    93  HIS93       0.0745
     46  CG        21.3050   37.8540   20.6880 C.ar   93  HIS93       0.0817
     47  ND1       20.7510   38.6250   19.6890 N.ar   93  HIS93      -0.2268
     48  CD2       20.3400   36.9900   21.0840 C.ar   93  HIS93       0.1154
     49  CE1       19.5030   38.2400   19.4850 C.ar   93  HIS93       0.1986
     50  NE2       19.2320   37.2490   20.3130 N.ar   93  HIS93      -0.2212
     51  N         19.7350   32.1490   23.8630 N.3   116  HIS116     -0.1241
     52  CA        18.2580   32.1780   23.8870 C.3   116  HIS116      0.1621
     53  C         17.7190   30.8140   23.4970 C.2   116  HIS116      0.2264
     54  O         18.0670   30.3010   22.4360 O.2   116  HIS116     -0.2867
     55  CB        17.7130   33.2770   22.9440 C.3   116  HIS116      0.0745
     56  CG        17.9310   34.6580   23.4600 C.ar  116  HIS116      0.0817
     57  ND1       17.8290   35.7810   22.6730 N.ar  116  HIS116     -0.2268
     58  CD2       18.2990   35.0870   24.6970 C.ar  116  HIS116      0.1154
     59  CE1       18.0750   36.8530   23.4140 C.ar  116  HIS116      0.1986
     60  NE2       18.3790   36.4590   24.6370 N.ar  116  HIS116     -0.2212
     61  N         14.1860   29.1210   22.7980 N.3   118  ALA118     -0.1245
     62  CA        12.8620   29.6900   22.5130 C.3   118  ALA118      0.1562
     63  C         11.8240   28.5850   22.3720 C.2   118  ALA118      0.2260
     64  O         12.1280   27.4860   21.8840 O.2   118  ALA118     -0.2867
     65  CB        12.9110   30.5600   21.2600 C.3   118  ALA118      0.0290
     66  N          3.7330   27.7420   15.9140 N.3   128  LEU128     -0.1231
     67  CA         4.5830   28.9040   16.1620 C.3   128  LEU128      0.1693
     68  C          4.0110   30.1820   15.5330 C.2   128  LEU128      0.2591
     69  O          3.9320   31.2120   16.2070 O.2   128  LEU128     -0.2718
     70  CB         6.0030   28.6750   15.6220 C.3   128  LEU128      0.0284
     71  CG         6.9660   29.8690   15.7210 C.3   128  LEU128      0.0019
     72  CD1        7.1760   30.3140   17.1710 C.3   128  LEU128      0.0001
     73  CD2        8.2980   29.5730   15.0340 C.3   128  LEU128      0.0001
     74  N          3.6000   30.1150   14.2620 N.am  129  ALA129     -0.1980
     75  CA         3.0680   31.2960   13.5740 C.3   129  ALA129      0.1597
     76  C          1.8800   31.9190   14.3050 C.2   129  ALA129      0.2287
     77  O          1.7740   33.1400   14.4080 O.2   129  ALA129     -0.2864
     78  CB         2.6680   30.9250   12.1600 C.3   129  ALA129      0.0319
     79  N          3.1420   33.3900   17.9370 N.3   132  ALA132     -0.1245
     80  CA         4.1790   34.4210   17.9110 C.3   132  ALA132      0.1562
     81  C          3.7010   35.8370   18.1950 C.2   132  ALA132      0.2260
     82  O          4.4820   36.6550   18.6690 O.2   132  ALA132     -0.2867
     83  CB         4.9310   34.3770   16.5940 C.3   132  ALA132      0.0290
     84  N          4.9580   33.0320   23.5380 N.3   138  LEU138     -0.1245
     85  CA         6.3740   32.6040   23.5370 C.3   138  LEU138      0.1561
     86  C          7.0030   32.6060   24.9210 C.2   138  LEU138      0.2260
     87  O          6.6160   33.4200   25.7590 O.2   138  LEU138     -0.2867
     88  CB         7.1880   33.4810   22.5990 C.3   138  LEU138      0.0270
     89  CG         6.6770   33.5940   21.1510 C.3   138  LEU138      0.0019
     90  CD1        7.6070   34.4990   20.3910 C.3   138  LEU138      0.0001
     91  CD2        6.5850   32.2390   20.4600 C.3   138  LEU138      0.0001
     92  N         11.0520   32.3430   26.4230 N.3   140  VAL140     -0.1245
     93  CA        12.4630   32.2740   26.0150 C.3   140  VAL140      0.1561
     94  C         13.3080   32.2890   27.2800 C.2   140  VAL140      0.2260
     95  O         13.1320   33.1670   28.1300 O.2   140  VAL140     -0.2867
     96  CB        12.8820   33.3960   25.0370 C.3   140  VAL140      0.0252
     97  CG1       14.3100   33.1680   24.5400 C.3   140  VAL140      0.0019
     98  CG2       11.9390   33.4830   23.8470 C.3   140  VAL140      0.0019
     99  N         10.1320   39.9150   21.5380 N.3   195  LEU195     -0.1231
    100  CA        11.2550   39.5310   20.6810 C.3   195  LEU195      0.1693
    101  C         12.2510   40.6770   20.6530 C.2   195  LEU195      0.2593
    102  O         11.8650   41.8580   20.6530 O.2   195  LEU195     -0.2718
    103  CB        10.7470   39.2550   19.2530 C.3   195  LEU195      0.0284
    104  CG         9.6940   38.1590   19.1550 C.3   195  LEU195      0.0019
    105  CD1        9.2070   38.0890   17.7050 C.3   195  LEU195      0.0001
    106  CD2       10.2180   36.8170   19.6190 C.3   195  LEU195      0.0001
    107  N         13.5400   40.3550   20.5810 N.am  196  THR196     -0.1939
    108  CA        14.5580   41.4140   20.6710 C.3   196  THR196      0.2028
    109  C         15.0280   41.9170   19.3120 C.2   196  THR196      0.2642
    110  O         15.9200   42.7540   19.2190 O.2   196  THR196     -0.2714
    111  CB        15.7920   40.9550   21.4980 C.3   196  THR196      0.1808
    112  OG1       16.4790   39.8810   20.8260 O.3   196  THR196     -0.2208
    113  CG2       15.3630   40.5060   22.8960 C.3   196  THR196      0.0379
    114  N         14.4250   41.3970   18.2450 N.am  197  HIS197     -0.1959
    115  CA        14.6270   41.9620   16.9390 C.3   197  HIS197      0.1772
    116  C         13.3260   41.9080   16.1490 C.2   197  HIS197      0.2462
    117  O         12.3810   41.2780   16.6210 O.2   197  HIS197     -0.2730
    118  CB        15.8510   41.3840   16.2130 C.3   197  HIS197      0.0785
    119  CG        15.7600   39.9380   15.8630 C.ar  197  HIS197      0.0821
    120  ND1       14.9180   39.4610   14.8760 N.ar  197  HIS197     -0.2267
    121  CD2       16.4870   38.8760   16.2850 C.ar  197  HIS197      0.1154
    122  CE1       15.1070   38.1590   14.7350 C.ar  197  HIS197      0.1986
    123  NE2       16.0560   37.7810   15.5760 N.ar  197  HIS197     -0.2212
    124  N         13.2510   42.6210   15.0080 N.am  198  PRO198     -0.2716
    125  CA        11.9940   42.6260   14.2390 C.3   198  PRO198      0.1521
    126  C         11.4830   41.2080   13.9920 C.2   198  PRO198      0.2440
    127  O         12.2930   40.3030   13.6990 O.2   198  PRO198     -0.2731
    128  CB        12.3950   43.3320   12.9470 C.3   198  PRO198      0.0310
    129  CG        13.4020   44.3420   13.4300 C.3   198  PRO198      0.0237
    130  CD        14.2270   43.5700   14.4200 C.3   198  PRO198      0.0939
    131  N         10.1820   40.9860   14.1550 N.am  199  PRO199     -0.2727
    132  CA         9.1440   42.0240   14.2800 C.3   199  PRO199      0.1402
    133  C          8.8310   42.5510   15.6990 C.2   199  PRO199      0.2269
    134  O          7.8580   43.2930   15.8740 O.2   199  PRO199     -0.2865
    135  CB         7.9010   41.3080   13.7110 C.3   199  PRO199      0.0296
    136  CG         8.1280   39.8880   14.1040 C.3   199  PRO199      0.0237
    137  CD         9.6060   39.6460   13.9760 C.3   199  PRO199      0.0939
    138  N          7.5130   41.5660   18.4490 N.3   201  TYR201     -0.1241
    139  CA         6.2380   41.2250   19.1050 C.3   201  TYR201      0.1605
    140  C          6.3900   41.1330   20.6150 C.2   201  TYR201      0.2264
    141  O          7.3380   40.5080   21.1110 O.2   201  TYR201     -0.2867
    142  CB         5.7460   39.8540   18.6700 C.3   201  TYR201      0.0534
    143  CG         5.2120   39.7540   17.2740 C.ar  201  TYR201     -0.0201
    144  CD1        4.3230   40.7060   16.7800 C.ar  201  TYR201     -0.0009
    145  CD2        5.5510   38.6670   16.4650 C.ar  201  TYR201     -0.0009
    146  CE1        3.8030   40.6000   15.4990 C.ar  201  TYR201      0.0417
    147  CE2        5.0370   38.5450   15.1870 C.ar  201  TYR201      0.0417
    148  CZ         4.1730   39.5160   14.7110 C.ar  201  TYR201      0.1957
    149  OH         3.6530   39.4240   13.4350 O.3   201  TYR201     -0.2866
    150  N          6.6310   37.6050   24.5280 N.3   204  VAL204     -0.1245
    151  CA         7.5960   36.7410   25.2130 C.3   204  VAL204      0.1561
    152  C          7.5330   36.8730   26.7380 C.2   204  VAL204      0.2260
    153  O          7.6430   37.9680   27.2770 O.2   204  VAL204     -0.2867
    154  CB         9.0420   37.0280   24.7440 C.3   204  VAL204      0.0252
    155  CG1       10.0300   36.0740   25.4210 C.3   204  VAL204      0.0019
    156  CG2        9.1440   36.8980   23.2260 C.3   204  VAL204      0.0019
    157  N          9.9660   36.1760   29.4570 N.3   206  TRP206     -0.1241
    158  CA        11.4030   35.9520   29.5920 C.3   206  TRP206      0.1605
    159  C         11.7160   35.2160   30.8670 C.2   206  TRP206      0.2264
    160  O         11.1060   35.4850   31.8820 O.2   206  TRP206     -0.2867
    161  CB        12.1510   37.2750   29.5310 C.3   206  TRP206      0.0550
    162  CG        12.2980   37.7090   28.1000 C.ar  206  TRP206      0.0003
    163  CD1       11.5110   38.5830   27.4280 C.ar  206  TRP206      0.0946
    164  CD2       13.2890   37.2460   27.1560 C.ar  206  TRP206      0.0152
    165  NE1       11.9450   38.7100   26.1190 N.ar  206  TRP206     -0.2442
    166  CE2       13.0290   37.8950   25.9260 C.ar  206  TRP206      0.0810
    167  CE3       14.3690   36.3460   27.2420 C.ar  206  TRP206      0.0012
    168  CZ2       13.8190   37.6840   24.7720 C.ar  206  TRP206      0.0191
    169  CZ3       15.1560   36.1410   26.1030 C.ar  206  TRP206      0.0001
    170  CH2       14.8750   36.7920   24.8970 C.ar  206  TRP206      0.0015
@<TRIPOS>BOND
     1    78    75    1
     2   128   129    1
     3   128   125    1
     4     7     9   ar
     5     7     6   ar
     6     4     3    2
     7     9    10   ar
     8   129   130    1
     9   149   148    1
    10    75    74    1
    11    75    76    1
    12     1     2    1
    13   127   126    2
    14   135   136    1
    15   135   132    1
    16     5     6    1
    17     5     2    1
    18     6     8   ar
    19   137   136    1
    20   137   131    1
    21   126   131   am
    22   126   125    1
    23   131   132    1
    24   125   124    1
    25    74    68   am
    26   132   133    1
    27    76    77    2
    28    10     8   ar
    29     2     3    1
    30   130   124    1
    31   148   147   ar
    32   148   146   ar
    33   122   120   ar
    34   122   123   ar
    35   120   119   ar
    36   124   116   am
    37    73    71    1
    38    30    28   am
    39   147   145   ar
    40   146   144   ar
    41    68    67    1
    42    68    69    2
    43   123   121   ar
    44    70    71    1
    45    70    67    1
    46   133   134    2
    47    71    72    1
    48   119   118    1
    49   119   121   ar
    50    66    67    1
    51   116   117    2
    52   116   115    1
    53   118   115    1
    54    28    29    2
    55    28    27    1
    56   145   143   ar
    57    83    80    1
    58   144   143   ar
    59   115   114    1
    60    27    26    1
    61    14    13    2
    62   143   142    1
    63    18    20   ar
    64    18    16   ar
    65    20    21   ar
    66    26    23    1
    67   105   104    1
    68    80    79    1
    69    80    81    1
    70    15    16    1
    71    15    12    1
    72    35    36    1
    73    35    32    1
    74    13    12    1
    75    13    22   am
    76    81    82    2
    77    16    17   ar
    78   114   109   am
    79   138   139    1
    80    23    22    1
    81    23    24    1
    82    37    36   ar
    83    37    39   ar
    84    21    19   ar
    85    36    38   ar
    86   142   139    1
    87    12    11    1
    88   139   140    1
    89    32    31    1
    90    32    33    1
    91   104   103    1
    92   104   106    1
    93    39    40   ar
    94   110   109    2
    95   103   100    1
    96   109   108    1
    97    38    40   ar
    98    17    19   ar
    99    49    47   ar
   100    49    50   ar
   101    24    25    2
   102    47    46   ar
   103    33    34    2
   104    50    48   ar
   105    90    89    1
   106    91    89    1
   107    42    41    1
   108    42    43    1
   109    42    45    1
   110   107   101   am
   111   107   108    1
   112   140   141    2
   113   102   101    2
   114   101   100    1
   115   108   111    1
   116   100    99    1
   117    46    48   ar
   118    46    45    1
   119   112   111    1
   120    43    44    2
   121    89    88    1
   122    65    62    1
   123   111   113    1
   124    64    63    2
   125    63    62    1
   126    54    53    2
   127    62    61    1
   128    88    85    1
   129    57    59   ar
   130    57    56   ar
   131    55    56    1
   132    55    52    1
   133   156   154    1
   134    59    60   ar
   135    56    58   ar
   136    53    52    1
   137    85    84    1
   138    85    86    1
   139    98    96    1
   140    51    52    1
   141   150   151    1
   142    97    96    1
   143    60    58   ar
   144   154   151    1
   145   154   155    1
   146   168   170   ar
   147   168   166   ar
   148   170   169   ar
   149    86    87    2
   150    96    93    1
   151   151   152    1
   152   166   165   ar
   153   166   164   ar
   154    93    92    1
   155    93    94    1
   156   169   167   ar
   157   165   163   ar
   158   152   153    2
   159   164   167   ar
   160   164   162   ar
   161    94    95    2
   162   163   162   ar
   163   162   161    1
   164   157   158    1
   165   161   158    1
   166   158   159    1
   167   159   160    2
