@<TRIPOS>MOLECULE
tmp/6f3dA00.pdb
 173 161 0 0 0
SMALL
GASTEIGER

@<TRIPOS>ATOM
      1  N         19.4080   49.6900    9.6330 N.3    29  MET29      -0.1230
      2  CA        19.2810   48.2330    9.6820 C.3    29  MET29       0.1702
      3  C         19.0640   47.7290   11.1140 C.2    29  MET29       0.2592
      4  O         18.3730   46.7280   11.3170 O.2    29  MET29      -0.2718
      5  CB        20.5630   47.6210    9.1270 C.3    29  MET29       0.0401
      6  CG        20.3710   46.4770    8.1850 C.3    29  MET29       0.0596
      7  SD        21.4400   46.5050    6.6980 S.3    29  MET29      -0.1393
      8  CE        23.0460   46.8170    7.3580 C.3    29  MET29       0.0692
      9  N         19.6700   48.4110   12.0730 N.am   30  GLY30      -0.1957
     10  CA        19.5820   48.0870   13.4840 C.3    30  GLY30       0.1869
     11  C         20.5810   48.8740   14.3000 C.2    30  GLY30       0.2309
     12  O         21.6100   49.3130   13.7790 O.2    30  GLY30      -0.2863
     13  N         23.7810   50.6930   12.6190 N.3    37  VAL37      -0.1245
     14  CA        24.1400   49.9580   11.4120 C.3    37  VAL37       0.1561
     15  C         23.2410   50.4360   10.2730 C.2    37  VAL37       0.2260
     16  O         22.0130   50.3630   10.3820 O.2    37  VAL37      -0.2867
     17  CB        24.0880   48.4170   11.6190 C.3    37  VAL37       0.0252
     18  CG1       24.5570   47.6810   10.3700 C.3    37  VAL37       0.0019
     19  CG2       24.9240   47.9940   12.8220 C.3    37  VAL37       0.0019
     20  N         27.2160   47.1610    4.5440 N.3    48  ALA48      -0.1245
     21  CA        26.7210   47.4440    5.8860 C.3    48  ALA48       0.1562
     22  C         27.7280   48.4440    6.4800 C.2    48  ALA48       0.2260
     23  O         28.9340   48.1900    6.4370 O.2    48  ALA48      -0.2867
     24  CB        26.7050   46.1660    6.7170 C.3    48  ALA48       0.0290
     25  N         28.6410   50.4500    9.9170 N.3    50  LYS50      -0.1245
     26  CA        28.3900   50.6840   11.3330 C.3    50  LYS50       0.1561
     27  C         29.0350   52.0240   11.7020 C.2    50  LYS50       0.2260
     28  O         30.2590   52.1010   11.7420 O.2    50  LYS50      -0.2867
     29  CB        28.9230   49.5520   12.2330 C.3    50  LYS50       0.0271
     30  CG        28.5700   49.7750   13.7040 C.3    50  LYS50       0.0035
     31  CD        29.2330   48.8100   14.6620 C.3    50  LYS50       0.0206
     32  CE        28.5440   48.8170   16.0030 C.3    50  LYS50       0.1093
     33  NZ        29.2470   47.9770   17.0270 N.3    50  LYS50      -0.1314
     34  N         38.2900   45.3830   16.4230 N.3    61  GLU61      -0.1245
     35  CA        37.5680   44.8700   15.2580 C.3    61  GLU61       0.1567
     36  C         38.5270   44.8400   14.0570 C.2    61  GLU61       0.2260
     37  O         38.6690   43.7840   13.4500 O.2    61  GLU61      -0.2867
     38  CB        36.2980   45.7200   14.9640 C.3    61  GLU61       0.0388
     39  CG        35.4130   45.2280   13.8270 C.3    61  GLU61       0.1160
     40  CD        34.5270   44.0350   14.1360 C.2    61  GLU61       0.3649
     41  OE1       33.5820   43.7840   13.3600 O.co2  61  GLU61      -0.2457
     42  OE2       34.7250   43.4030   15.1930 O.co2  61  GLU61      -0.2457
     43  N         32.4420   37.1080    8.9660 N.3    74  VAL74      -0.1245
     44  CA        32.0570   38.2540    8.1240 C.3    74  VAL74       0.1561
     45  C         33.3020   38.9640    7.6820 C.2    74  VAL74       0.2260
     46  O         34.3030   38.9790    8.4090 O.2    74  VAL74      -0.2867
     47  CB        31.0200   39.2690    8.6880 C.3    74  VAL74       0.0252
     48  CG1       29.6610   38.6360    8.8930 C.3    74  VAL74       0.0019
     49  CG2       31.5150   39.9310    9.9620 C.3    74  VAL74       0.0019
     50  N         32.7250   51.5620   10.2650 N.3    88  LEU88      -0.1245
     51  CA        33.2340   50.2550    9.8540 C.3    88  LEU88       0.1561
     52  C         32.3620   49.7680    8.6980 C.2    88  LEU88       0.2260
     53  O         31.1360   49.7480    8.8170 O.2    88  LEU88      -0.2867
     54  CB        33.2390   49.2410   11.0230 C.3    88  LEU88       0.0270
     55  CG        34.2950   49.4640   12.1150 C.3    88  LEU88       0.0019
     56  CD1       33.9340   48.7330   13.3890 C.3    88  LEU88       0.0001
     57  CD2       35.6940   49.0690   11.6450 C.3    88  LEU88       0.0001
     58  N         31.3640   46.7080    6.0700 N.3    90  TYR90      -0.1227
     59  CA        31.4040   45.2570    5.9020 C.3    90  TYR90       0.1736
     60  C         30.7170   44.8300    4.6320 C.2    90  TYR90       0.2595
     61  O         29.9110   45.5760    4.0780 O.2    90  TYR90      -0.2718
     62  CB        30.6570   44.5400    7.0600 C.3    90  TYR90       0.0548
     63  CG        31.0900   44.9280    8.4510 C.ar   90  TYR90      -0.0200
     64  CD1       30.6050   46.0820    9.0540 C.ar   90  TYR90      -0.0009
     65  CD2       31.9610   44.1260    9.1780 C.ar   90  TYR90      -0.0009
     66  CE1       31.0120   46.4520   10.3270 C.ar   90  TYR90       0.0417
     67  CE2       32.3820   44.4910   10.4590 C.ar   90  TYR90       0.0417
     68  CZ        31.9130   45.6620   11.0220 C.ar   90  TYR90       0.1957
     69  OH        32.3080   46.0310   12.2820 O.3    90  TYR90      -0.2866
     70  N         30.9450   43.5580    4.2470 N.am   91  VAL91      -0.1966
     71  CA        30.2330   42.8970    3.1550 C.3    91  VAL91       0.1727
     72  C         28.7740   42.7250    3.6800 C.2    91  VAL91       0.2616
     73  O         28.5610   42.4100    4.8660 O.2    91  VAL91      -0.2715
     74  CB        30.9000   41.5310    2.8320 C.3    91  VAL91       0.0290
     75  CG1       30.0170   40.6770    1.9240 C.3    91  VAL91       0.0023
     76  CG2       32.2810   41.7240    2.2100 C.3    91  VAL91       0.0023
     77  N         27.7900   42.9870    2.8170 N.am   92  TYR92      -0.1960
     78  CA        26.3760   42.8690    3.1590 C.3    92  TYR92       0.1771
     79  C         25.9130   41.4110    3.2380 C.2    92  TYR92       0.2619
     80  O         26.2350   40.5990    2.3710 O.2    92  TYR92      -0.2715
     81  CB        25.5300   43.6860    2.1880 C.3    92  TYR92       0.0574
     82  CG        24.0440   43.6760    2.4700 C.ar   92  TYR92      -0.0198
     83  CD1       23.5080   44.3980    3.5350 C.ar   92  TYR92      -0.0009
     84  CD2       23.1580   43.0250    1.6140 C.ar   92  TYR92      -0.0009
     85  CE1       22.1320   44.4080    3.7860 C.ar   92  TYR92       0.0417
     86  CE2       21.7820   43.0350    1.8490 C.ar   92  TYR92       0.0417
     87  CZ        21.2710   43.7330    2.9320 C.ar   92  TYR92       0.1957
     88  OH        19.9060   43.7590    3.1360 O.3    92  TYR92      -0.2866
     89  N         25.1900   41.0920    4.3190 N.am   93  MET93      -0.1977
     90  CA        24.6230   39.7820    4.6200 C.3    93  MET93       0.1605
     91  C         23.1260   39.8860    4.3800 C.2    93  MET93       0.2287
     92  O         22.4200   40.4930    5.2000 O.2    93  MET93      -0.2864
     93  CB        24.9790   39.3380    6.0580 C.3    93  MET93       0.0413
     94  CG        26.4780   39.2940    6.3270 C.3    93  MET93       0.0598
     95  SD        27.4600   38.3650    5.1230 S.3    93  MET93      -0.1393
     96  CE        27.0250   36.9280    5.5350 C.3    93  MET93       0.0692
     97  N         20.3470   38.5750    7.1280 N.3    96  GLY96      -0.1210
     98  CA        20.4820   39.0670    8.4960 C.3    96  GLY96       0.1956
     99  C         21.1670   38.1500    9.4820 C.2    96  GLY96       0.2612
    100  O         22.1730   37.5330    9.1500 O.2    96  GLY96      -0.2717
    101  N         20.6230   38.0590   10.7170 N.am   97  SER97      -0.1952
    102  CA        21.1990   37.2180   11.7570 C.3    97  SER97       0.1924
    103  C         20.4180   35.9480   11.9590 C.2    97  SER97       0.2314
    104  O         19.2400   35.8860   11.5870 O.2    97  SER97      -0.2863
    105  CB        21.3610   37.9870   13.0670 C.3    97  SER97       0.2116
    106  OG        20.1190   38.1930   13.7140 O.3    97  SER97      -0.2180
    107  N         19.4830   34.8610   14.8100 N.3    99  LEU99      -0.1231
    108  CA        18.4900   35.2480   15.8180 C.3    99  LEU99       0.1693
    109  C         17.1890   35.6660   15.1370 C.2    99  LEU99       0.2592
    110  O         16.1250   35.1050   15.4410 O.2    99  LEU99      -0.2718
    111  CB        19.0260   36.3830   16.7170 C.3    99  LEU99       0.0284
    112  CG        18.0680   36.8990   17.8340 C.3    99  LEU99       0.0019
    113  CD1       18.0100   35.9420   19.0260 C.3    99  LEU99       0.0001
    114  CD2       18.4820   38.2610   18.3070 C.3    99  LEU99       0.0001
    115  N         17.2920   36.5850   14.1600 N.am  100  ASP100     -0.1974
    116  CA        16.1540   37.1110   13.4090 C.3   100  ASP100      0.1709
    117  C         15.4530   36.0750   12.5620 C.2   100  ASP100      0.2293
    118  O         14.2250   36.1020   12.4640 O.2   100  ASP100     -0.2864
    119  CB        16.5560   38.3230   12.5750 C.3   100  ASP100      0.1436
    120  CG        17.1360   39.4670   13.3790 C.2   100  ASP100      0.3671
    121  OD1       16.8470   39.5520   14.6040 O.co2 100  ASP100     -0.2456
    122  OD2       17.8360   40.2950   12.7860 O.co2 100  ASP100     -0.2456
    123  N         11.6240   37.2360   12.1290 N.3   105  LEU105     -0.1231
    124  CA        11.4610   38.6900   12.1810 C.3   105  LEU105      0.1693
    125  C         11.1440   39.2560   10.8100 C.2   105  LEU105      0.2592
    126  O         11.7830   38.8990    9.8170 O.2   105  LEU105     -0.2718
    127  CB        12.7270   39.3490   12.7780 C.3   105  LEU105      0.0284
    128  CG        12.7700   40.8920   12.8810 C.3   105  LEU105      0.0019
    129  CD1       11.8190   41.4270   13.9990 C.3   105  LEU105      0.0001
    130  CD2       14.1890   41.3700   13.0810 C.3   105  LEU105      0.0001
    131  N         10.1110   40.0840   10.7590 N.am  106  ASP106     -0.1974
    132  CA         9.6120   40.7790    9.5750 C.3   106  ASP106      0.1709
    133  C          8.9170   39.8580    8.5900 C.2   106  ASP106      0.2293
    134  O          8.7220   40.2400    7.4510 O.2   106  ASP106     -0.2864
    135  CB        10.6990   41.6460    8.9040 C.3   106  ASP106      0.1436
    136  CG        11.2750   42.7210    9.8200 C.2   106  ASP106      0.3671
    137  OD1       10.4960   43.3440   10.5780 O.co2 106  ASP106     -0.2456
    138  OD2       12.5040   42.9380    9.7790 O.co2 106  ASP106     -0.2456
    139  N         22.6970   36.3420   17.4990 N.3   143  ALA143     -0.1231
    140  CA        22.6910   37.7150   16.9670 C.3   143  ALA143      0.1694
    141  C         24.0140   38.0290   16.2390 C.2   143  ALA143      0.2592
    142  O         24.0530   38.9500   15.4170 O.2   143  ALA143     -0.2718
    143  CB        22.4890   38.7100   18.1030 C.3   143  ALA143      0.0304
    144  N         25.0940   37.2700   16.5640 N.am  144  ASN144     -0.1974
    145  CA        26.4330   37.4310   16.0070 C.3   144  ASN144      0.1688
    146  C         26.7830   36.3630   14.9650 C.2   144  ASN144      0.2292
    147  O         27.9350   36.2310   14.5620 O.2   144  ASN144     -0.2864
    148  CB        27.4630   37.5160   17.1290 C.3   144  ASN144      0.1181
    149  CG        27.4160   38.8390   17.8580 C.2   144  ASN144      0.2629
    150  OD1       26.8620   39.8380   17.3780 O.2   144  ASN144     -0.2716
    151  ND2       28.0240   38.8930   19.0160 N.am  144  ASN144     -0.0877
    152  N         25.7710   35.7870   11.2750 N.3   146  LEU146     -0.1245
    153  CA        25.0900   36.3830   10.1340 C.3   146  LEU146      0.1561
    154  C         24.9560   35.4020    9.0040 C.2   146  LEU146      0.2260
    155  O         25.6100   34.3520    9.0200 O.2   146  LEU146     -0.2867
    156  CB        25.7140   37.7160    9.7020 C.3   146  LEU146      0.0270
    157  CG        25.9500   38.7580   10.8140 C.3   146  LEU146      0.0019
    158  CD1       26.4520   40.0080   10.2360 C.3   146  LEU146      0.0001
    159  CD2       24.6810   39.0650   11.6340 C.3   146  LEU146      0.0001
    160  N         30.3120   37.2020   13.4540 N.3   156  SER156     -0.1202
    161  CA        30.5380   38.6510   13.4460 C.3   156  SER156      0.2020
    162  C         30.8630   39.1770   14.8570 C.2   156  SER156      0.2618
    163  O         30.7440   38.4330   15.8370 O.2   156  SER156     -0.2717
    164  CB        29.3250   39.3860   12.8700 C.3   156  SER156      0.2103
    165  OG        28.1380   39.1170   13.6020 O.3   156  SER156     -0.2182
    166  N         31.2150   40.4790   14.9390 N.am  157  ASP157     -0.1973
    167  CA        31.5150   41.2440   16.1480 C.3   157  ASP157      0.1709
    168  C         32.6920   40.6770   16.9380 C.2   157  ASP157      0.2293
    169  O         32.5180   39.8360   17.8250 O.2   157  ASP157     -0.2864
    170  CB        30.2680   41.4450   17.0440 C.3   157  ASP157      0.1436
    171  CG        30.3180   42.6630   17.9620 C.2   157  ASP157      0.3671
    172  OD1       31.4040   43.2720   18.0860 O.co2 157  ASP157     -0.2456
    173  OD2       29.2670   43.0070   18.5540 O.co2 157  ASP157     -0.2456
@<TRIPOS>BOND
     1    84    86   ar
     2    84    82   ar
     3    86    87   ar
     4    75    74    1
     5    81    82    1
     6    81    78    1
     7    76    74    1
     8    80    79    2
     9    82    83   ar
    10    77    78    1
    11    77    72   am
    12    74    71    1
    13    87    88    1
    14    87    85   ar
    15    71    72    1
    16    71    70    1
    17    78    79    1
    18    79    89   am
    19    83    85   ar
    20    72    73    2
    21    61    60    2
    22    70    60   am
    23    89    90    1
    24    91    90    1
    25    91    92    2
    26    20    21    1
    27    90    93    1
    28    60    59    1
    29    95    96    1
    30    95    94    1
    31    21    22    1
    32    21    24    1
    33    59    58    1
    34    59    62    1
    35    93    94    1
    36    23    22    2
    37     7     8    1
    38     7     6    1
    39    62    63    1
    40    97    98    1
    41   134   133    2
    42    45    44    1
    43    45    46    2
    44    44    47    1
    45    44    43    1
    46     6     5    1
    47    63    64   ar
    48    63    65   ar
    49    98    99    1
    50   133   132    1
    51    47    48    1
    52    47    49    1
    53    52    53    2
    54    52    51    1
    55   135   132    1
    56   135   136    1
    57   154   155    2
    58   154   153    1
    59    64    66   ar
    60     5     2    1
    61   100    99    2
    62    65    67   ar
    63    99   101   am
    64   132   131    1
    65     1     2    1
    66     2     3    1
    67   156   153    1
    68   156   157    1
    69   138   136   ar
    70   126   125    2
    71   136   137   ar
    72    51    50    1
    73    51    54    1
    74    25    26    1
    75   153   152    1
    76   158   157    1
    77    15    16    2
    78    15    14    1
    79    66    68   ar
    80    18    17    1
    81    67    68   ar
    82   101   102    1
    83   131   125   am
    84   125   124    1
    85   157   159    1
    86    68    69    1
    87    54    55    1
    88     3     4    2
    89     3     9   am
    90    26    27    1
    91    26    29    1
    92    14    17    1
    93    14    13    1
    94   104   103    2
    95    17    19    1
    96    57    55    1
    97    27    28    2
    98   102   103    1
    99   102   105    1
   100     9    10    1
   101    55    56    1
   102   123   124    1
   103   124   127    1
   104    29    30    1
   105   118   117    2
   106   117   116    1
   107   119   120    1
   108   119   116    1
   109   127   128    1
   110   122   120   ar
   111   164   161    1
   112   164   165    1
   113   128   130    1
   114   128   129    1
   115   105   106    1
   116    41    40   ar
   117   120   121   ar
   118   116   115    1
   119   161   160    1
   120   161   162    1
   121    37    36    2
   122    10    11    1
   123    30    31    1
   124    12    11    2
   125    39    40    1
   126    39    38    1
   127    36    35    1
   128    40    42   ar
   129   115   109   am
   130   147   146    2
   131    31    32    1
   132   107   108    1
   133   162   166   am
   134   162   163    2
   135   166   167    1
   136    38    35    1
   137   146   145    1
   138   109   110    2
   139   109   108    1
   140    35    34    1
   141   142   141    2
   142   108   111    1
   143    32    33    1
   144   145   144    1
   145   145   148    1
   146   167   168    1
   147   167   170    1
   148   141   144   am
   149   141   140    1
   150   111   112    1
   151   168   169    2
   152   140   139    1
   153   140   143    1
   154   170   171    1
   155   148   149    1
   156   150   149    2
   157   112   114    1
   158   112   113    1
   159   149   151   am
   160   171   172   ar
   161   171   173   ar
