@<TRIPOS>MOLECULE
tmp/6f3eA00.pdb
 169 159 0 0 0
SMALL
GASTEIGER

@<TRIPOS>ATOM
      1  N        -24.2930   -9.5910   10.5840 N.3    29  MET29      -0.1230
      2  CA       -24.7050  -10.9990   10.6090 C.3    29  MET29       0.1702
      3  C        -25.1080  -11.4280   12.0160 C.2    29  MET29       0.2593
      4  O        -26.1800  -12.0020   12.2120 O.2    29  MET29      -0.2718
      5  CB       -23.5670  -11.8940   10.1120 C.3    29  MET29       0.0401
      6  CG       -23.3210  -11.8020    8.6410 C.3    29  MET29       0.0596
      7  SD       -22.1360  -13.0730    8.1810 S.3    29  MET29      -0.1393
      8  CE       -20.6830  -12.1220    8.1080 C.3    29  MET29       0.0692
      9  N        -24.2230  -11.1360   12.9630 N.am   30  GLY30      -0.1942
     10  CA       -24.3430  -11.4320   14.3790 C.3    30  GLY30       0.2014
     11  C        -22.9900  -11.2600   15.0320 C.2    30  GLY30       0.2639
     12  O        -22.0400  -10.8080   14.3850 O.2    30  GLY30      -0.2714
     13  N        -22.8820  -11.6470   16.3090 N.am   31  GLU31      -0.1963
     14  CA       -21.6270  -11.5430   17.0580 C.3    31  GLU31       0.1733
     15  C        -20.7870  -12.8460   16.9930 C.2    31  GLU31       0.2616
     16  O        -21.2950  -13.8940   16.5790 O.2    31  GLU31      -0.2715
     17  CB       -21.8480  -11.0600   18.5180 C.3    31  GLU31       0.0429
     18  CG       -23.2930  -10.8370   18.9530 C.3    31  GLU31       0.1163
     19  CD       -23.9230   -9.5130   18.5630 C.2    31  GLU31       0.3649
     20  OE1      -24.6400   -9.4790   17.5360 O.co2  31  GLU31      -0.2457
     21  OE2      -23.7440   -8.5230   19.3100 O.co2  31  GLU31      -0.2457
     22  N        -19.5080  -12.7430   17.3760 N.am   32  GLY32      -0.1955
     23  CA       -18.5560  -13.8520   17.3920 C.3    32  GLY32       0.1869
     24  C        -17.6240  -13.8850   18.5940 C.2    32  GLY32       0.2309
     25  O        -16.3980  -13.8710   18.4370 O.2    32  GLY32      -0.2863
     26  N        -19.3390   -9.9300   13.4460 N.3    37  VAL37      -0.1245
     27  CA       -18.9210  -10.3780   12.1200 C.3    37  VAL37       0.1561
     28  C        -19.8170   -9.7100   11.0810 C.2    37  VAL37       0.2260
     29  O        -21.0440   -9.8590   11.1280 O.2    37  VAL37      -0.2867
     30  CB       -18.8600  -11.9270   11.9950 C.3    37  VAL37       0.0252
     31  CG1      -18.3230  -12.3510   10.6330 C.3    37  VAL37       0.0019
     32  CG2      -17.9960  -12.5210   13.0990 C.3    37  VAL37       0.0019
     33  N        -15.6530  -12.1630    5.4440 N.3    48  ALA48      -0.1245
     34  CA       -16.2160  -12.0060    6.7720 C.3    48  ALA48       0.1562
     35  C        -15.2430  -11.1100    7.5060 C.2    48  ALA48       0.2260
     36  O        -14.0830  -11.5010    7.6940 O.2    48  ALA48      -0.2867
     37  CB       -16.3230  -13.3530    7.4750 C.3    48  ALA48       0.0290
     38  N        -14.3280   -9.3330   10.8880 N.3    50  LYS50      -0.1245
     39  CA       -14.6000   -9.4450   12.3040 C.3    50  LYS50       0.1561
     40  C        -14.0760   -8.2240   13.0360 C.2    50  LYS50       0.2260
     41  O        -12.8690   -8.1400   13.2830 O.2    50  LYS50      -0.2867
     42  CB       -13.9950  -10.7440   12.8640 C.3    50  LYS50       0.0271
     43  CG       -14.5000  -11.1450   14.2430 C.3    50  LYS50       0.0035
     44  CD       -13.5770  -12.1920   14.8460 C.3    50  LYS50       0.0206
     45  CE       -14.0880  -12.7340   16.1530 C.3    50  LYS50       0.1093
     46  NZ       -15.1420  -13.7530   15.9380 N.3    50  LYS50      -0.1314
     47  N        -10.9350  -22.2580    9.0060 N.3    73  VAL73      -0.1245
     48  CA       -11.3390  -21.0800    8.2210 C.3    73  VAL73       0.1561
     49  C        -10.0830  -20.4320    7.6290 C.2    73  VAL73       0.2260
     50  O         -8.9810  -20.7080    8.0980 O.2    73  VAL73      -0.2867
     51  CB       -12.2030  -20.0640    9.0150 C.3    73  VAL73       0.0252
     52  CG1      -13.4860  -20.7050    9.5050 C.3    73  VAL73       0.0019
     53  CG2      -11.4390  -19.4510   10.1810 C.3    73  VAL73       0.0019
     54  N        -11.6610  -12.8080    6.6630 N.3    84  TYR84      -0.1227
     55  CA       -11.6920  -14.2340    6.3450 C.3    84  TYR84       0.1736
     56  C        -12.4660  -14.5490    5.0820 C.2    84  TYR84       0.2595
     57  O        -13.2560  -13.7200    4.6320 O.2    84  TYR84      -0.2718
     58  CB       -12.3950  -14.9990    7.4680 C.3    84  TYR84       0.0548
     59  CG       -11.7920  -14.8330    8.8350 C.ar   84  TYR84      -0.0200
     60  CD1      -12.1770  -13.7830    9.6630 C.ar   84  TYR84      -0.0009
     61  CD2      -10.9170  -15.7850    9.3510 C.ar   84  TYR84      -0.0009
     62  CE1      -11.6690  -13.6540   10.9510 C.ar   84  TYR84       0.0417
     63  CE2      -10.3980  -15.6640   10.6380 C.ar   84  TYR84       0.0417
     64  CZ       -10.7670  -14.5880   11.4280 C.ar   84  TYR84       0.1957
     65  OH       -10.2730  -14.4530   12.6930 O.3    84  TYR84      -0.2866
     66  N        -12.3130  -15.7880    4.5620 N.am   85  VAL85      -0.1966
     67  CA       -13.1400  -16.2280    3.4560 C.3    85  VAL85       0.1727
     68  C        -14.4990  -16.4940    4.0950 C.2    85  VAL85       0.2616
     69  O        -14.5850  -17.1960    5.1100 O.2    85  VAL85      -0.2715
     70  CB       -12.5850  -17.4550    2.6920 C.3    85  VAL85       0.0290
     71  CG1      -13.6220  -17.9980    1.7120 C.3    85  VAL85       0.0023
     72  CG2      -11.3030  -17.1020    1.9480 C.3    85  VAL85       0.0023
     73  N        -15.5330  -15.8600    3.5570 N.am   86  TYR86      -0.1960
     74  CA       -16.9020  -15.9620    4.0460 C.3    86  TYR86       0.1771
     75  C        -17.4800  -17.4070    4.0170 C.2    86  TYR86       0.2619
     76  O        -17.3850  -18.0940    3.0010 O.2    86  TYR86      -0.2715
     77  CB       -17.7690  -14.9970    3.2360 C.3    86  TYR86       0.0574
     78  CG       -19.2140  -14.9350    3.6660 C.ar   86  TYR86      -0.0198
     79  CD1      -19.5970  -14.2180    4.7940 C.ar   86  TYR86      -0.0009
     80  CD2      -20.2140  -15.5110    2.8920 C.ar   86  TYR86      -0.0009
     81  CE1      -20.9360  -14.1130    5.1640 C.ar   86  TYR86       0.0417
     82  CE2      -21.5570  -15.4170    3.2560 C.ar   86  TYR86       0.0417
     83  CZ       -21.9130  -14.7230    4.4000 C.ar   86  TYR86       0.1957
     84  OH       -23.2280  -14.6210    4.7780 O.3    86  TYR86      -0.2866
     85  N        -18.0380  -17.8620    5.1450 N.am   87  MET87      -0.1977
     86  CA       -18.6790  -19.1810    5.2860 C.3    87  MET87       0.1605
     87  C        -20.1730  -18.9900    5.0750 C.2    87  MET87       0.2287
     88  O        -20.8570  -18.4470    5.9590 O.2    87  MET87      -0.2864
     89  CB       -18.3540  -19.8460    6.6310 C.3    87  MET87       0.0413
     90  CG       -16.8710  -20.0730    6.8350 C.3    87  MET87       0.0598
     91  SD       -15.9880  -20.6640    5.3600 S.3    87  MET87      -0.1393
     92  CE       -16.1260  -22.2500    5.5960 C.3    87  MET87       0.0692
     93  N        -23.0080  -20.2530    7.6670 N.3    90  GLY90      -0.1210
     94  CA       -22.8310  -19.8160    9.0450 C.3    90  GLY90       0.1956
     95  C        -22.2320  -20.8630    9.9540 C.2    90  GLY90       0.2612
     96  O        -21.3740  -21.6360    9.5170 O.2    90  GLY90      -0.2717
     97  N        -22.6930  -20.9010   11.2270 N.am   91  SER91      -0.1952
     98  CA       -22.1860  -21.8440   12.2150 C.3    91  SER91       0.1924
     99  C        -23.0370  -23.1140   12.3160 C.2    91  SER91       0.2314
    100  O        -24.2020  -23.1270   11.9090 O.2    91  SER91      -0.2863
    101  CB       -22.0140  -21.1680   13.5730 C.3    91  SER91       0.2116
    102  OG       -23.2230  -20.6300   14.0750 O.3    91  SER91      -0.2180
    103  N        -24.0010  -24.3740   15.0920 N.3    93  LEU93      -0.1231
    104  CA       -24.9570  -24.0150   16.1220 C.3    93  LEU93       0.1693
    105  C        -26.2400  -23.4700   15.5040 C.2    93  LEU93       0.2592
    106  O        -27.3240  -23.9270   15.8530 O.2    93  LEU93      -0.2718
    107  CB       -24.3310  -22.9840   17.0680 C.3    93  LEU93       0.0284
    108  CG       -25.2400  -22.4610   18.1890 C.3    93  LEU93       0.0019
    109  CD1      -25.5820  -23.5620   19.1970 C.3    93  LEU93       0.0001
    110  CD2      -24.6330  -21.2830   18.8720 C.3    93  LEU93       0.0001
    111  N        -26.1060  -22.5220   14.5600 N.am   94  ASP94      -0.1974
    112  CA       -27.2250  -21.8990   13.8660 C.3    94  ASP94       0.1709
    113  C        -27.9890  -22.9260   13.0100 C.2    94  ASP94       0.2293
    114  O        -29.2220  -22.8990   12.9850 O.2    94  ASP94      -0.2864
    115  CB       -26.7250  -20.7440   12.9910 C.3    94  ASP94       0.1436
    116  CG       -26.1450  -19.5040   13.6760 C.2    94  ASP94       0.3671
    117  OD1      -26.3000  -19.3670   14.9180 O.co2  94  ASP94      -0.2456
    118  OD2      -25.5540  -18.6610   12.9680 O.co2  94  ASP94      -0.2456
    119  N        -31.8900  -21.7890   12.4240 N.3    99  LEU99      -0.1231
    120  CA       -31.9770  -20.3430   12.4910 C.3    99  LEU99       0.1693
    121  C        -32.2430  -19.7200   11.1090 C.2    99  LEU99       0.2592
    122  O        -31.6310  -20.1190   10.1110 O.2    99  LEU99      -0.2718
    123  CB       -30.6680  -19.8400   13.0520 C.3    99  LEU99       0.0284
    124  CG       -30.7710  -18.6600   13.9710 C.3    99  LEU99       0.0019
    125  CD1      -30.7360  -19.1130   15.3970 C.3    99  LEU99       0.0001
    126  CD2      -29.6370  -17.7030   13.7010 C.3    99  LEU99       0.0001
    127  N        -33.2200  -18.8050   11.0600 N.am  100  ASP100     -0.1974
    128  CA       -33.6590  -18.0810    9.8660 C.3   100  ASP100      0.1709
    129  C        -34.2530  -19.0010    8.7760 C.2   100  ASP100      0.2293
    130  O        -34.1180  -18.7230    7.5700 O.2   100  ASP100     -0.2864
    131  CB       -32.5520  -17.1630    9.3160 C.3   100  ASP100      0.1436
    132  CG       -32.0460  -16.1360   10.3160 C.2   100  ASP100      0.3671
    133  OD1      -32.8790  -15.3570   10.8530 O.co2 100  ASP100     -0.2456
    134  OD2      -30.8220  -16.1170   10.5760 O.co2 100  ASP100     -0.2456
    135  N        -20.6800  -23.0430   17.8720 N.3   137  ALA137     -0.1231
    136  CA       -20.7180  -21.6770   17.3340 C.3   137  ALA137      0.1694
    137  C        -19.4250  -21.3510   16.5490 C.2   137  ALA137      0.2592
    138  O        -19.4430  -20.4500   15.6940 O.2   137  ALA137     -0.2718
    139  CB       -20.9220  -20.6770   18.4600 C.3   137  ALA137      0.0304
    140  N        -18.3080  -22.0880   16.8440 N.am  138  ASN138     -0.1974
    141  CA       -16.9590  -21.9380   16.2600 C.3   138  ASN138      0.1688
    142  C        -16.6850  -22.9160   15.1300 C.2   138  ASN138      0.2292
    143  O        -15.5790  -22.9250   14.5750 O.2   138  ASN138     -0.2864
    144  CB       -15.8870  -22.0850   17.3510 C.3   138  ASN138      0.1181
    145  CG       -15.7230  -20.8680   18.2310 C.2   138  ASN138      0.2629
    146  OD1      -16.2960  -19.8020   18.0040 O.2   138  ASN138     -0.2716
    147  ND2      -14.9160  -20.9970   19.2500 N.am  138  ASN138     -0.0877
    148  N        -17.8130  -23.5510   11.5880 N.3   140  LEU140     -0.1245
    149  CA       -18.5270  -22.9230   10.4990 C.3   140  LEU140      0.1561
    150  C        -18.6830  -23.8630    9.3130 C.2   140  LEU140      0.2260
    151  O        -18.0010  -24.8880    9.2320 O.2   140  LEU140     -0.2867
    152  CB       -17.8710  -21.5960   10.1030 C.3   140  LEU140      0.0270
    153  CG       -17.4790  -20.6710   11.2460 C.3   140  LEU140      0.0019
    154  CD1      -16.6590  -19.6180   10.7510 C.3   140  LEU140      0.0001
    155  CD2      -18.6880  -20.0630   11.9340 C.3   140  LEU140      0.0001
    156  N        -12.8180  -22.3010   13.6630 N.3   150  SER150     -0.1202
    157  CA       -12.4950  -20.8770   13.7520 C.3   150  SER150      0.2020
    158  C        -12.2020  -20.4860   15.2060 C.2   150  SER150      0.2618
    159  O        -12.3650  -21.3140   16.1070 O.2   150  SER150     -0.2717
    160  CB       -13.6480  -20.0360   13.2080 C.3   150  SER150      0.2103
    161  OG       -14.8680  -20.2930   13.8890 O.3   150  SER150     -0.2182
    162  N        -11.8110  -19.2020   15.4210 N.am  151  ASP151     -0.1973
    163  CA       -11.5090  -18.5500   16.7000 C.3   151  ASP151      0.1709
    164  C        -10.3060  -19.1560   17.4150 C.2   151  ASP151      0.2293
    165  O        -10.4730  -19.9720   18.3230 O.2   151  ASP151     -0.2864
    166  CB       -12.7470  -18.4810   17.6220 C.3   151  ASP151      0.1436
    167  CG       -13.3670  -17.1000   17.7060 C.2   151  ASP151      0.3671
    168  OD1      -13.9000  -16.6280   16.6860 O.co2 151  ASP151     -0.2456
    169  OD2      -13.3310  -16.4980   18.7990 O.co2 151  ASP151     -0.2456
@<TRIPOS>BOND
     1    71    70    1
     2    72    70    1
     3    70    67    1
     4    80    82   ar
     5    80    78   ar
     6    76    75    2
     7    77    78    1
     8    77    74    1
     9    82    83   ar
    10    67    68    1
    11    67    66    1
    12    73    74    1
    13    73    68   am
    14    78    79   ar
    15    75    74    1
    16    75    85   am
    17    68    69    2
    18    83    84    1
    19    83    81   ar
    20    66    56   am
    21    57    56    2
    22    79    81   ar
    23    87    86    1
    24    87    88    2
    25    56    55    1
    26    85    86    1
    27    86    89    1
    28    91    92    1
    29    91    90    1
    30    33    34    1
    31    55    54    1
    32    55    58    1
    33    89    90    1
    34    34    37    1
    35    34    35    1
    36    58    59    1
    37    35    36    2
    38   130   129    2
    39    49    50    2
    40    49    48    1
    41    93    94    1
    42     8     7    1
    43     7     6    1
    44    48    47    1
    45    48    51    1
    46     6     5    1
    47   129   128    1
    48    59    61   ar
    49    59    60   ar
    50    51    52    1
    51    51    53    1
    52    94    95    1
    53   151   150    2
    54   150   149    1
    55   131   128    1
    56   131   132    1
    57    61    63   ar
    58    96    95    2
    59    60    62   ar
    60   128   127    1
    61    95    97   am
    62   152   149    1
    63   152   153    1
    64   122   121    2
    65     5     2    1
    66   132   134   ar
    67   132   133   ar
    68   149   148    1
    69     1     2    1
    70     2     3    1
    71    31    30    1
    72    63    64   ar
    73   154   153    1
    74    38    39    1
    75    62    64   ar
    76   127   121   am
    77    28    29    2
    78    28    27    1
    79   121   120    1
    80    97    98    1
    81   153   155    1
    82    64    65    1
    83   100    99    2
    84    30    27    1
    85    30    32    1
    86     3     4    2
    87     3     9   am
    88    27    26    1
    89    98    99    1
    90    98   101    1
    91    39    42    1
    92    39    40    1
    93   119   120    1
    94   120   123    1
    95    42    43    1
    96     9    10    1
    97   118   116   ar
    98   114   113    2
    99   115   116    1
   100   115   112    1
   101   113   112    1
   102    40    41    2
   103   123   124    1
   104   160   157    1
   105   160   161    1
   106   101   102    1
   107   156   157    1
   108   116   117   ar
   109   126   124    1
   110   157   158    1
   111   112   111    1
   112   124   125    1
   113    43    44    1
   114    10    11    1
   115    12    11    2
   116   111   105   am
   117   143   142    2
   118    44    45    1
   119    11    13   am
   120   103   104    1
   121   142   141    1
   122   158   162   am
   123   158   159    2
   124   162   163    1
   125   105   106    2
   126   105   104    1
   127   138   137    2
   128    46    45    1
   129   104   107    1
   130   141   140    1
   131   141   144    1
   132    13    14    1
   133   137   140   am
   134   137   136    1
   135    16    15    2
   136   168   167   ar
   137   163   164    1
   138   163   166    1
   139    15    14    1
   140    15    22   am
   141    14    17    1
   142   107   108    1
   143   136   135    1
   144   136   139    1
   145   144   145    1
   146    22    23    1
   147    23    24    1
   148   164   165    2
   149    20    19   ar
   150   166   167    1
   151   167   169   ar
   152   146   145    2
   153   108   110    1
   154   108   109    1
   155   145   147   am
   156    25    24    2
   157    17    18    1
   158    19    18    1
   159    19    21   ar
