@<TRIPOS>MOLECULE
tmp/6f3fA00.pdb
 162 150 0 0 0
SMALL
GASTEIGER

@<TRIPOS>ATOM
      1  N         20.1520   70.2860  103.9430 N.3   193  LEU193     -0.1231
      2  CA        19.8800   71.7050  104.1270 C.3   193  LEU193      0.1693
      3  C         20.6920   72.5870  103.1910 C.2   193  LEU193      0.2593
      4  O         20.3100   73.7390  102.9580 O.2   193  LEU193     -0.2718
      5  CB        20.1660   72.1070  105.5740 C.3   193  LEU193      0.0284
      6  CG        19.3140   71.4100  106.6360 C.3   193  LEU193      0.0019
      7  CD1       19.8840   71.6680  108.0200 C.3   193  LEU193      0.0001
      8  CD2       17.8670   71.8780  106.5480 C.3   193  LEU193      0.0001
      9  N         21.7970   72.0810  102.6590 N.am  194  GLY194     -0.1942
     10  CA        22.6220   72.8690  101.7700 C.3   194  GLY194      0.2014
     11  C         23.9360   72.1650  101.5050 C.2   194  GLY194      0.2639
     12  O         24.1230   70.9990  101.8610 O.2   194  GLY194     -0.2714
     13  N         24.8450   72.9040  100.8760 N.am  195  GLN195     -0.1963
     14  CA        26.1160   72.3420  100.4460 C.3   195  GLN195      0.1733
     15  C         27.1850   73.4200  100.5260 C.2   195  GLN195      0.2617
     16  O         26.9590   74.5610  100.1160 O.2   195  GLN195     -0.2715
     17  CB        26.0170   71.7890   99.0200 C.3   195  GLN195      0.0408
     18  CG        27.1080   70.8010   98.6520 C.3   195  GLN195      0.0908
     19  CD        26.7700   70.0110   97.4010 C.2   195  GLN195      0.2608
     20  OE1       25.6420   70.0590   96.9120 O.2   195  GLN195     -0.2717
     21  NE2       27.7460   69.2770   96.8790 N.am  195  GLN195     -0.0878
     22  N         28.3420   73.0480  101.0720 N.am  196  GLY196     -0.1940
     23  CA        29.4870   73.9220  101.1410 C.3   196  GLY196      0.2014
     24  C         30.6060   73.4660  100.2250 C.2   196  GLY196      0.2639
     25  O         30.4460   72.5780   99.3840 O.2   196  GLY196     -0.2714
     26  N         31.7660   74.0960  100.4050 N.am  197  CYS197     -0.1967
     27  CA        32.9240   73.7510   99.5890 C.3   197  CYS197      0.1712
     28  C         33.5700   72.4500  100.0470 C.2   197  CYS197      0.2296
     29  O         34.0680   71.6780   99.2200 O.2   197  CYS197     -0.2864
     30  CB        33.9500   74.8800   99.6250 C.3   197  CYS197      0.0983
     31  SG        35.5600   74.3840   98.9870 S.3   197  CYS197     -0.0798
     32  N         32.0400   70.0170  102.0620 N.3   199  GLY199     -0.1225
     33  CA        31.1040   68.9980  102.4860 C.3   199  GLY199      0.1811
     34  C         29.6730   69.4950  102.4060 C.2   199  GLY199      0.2280
     35  O         29.3920   70.5660  101.8690 O.2   199  GLY199     -0.2866
     36  N         25.6030   69.6660  104.4290 N.3   201  VAL201     -0.1245
     37  CA        24.9160   69.8860  105.6950 C.3   201  VAL201      0.1561
     38  C         23.5680   69.1820  105.6360 C.2   201  VAL201      0.2260
     39  O         22.9300   69.1340  104.5780 O.2   201  VAL201     -0.2867
     40  CB        24.7360   71.3900  105.9920 C.3   201  VAL201      0.0252
     41  CG1       23.9900   71.5920  107.3060 C.3   201  VAL201      0.0019
     42  CG2       26.0890   72.0790  106.0310 C.3   201  VAL201      0.0019
     43  N         21.5440   69.4950  113.3710 N.3   213  ALA213     -0.1245
     44  CA        22.1580   69.7470  112.0760 C.3   213  ALA213      0.1562
     45  C         23.4620   68.9660  111.9980 C.2   213  ALA213      0.2260
     46  O         24.3060   69.0720  112.8940 O.2   213  ALA213     -0.2867
     47  CB        22.4160   71.2420  111.8700 C.3   213  ALA213      0.0290
     48  N         26.8220   68.2770  109.8550 N.3   215  LYS215     -0.1245
     49  CA        27.7570   68.7060  108.8250 C.3   215  LYS215      0.1561
     50  C         28.6970   67.5510  108.5150 C.2   215  LYS215      0.2260
     51  O         29.2710   66.9510  109.4290 O.2   215  LYS215     -0.2867
     52  CB        28.5500   69.9310  109.2810 C.3   215  LYS215      0.0271
     53  CG        29.2780   70.6650  108.1680 C.3   215  LYS215      0.0035
     54  CD        30.3100   71.6270  108.7350 C.3   215  LYS215      0.0206
     55  CE        30.6820   72.7100  107.7340 C.3   215  LYS215      0.1093
     56  NZ        29.6710   73.8050  107.6970 N.3   215  LYS215     -0.1314
     57  N         26.0400   79.2030  117.5570 N.3   243  VAL243     -0.1245
     58  CA        25.5060   77.8750  117.2960 C.3   243  VAL243      0.1561
     59  C         26.3010   76.8680  118.1110 C.2   243  VAL243      0.2260
     60  O         27.5360   76.8210  118.0430 O.2   243  VAL243     -0.2867
     61  CB        25.5530   77.5690  115.7930 C.3   243  VAL243      0.0252
     62  CG1       25.0450   76.1620  115.5090 C.3   243  VAL243      0.0019
     63  CG2       24.7270   78.5950  115.0330 C.3   243  VAL243      0.0019
     64  N         25.3880   69.8560  115.2800 N.3   258  THR258     -0.1203
     65  CA        25.1880   71.1730  115.8690 C.3   258  THR258      0.1994
     66  C         23.7010   71.4650  116.0180 C.2   258  THR258      0.2618
     67  O         22.8490   70.8260  115.3950 O.2   258  THR258     -0.2717
     68  CB        25.8360   72.2820  115.0230 C.3   258  THR258      0.1784
     69  OG1       25.2010   72.3390  113.7400 O.3   258  THR258     -0.2211
     70  CG2       27.3270   72.0270  114.8410 C.3   258  THR258      0.0376
     71  N         23.4080   72.4460  116.8710 N.am  259  GLU259     -0.1965
     72  CA        22.0590   72.9820  116.9990 C.3   259  GLU259      0.1733
     73  C         21.5090   73.3490  115.6280 C.2   259  GLU259      0.2616
     74  O         22.2420   73.8270  114.7650 O.2   259  GLU259     -0.2715
     75  CB        22.0950   74.2070  117.9180 C.3   259  GLU259      0.0429
     76  CG        20.9860   75.2300  117.7230 C.3   259  GLU259      0.1163
     77  CD        21.2120   76.4730  118.5560 C.2   259  GLU259      0.3649
     78  OE1       22.3090   76.6030  119.1490 O.co2 259  GLU259     -0.2457
     79  OE2       20.2990   77.3270  118.6080 O.co2 259  GLU259     -0.2457
     80  N         20.2120   73.1320  115.4310 N.am  260  TYR260     -0.1960
     81  CA        19.5770   73.3430  114.1350 C.3   260  TYR260      0.1771
     82  C         18.9090   74.7130  114.0840 C.2   260  TYR260      0.2619
     83  O         18.0870   75.0420  114.9460 O.2   260  TYR260     -0.2715
     84  CB        18.5500   72.2460  113.8500 C.3   260  TYR260      0.0574
     85  CG        17.7090   72.5090  112.6230 C.ar  260  TYR260     -0.0198
     86  CD1       18.2440   72.3740  111.3500 C.ar  260  TYR260     -0.0009
     87  CD2       16.3800   72.8920  112.7380 C.ar  260  TYR260     -0.0009
     88  CE1       17.4790   72.6170  110.2250 C.ar  260  TYR260      0.0417
     89  CE2       15.6080   73.1350  111.6190 C.ar  260  TYR260      0.0417
     90  CZ        16.1640   72.9950  110.3660 C.ar  260  TYR260      0.1957
     91  OH        15.4030   73.2360  109.2460 O.3   260  TYR260     -0.2866
     92  N         19.2610   75.5000  113.0660 N.am  261  MET261     -0.1977
     93  CA        18.6910   76.8260  112.8360 C.3   261  MET261      0.1605
     94  C         17.7520   76.7290  111.6380 C.2   261  MET261      0.2287
     95  O         18.2010   76.5260  110.5060 O.2   261  MET261     -0.2864
     96  CB        19.7930   77.8540  112.5900 C.3   261  MET261      0.0413
     97  CG        20.8490   77.9040  113.6880 C.3   261  MET261      0.0598
     98  SD        20.1810   78.3520  115.3000 S.3   261  MET261     -0.1393
     99  CE        19.5830   80.0070  114.9770 C.3   261  MET261      0.0692
    100  N         17.7240   79.0600  108.1340 N.3   264  GLY264     -0.1210
    101  CA        18.8170   79.0240  107.1840 C.3   264  GLY264      0.1956
    102  C         19.8690   80.0830  107.4620 C.2   264  GLY264      0.2612
    103  O         19.9240   80.6910  108.5340 O.2   264  GLY264     -0.2717
    104  N         20.7170   80.3060  106.4620 N.am  265  SER265     -0.1952
    105  CA        21.8220   81.2390  106.6110 C.3   265  SER265      0.1924
    106  C         21.3450   82.6720  106.4310 C.2   265  SER265      0.2314
    107  O         20.3620   82.9450  105.7360 O.2   265  SER265     -0.2863
    108  CB        22.9320   80.9390  105.6030 C.3   265  SER265      0.2116
    109  OG        22.5630   81.3480  104.2990 O.3   265  SER265     -0.2180
    110  N         21.3460   83.9070  102.5340 N.3   268  ASP268     -0.1239
    111  CA        20.1430   83.5280  101.8020 C.3   268  ASP268      0.1674
    112  C         18.9050   84.1910  102.3900 C.2   268  ASP268      0.2266
    113  O         17.9830   84.5540  101.6500 O.2   268  ASP268     -0.2867
    114  CB        19.9810   82.0070  101.8090 C.3   268  ASP268      0.1410
    115  CG        21.1050   81.2960  101.0770 C.2   268  ASP268      0.3668
    116  OD1       21.5920   81.8350  100.0590 O.co2 268  ASP268     -0.2456
    117  OD2       21.5010   80.1960  101.5200 O.co2 268  ASP268     -0.2456
    118  N         31.3100   85.7420  108.1950 N.3   308  ARG308     -0.1245
    119  CA        30.6380   86.2970  107.0280 C.3   308  ARG308      0.1563
    120  C         29.1750   85.8850  107.0870 C.2   308  ARG308      0.2260
    121  O         28.8100   84.9410  107.7940 O.2   308  ARG308     -0.2867
    122  CB        31.2880   85.8250  105.7240 C.3   308  ARG308      0.0307
    123  CG        31.3320   84.3180  105.5630 C.3   308  ARG308      0.0489
    124  CD        32.1830   83.9070  104.3720 C.3   308  ARG308      0.2205
    125  NE        32.5840   82.5040  104.4610 N.pl3 308  ARG308     -0.0865
    126  CZ        31.9710   81.4900  103.8550 C.cat 308  ARG308      0.5346
    127  NH1       30.9110   81.6950  103.0870 N.pl3 308  ARG308      0.1354
    128  NH2       32.4280   80.2570  104.0160 N.pl3 308  ARG308      0.1354
    129  N         27.2960   84.2260  105.3290 N.3   310  ALA310     -0.1231
    130  CA        27.0130   82.8220  105.0610 C.3   310  ALA310      0.1694
    131  C         27.2300   81.9420  106.2860 C.2   310  ALA310      0.2592
    132  O         26.6760   80.8400  106.3460 O.2   310  ALA310     -0.2718
    133  CB        27.8820   82.3260  103.9080 C.3   310  ALA310      0.0304
    134  N         28.0240   82.3950  107.2550 N.am  311  ASN311     -0.1974
    135  CA        28.2530   81.6510  108.4840 C.3   311  ASN311      0.1688
    136  C         27.4430   82.1950  109.6530 C.2   311  ASN311      0.2292
    137  O         27.7250   81.8510  110.8050 O.2   311  ASN311     -0.2864
    138  CB        29.7430   81.6480  108.8270 C.3   311  ASN311      0.1181
    139  CG        30.5420   80.7280  107.9250 C.2   311  ASN311      0.2629
    140  OD1       30.0410   79.6970  107.4740 O.2   311  ASN311     -0.2716
    141  ND2       31.7880   81.0940  107.6560 N.am  311  ASN311     -0.0877
    142  N         23.5540   82.1400  111.0740 N.3   313  LEU313     -0.1245
    143  CA        22.3650   81.3230  110.8880 C.3   313  LEU313      0.1561
    144  C         21.1900   81.9420  111.6280 C.2   313  LEU313      0.2260
    145  O         21.3340   82.4230  112.7570 O.2   313  LEU313     -0.2867
    146  CB        22.6120   79.8910  111.3640 C.3   313  LEU313      0.0270
    147  CG        23.7170   79.1510  110.6000 C.3   313  LEU313      0.0019
    148  CD1       23.9810   77.8020  111.2190 C.3   313  LEU313      0.0001
    149  CD2       23.3600   78.9810  109.1350 C.3   313  LEU313      0.0001
    150  N         28.1490   80.6920  113.4020 N.3   323  ALA323     -0.1231
    151  CA        28.3810   79.2750  113.1680 C.3   323  ALA323      0.1694
    152  C         29.7510   79.0720  112.5350 C.2   323  ALA323      0.2592
    153  O         30.3920   80.0140  112.0620 O.2   323  ALA323     -0.2718
    154  CB        27.2940   78.6770  112.2680 C.3   323  ALA323      0.0304
    155  N         30.1970   77.8150  112.5390 N.am  324  ASP324     -0.1974
    156  CA        31.4040   77.4000  111.8230 C.3   324  ASP324      0.1709
    157  C         32.6360   78.1750  112.2860 C.2   324  ASP324      0.2293
    158  O         33.5360   78.4760  111.4990 O.2   324  ASP324     -0.2864
    159  CB        31.2150   77.5410  110.3110 C.3   324  ASP324      0.1436
    160  CG        30.2160   76.5420  109.7540 C.2   324  ASP324      0.3671
    161  OD1       30.1710   75.4010  110.2610 O.co2 324  ASP324     -0.2456
    162  OD2       29.4760   76.9000  108.8120 O.co2 324  ASP324     -0.2456
@<TRIPOS>BOND
     1    21    19   am
     2    20    19    2
     3    19    18    1
     4    18    17    1
     5    31    30    1
     6    17    14    1
     7    29    28    2
     8    25    24    2
     9    27    30    1
    10    27    28    1
    11    27    26    1
    12   116   115   ar
    13    16    15    2
    14    24    26   am
    15    24    23    1
    16    14    15    1
    17    14    13    1
    18    15    22   am
    19    13    11   am
    20    22    23    1
    21   115   117   ar
    22   115   114    1
    23    11    10    1
    24    11    12    2
    25   113   112    2
    26    10     9    1
    27   111   114    1
    28   111   112    1
    29   111   110    1
    30    35    34    2
    31    32    33    1
    32    34    33    1
    33     9     3   am
    34     4     3    2
    35   127   126    1
    36     3     2    1
    37   126   128    1
    38   126   125    2
    39   133   130    1
    40     1     2    1
    41     2     5    1
    42   109   108    1
    43   124   125    1
    44   124   123    1
    45    36    37    1
    46    39    38    2
    47   130   129    1
    48   130   131    1
    49   123   122    1
    50     5     6    1
    51   108   105    1
    52    38    37    1
    53    37    40    1
    54   122   119    1
    55   107   106    2
    56    40    42    1
    57    40    41    1
    58   131   132    2
    59   131   134   am
    60   106   105    1
    61   104   105    1
    62   104   102   am
    63     8     6    1
    64     6     7    1
    65   119   120    1
    66   119   118    1
    67   120   121    2
    68   101   102    1
    69   101   100    1
    70   134   135    1
    71   102   103    2
    72   140   139    2
    73   141   139   am
    74    56    55    1
    75    55    54    1
    76   139   138    1
    77    53    54    1
    78    53    52    1
    79   135   138    1
    80   135   136    1
    81    50    49    1
    82    50    51    2
    83   162   160   ar
    84    49    52    1
    85    49    48    1
    86   149   147    1
    87    91    90    1
    88   136   137    2
    89   160   161   ar
    90   160   159    1
    91    88    90   ar
    92    88    86   ar
    93   159   156    1
    94    90    89   ar
    95    95    94    2
    96   147   148    1
    97   147   146    1
    98   143   142    1
    99   143   146    1
   100   143   144    1
   101    86    85   ar
   102   158   157    2
   103    89    87   ar
   104   144   145    2
   105    94    93    1
   106   156   157    1
   107   156   155    1
   108    47    44    1
   109    45    44    1
   110    45    46    2
   111   153   152    2
   112    44    43    1
   113   154   151    1
   114   152   155   am
   115   152   151    1
   116    96    93    1
   117    96    97    1
   118    85    87   ar
   119    85    84    1
   120    93    92    1
   121    92    82   am
   122   151   150    1
   123    97    98    1
   124    69    68    1
   125    84    81    1
   126    82    81    1
   127    82    83    2
   128    81    80    1
   129    74    73    2
   130    70    68    1
   131    99    98    1
   132    68    65    1
   133    63    61    1
   134    64    65    1
   135    67    66    2
   136    80    73   am
   137    62    61    1
   138    73    72    1
   139    61    58    1
   140    65    66    1
   141    66    71   am
   142    71    72    1
   143    72    75    1
   144    58    57    1
   145    58    59    1
   146    76    75    1
   147    76    77    1
   148    60    59    2
   149    77    79   ar
   150    77    78   ar
