@<TRIPOS>MOLECULE
tmp/6f3gA00.pdb
 166 155 0 0 0
SMALL
GASTEIGER

@<TRIPOS>ATOM
      1  N        -19.9390   -9.6220  -10.9700 N.3    27  MET27      -0.1230
      2  CA       -19.7200  -11.0660  -10.9010 C.3    27  MET27       0.1702
      3  C        -19.7110  -11.6610  -12.2960 C.2    27  MET27       0.2593
      4  O        -19.0350  -12.6580  -12.5220 O.2    27  MET27      -0.2718
      5  CB       -20.8030  -11.7520  -10.0700 C.3    27  MET27       0.0401
      6  CG       -20.6930  -11.4820   -8.6050 C.3    27  MET27       0.0596
      7  SD       -21.7380  -12.5960   -7.6400 S.3    27  MET27      -0.1393
      8  CE       -23.3700  -12.0700   -8.1150 C.3    27  MET27       0.0692
      9  N        -20.4400  -11.0310  -13.2130 N.am   28  GLY28      -0.1942
     10  CA       -20.5460  -11.4840  -14.5900 C.3    28  GLY28       0.2014
     11  C        -21.1900  -10.4860  -15.5230 C.2    28  GLY28       0.2638
     12  O        -21.8340   -9.5300  -15.0820 O.2    28  GLY28      -0.2714
     13  N        -21.0180  -10.7290  -16.8320 N.am   29  GLU29      -0.1977
     14  CA       -21.5410   -9.8860  -17.9080 C.3    29  GLU29       0.1602
     15  C        -21.7580  -10.6970  -19.2020 C.2    29  GLU29       0.2287
     16  O        -21.2960  -11.8290  -19.3320 O.2    29  GLU29      -0.2864
     17  CB       -20.6250   -8.6480  -18.1140 C.3    29  GLU29       0.0415
     18  CG       -20.6880   -7.9830  -19.4820 C.3    29  GLU29       0.1163
     19  CD       -21.5050   -6.7270  -19.7230 C.2    29  GLU29       0.3649
     20  OE1      -22.6820   -6.8610  -20.1250 O.co2  29  GLU29      -0.2457
     21  OE2      -20.9430   -5.6130  -19.6090 O.co2  29  GLU29      -0.2457
     22  N        -24.3820   -8.9030  -13.8930 N.3    32  VAL32      -0.1245
     23  CA       -24.7710   -9.4780  -12.6100 C.3    32  VAL32       0.1561
     24  C        -23.8410   -8.9110  -11.5450 C.2    32  VAL32       0.2260
     25  O        -22.6170   -8.9320  -11.6960 O.2    32  VAL32      -0.2867
     26  CB       -24.8290  -11.0340  -12.6050 C.3    32  VAL32       0.0252
     27  CG1      -25.3410  -11.5660  -11.2630 C.3    32  VAL32       0.0019
     28  CG2      -25.7120  -11.5470  -13.7340 C.3    32  VAL32       0.0019
     29  N        -27.6830  -12.0170   -5.7220 N.3    43  ALA43      -0.1245
     30  CA       -27.1800  -11.7700   -7.0680 C.3    43  ALA43       0.1562
     31  C        -28.2080  -10.8630   -7.7150 C.2    43  ALA43       0.2260
     32  O        -29.4010  -11.1840   -7.7200 O.2    43  ALA43      -0.2867
     33  CB       -27.0600  -13.0700   -7.8510 C.3    43  ALA43       0.0290
     34  N        -29.2270   -9.0980  -11.1940 N.3    45  LYS45      -0.1245
     35  CA       -29.0220   -9.0180  -12.6410 C.3    45  LYS45       0.1561
     36  C        -29.6920   -7.7420  -13.1340 C.2    45  LYS45       0.2260
     37  O        -30.9070   -7.6000  -12.9860 O.2    45  LYS45      -0.2867
     38  CB       -29.5780  -10.2550  -13.3780 C.3    45  LYS45       0.0271
     39  CG       -29.4040  -10.2160  -14.9070 C.3    45  LYS45       0.0035
     40  CD       -30.3790  -11.1600  -15.6890 C.3    45  LYS45       0.0206
     41  CE       -30.2910  -12.6420  -15.4270 C.3    45  LYS45       0.1093
     42  NZ       -31.5610  -13.3300  -15.8230 N.3    45  LYS45      -0.1314
     43  N        -39.6150  -14.5770  -17.4940 N.3    60  GLU60      -0.1245
     44  CA       -38.7400  -15.1490  -16.4760 C.3    60  GLU60       0.1567
     45  C        -39.4230  -15.1480  -15.1190 C.2    60  GLU60       0.2260
     46  O        -39.4340  -16.1940  -14.4830 O.2    60  GLU60      -0.2867
     47  CB       -37.3940  -14.4090  -16.4190 C.3    60  GLU60       0.0388
     48  CG       -36.4020  -15.0160  -15.4430 C.3    60  GLU60       0.1160
     49  CD       -34.9380  -14.7160  -15.6910 C.2    60  GLU60       0.3649
     50  OE1      -34.1120  -15.0400  -14.8080 O.co2  60  GLU60      -0.2457
     51  OE2      -34.6060  -14.1800  -16.7720 O.co2  60  GLU60      -0.2457
     52  N        -32.6670  -22.3890   -9.4510 N.3    73  VAL73      -0.1245
     53  CA       -32.2940  -21.1350   -8.7870 C.3    73  VAL73       0.1561
     54  C        -33.5600  -20.4560   -8.2820 C.2    73  VAL73       0.2260
     55  O        -34.5820  -20.4880   -8.9830 O.2    73  VAL73      -0.2867
     56  CB       -31.4410  -20.1590   -9.6430 C.3    73  VAL73       0.0252
     57  CG1      -30.0110  -20.6600   -9.8280 C.3    73  VAL73       0.0019
     58  CG2      -32.0900  -19.8500  -10.9850 C.3    73  VAL73       0.0019
     59  N        -31.7460  -12.6850   -7.1050 N.3    87  TYR87      -0.1227
     60  CA       -31.7490  -14.1240   -6.8470 C.3    87  TYR87       0.1736
     61  C        -30.9750  -14.4650   -5.6040 C.2    87  TYR87       0.2595
     62  O        -30.1190  -13.6820   -5.1560 O.2    87  TYR87      -0.2718
     63  CB       -31.0630  -14.8810   -7.9870 C.3    87  TYR87       0.0548
     64  CG       -31.5020  -14.4940   -9.3710 C.ar   87  TYR87      -0.0200
     65  CD1      -30.9310  -13.4030  -10.0230 C.ar   87  TYR87      -0.0009
     66  CD2      -32.4360  -15.2590  -10.0640 C.ar   87  TYR87      -0.0009
     67  CE1      -31.3130  -13.0510  -11.3070 C.ar   87  TYR87       0.0417
     68  CE2      -32.8250  -14.9190  -11.3540 C.ar   87  TYR87       0.0417
     69  CZ       -32.2610  -13.8100  -11.9650 C.ar   87  TYR87       0.1957
     70  OH       -32.6120  -13.4530  -13.2330 O.3    87  TYR87      -0.2866
     71  N        -31.2090  -15.6990   -5.1080 N.am   88  VAL88      -0.1966
     72  CA       -30.4410  -16.2910   -4.0200 C.3    88  VAL88       0.1727
     73  C        -29.0130  -16.4270   -4.5970 C.2    88  VAL88       0.2616
     74  O        -28.8330  -16.8900   -5.7300 O.2    88  VAL88      -0.2715
     75  CB       -31.0230  -17.6660   -3.5800 C.3    88  VAL88       0.0290
     76  CG1      -30.0540  -18.4200   -2.6730 C.3    88  VAL88       0.0023
     77  CG2      -32.3780  -17.5110   -2.9060 C.3    88  VAL88       0.0023
     78  N        -28.0210  -15.9530   -3.8490 N.am   89  TYR89      -0.1960
     79  CA       -26.6280  -15.9990   -4.2630 C.3    89  TYR89       0.1771
     80  C        -26.1070  -17.4370   -4.1730 C.2    89  TYR89       0.2619
     81  O        -26.3170  -18.1070   -3.1600 O.2    89  TYR89      -0.2715
     82  CB       -25.8160  -15.0420   -3.3880 C.3    89  TYR89       0.0574
     83  CG       -24.3230  -15.1110   -3.5760 C.ar   89  TYR89      -0.0198
     84  CD1      -23.7180  -14.5670   -4.6990 C.ar   89  TYR89      -0.0009
     85  CD2      -23.5030  -15.6670   -2.5970 C.ar   89  TYR89      -0.0009
     86  CE1      -22.3370  -14.6160   -4.8680 C.ar   89  TYR89       0.0417
     87  CE2      -22.1170  -15.6860   -2.7380 C.ar   89  TYR89       0.0417
     88  CZ       -21.5400  -15.1770   -3.8850 C.ar   89  TYR89       0.1957
     89  OH       -20.1740  -15.1970   -4.0290 O.3    89  TYR89      -0.2866
     90  N        -25.4710  -17.9130   -5.2530 N.am   90  MET90      -0.1977
     91  CA       -24.8870  -19.2500   -5.3480 C.3    90  MET90       0.1605
     92  C        -23.3800  -19.0680   -5.1400 C.2    90  MET90       0.2287
     93  O        -22.7050  -18.5700   -6.0530 O.2    90  MET90      -0.2864
     94  CB       -25.2430  -19.9560   -6.6860 C.3    90  MET90       0.0413
     95  CG       -26.7390  -20.1700   -6.9000 C.3    90  MET90       0.0598
     96  SD       -27.5600  -21.0160   -5.5320 S.3    90  MET90      -0.1393
     97  CE       -29.2520  -20.5820   -5.8200 C.3    90  MET90       0.0692
     98  N        -20.6180  -20.4320   -7.7760 N.3    93  GLY93      -0.1210
     99  CA       -20.7790  -20.0500   -9.1830 C.3    93  GLY93       0.1956
    100  C        -21.3330  -21.1130  -10.1070 C.2    93  GLY93       0.2612
    101  O        -22.1430  -21.9270   -9.6750 O.2    93  GLY93      -0.2717
    102  N        -20.8840  -21.1370  -11.3760 N.am   94  SER94      -0.1952
    103  CA       -21.3700  -22.0890  -12.3570 C.3    94  SER94       0.1924
    104  C        -20.5510  -23.3530  -12.4500 C.2    94  SER94       0.2314
    105  O        -19.3500  -23.3520  -12.1590 O.2    94  SER94      -0.2863
    106  CB       -21.4770  -21.4360  -13.7320 C.3    94  SER94       0.2116
    107  OG       -20.1900  -21.2030  -14.2710 O.3    94  SER94      -0.2180
    108  N        -19.6580  -24.5750  -15.2680 N.3    96  LEU96      -0.1231
    109  CA       -18.6760  -24.2300  -16.3140 C.3    96  LEU96       0.1693
    110  C        -17.3830  -23.7510  -15.6640 C.2    96  LEU96       0.2592
    111  O        -16.3030  -24.2450  -15.9820 O.2    96  LEU96      -0.2718
    112  CB       -19.2340  -23.0930  -17.2220 C.3    96  LEU96       0.0284
    113  CG       -18.3090  -22.5630  -18.3390 C.3    96  LEU96       0.0019
    114  CD1      -18.2730  -23.5040  -19.5220 C.3    96  LEU96       0.0001
    115  CD2      -18.7560  -21.2290  -18.8310 C.3    96  LEU96       0.0001
    116  N        -17.5050  -22.7970  -14.7290 N.am   97  ASP97      -0.1974
    117  CA       -16.3520  -22.2030  -14.0610 C.3    97  ASP97       0.1709
    118  C        -15.6790  -23.1450  -13.0890 C.2    97  ASP97       0.2293
    119  O        -14.4540  -23.1250  -13.0080 O.2    97  ASP97      -0.2864
    120  CB       -16.7130  -20.8670  -13.4300 C.3    97  ASP97       0.1436
    121  CG       -17.1440  -19.8070  -14.4390 C.2    97  ASP97       0.3671
    122  OD1      -16.7640  -19.9210  -15.6420 O.co2  97  ASP97      -0.2456
    123  OD2      -17.7790  -18.8300  -14.0200 O.co2  97  ASP97      -0.2456
    124  N        -11.7460  -21.9250  -12.6460 N.3   102  LEU102     -0.1231
    125  CA       -11.6200  -20.4760  -12.7170 C.3   102  LEU102      0.1693
    126  C        -11.3170  -19.8720  -11.3470 C.2   102  LEU102      0.2592
    127  O        -11.8840  -20.2860  -10.3320 O.2   102  LEU102     -0.2718
    128  CB       -12.9140  -19.8710  -13.2950 C.3   102  LEU102      0.0284
    129  CG       -12.9620  -18.3250  -13.5040 C.3   102  LEU102      0.0019
    130  CD1      -11.9900  -17.8680  -14.5820 C.3   102  LEU102      0.0001
    131  CD2      -14.3350  -17.8800  -13.8980 C.3   102  LEU102      0.0001
    132  N        -10.3950  -18.9140  -11.3230 N.am  103  ASP103     -0.1974
    133  CA        -9.9670  -18.1910  -10.1250 C.3   103  ASP103      0.1709
    134  C         -9.2750  -19.0800   -9.0760 C.2   103  ASP103      0.2293
    135  O         -9.1120  -18.6610   -7.9340 O.2   103  ASP103     -0.2864
    136  CB       -11.1120  -17.3590   -9.5140 C.3   103  ASP103      0.1436
    137  CG       -11.6440  -16.3010  -10.4570 C.2   103  ASP103      0.3671
    138  OD1      -10.8290  -15.6460  -11.1380 O.co2 103  ASP103     -0.2456
    139  OD2      -12.8750  -16.1450  -10.5340 O.co2 103  ASP103     -0.2456
    140  N        -22.8620  -23.3160  -18.0070 N.3   140  ALA140     -0.1245
    141  CA       -22.8940  -21.9340  -17.5020 C.3   140  ALA140      0.1562
    142  C        -24.2320  -21.6460  -16.7930 C.2   140  ALA140      0.2260
    143  O        -24.3020  -20.7340  -15.9550 O.2   140  ALA140     -0.2867
    144  CB       -22.6910  -20.9430  -18.6450 C.3   140  ALA140      0.0290
    145  N        -25.8440  -23.6240  -11.7130 N.3   143  LEU143     -0.1245
    146  CA       -25.1670  -22.9460  -10.6090 C.3   143  LEU143      0.1561
    147  C        -24.9940  -23.8600   -9.4210 C.2   143  LEU143      0.2260
    148  O        -25.6300  -24.9120   -9.3660 O.2   143  LEU143     -0.2867
    149  CB       -25.8470  -21.6150  -10.2320 C.3   143  LEU143      0.0270
    150  CG       -26.0600  -20.6130  -11.3800 C.3   143  LEU143      0.0019
    151  CD1      -26.7760  -19.4300  -10.8880 C.3   143  LEU143      0.0001
    152  CD2      -24.7580  -20.1940  -12.0330 C.3   143  LEU143      0.0001
    153  N        -30.3890  -22.5760  -13.8520 N.3   153  SER153     -0.1202
    154  CA       -30.4780  -21.1250  -13.9530 C.3   153  SER153      0.2020
    155  C        -30.9060  -20.6540  -15.3440 C.2   153  SER153      0.2618
    156  O        -30.9230  -21.4470  -16.2840 O.2   153  SER153     -0.2717
    157  CB       -29.1160  -20.5300  -13.5790 C.3   153  SER153      0.2103
    158  OG       -28.4080  -19.8270  -14.5890 O.3   153  SER153     -0.2182
    159  N        -31.1700  -19.3350  -15.4640 N.am  154  ASP154     -0.1973
    160  CA       -31.5120  -18.5960  -16.6830 C.3   154  ASP154      0.1709
    161  C        -32.7470  -19.1450  -17.3900 C.2   154  ASP154      0.2293
    162  O        -32.6610  -19.8840  -18.3810 O.2   154  ASP154     -0.2864
    163  CB       -30.2970  -18.4880  -17.6300 C.3   154  ASP154      0.1436
    164  CG       -30.4670  -17.5270  -18.7980 C.2   154  ASP154      0.3671
    165  OD1      -31.4030  -16.6980  -18.7550 O.co2 154  ASP154     -0.2456
    166  OD2      -29.6510  -17.5970  -19.7530 O.co2 154  ASP154     -0.2456
@<TRIPOS>BOND
     1    20    19   ar
     2   166   164   ar
     3    19    21   ar
     4    19    18    1
     5   114   113    1
     6    18    17    1
     7    16    15    2
     8    15    14    1
     9   115   113    1
    10   164   165   ar
    11   164   163    1
    12   144   141    1
    13   162   161    2
    14   113   112    1
    15    17    14    1
    16   140   141    1
    17    14    13    1
    18   163   160    1
    19   141   142    1
    20    43    44    1
    21   161   160    1
    22   112   109    1
    23    13    11   am
    24   142   143    2
    25    51    49   ar
    26   160   159    1
    27    44    47    1
    28    44    45    1
    29    47    48    1
    30   109   110    1
    31   109   108    1
    32   156   155    2
    33   111   110    2
    34    42    41    1
    35    49    48    1
    36    49    50   ar
    37    40    41    1
    38    40    39    1
    39   110   116   am
    40   122   121   ar
    41    11    12    2
    42    11    10    1
    43   159   155   am
    44   155   154    1
    45    45    46    2
    46    39    38    1
    47   116   117    1
    48    10     9    1
    49   158   157    1
    50   130   129    1
    51   121   123   ar
    52   121   120    1
    53   107   106    1
    54   117   120    1
    55   117   118    1
    56   154   153    1
    57   154   157    1
    58   131   129    1
    59    22    23    1
    60    28    26    1
    61   106   103    1
    62   129   128    1
    63    38    35    1
    64   128   125    1
    65    70    69    1
    66     9     3   am
    67    36    37    2
    68    36    35    1
    69   118   119    2
    70   125   124    1
    71   125   126    1
    72    35    34    1
    73    23    26    1
    74    23    24    1
    75    26    27    1
    76     4     3    2
    77   104   103    1
    78   104   105    2
    79   103   102    1
    80     3     2    1
    81   152   150    1
    82    69    68   ar
    83    69    67   ar
    84   145   146    1
    85    25    24    2
    86   150   151    1
    87   150   149    1
    88   102   100   am
    89    68    66   ar
    90   126   132   am
    91   126   127    2
    92   132   133    1
    93    67    65   ar
    94   138   137   ar
    95    58    56    1
    96     1     2    1
    97     2     5    1
    98   146   149    1
    99   146   147    1
   100   139   137   ar
   101   137   136    1
   102   133   136    1
   103   133   134    1
   104   100   101    2
   105   100    99    1
   106     5     6    1
   107    66    64   ar
   108    65    64   ar
   109    57    56    1
   110    56    53    1
   111    52    53    1
   112   147   148    2
   113    64    63    1
   114    99    98    1
   115   134   135    2
   116    55    54    2
   117    53    54    1
   118     6     7    1
   119     8     7    1
   120    63    60    1
   121    33    30    1
   122    32    31    2
   123    31    30    1
   124    59    60    1
   125    30    29    1
   126    95    94    1
   127    95    96    1
   128    60    61    1
   129    94    91    1
   130    93    92    2
   131    97    96    1
   132    74    73    2
   133    61    62    2
   134    61    71   am
   135    91    90    1
   136    91    92    1
   137    90    80   am
   138    71    72    1
   139    86    84   ar
   140    86    88   ar
   141    84    83   ar
   142    73    72    1
   143    73    78   am
   144    79    80    1
   145    79    78    1
   146    79    82    1
   147    80    81    2
   148    89    88    1
   149    72    75    1
   150    88    87   ar
   151    75    77    1
   152    75    76    1
   153    83    82    1
   154    83    85   ar
   155    87    85   ar
