@<TRIPOS>MOLECULE
tmp/6f3iB00.pdb
 176 166 0 0 0
SMALL
GASTEIGER

@<TRIPOS>ATOM
      1  N        -41.6530   -7.6770  -10.2430 N.3    21  PRO21      -0.2116
      2  CA       -42.0710   -9.0520   -9.8860 C.3    21  PRO21       0.1372
      3  C        -42.1130   -9.2730   -8.3800 C.2    21  PRO21       0.2244
      4  O        -41.3940   -8.5850   -7.6690 O.2    21  PRO21      -0.2868
      5  CB       -40.9700   -9.9290  -10.5030 C.3    21  PRO21       0.0268
      6  CG       -40.3260   -9.1060  -11.5270 C.3    21  PRO21       0.0207
      7  CD       -40.3840   -7.6950  -11.0000 C.3    21  PRO21       0.0892
      8  N        -47.3200  -10.6850  -10.1630 N.3    29  MET29      -0.1230
      9  CA       -47.2990  -12.1430  -10.1640 C.3    29  MET29       0.1702
     10  C        -47.0500  -12.6400  -11.5830 C.2    29  MET29       0.2593
     11  O        -46.1560  -13.4580  -11.7870 O.2    29  MET29      -0.2718
     12  CB       -48.6090  -12.7080   -9.6060 C.3    29  MET29       0.0401
     13  CG       -48.7820  -12.4670   -8.1150 C.3    29  MET29       0.0596
     14  SD       -50.1130  -13.4740   -7.4430 S.3    29  MET29      -0.1393
     15  CE       -51.5190  -12.5880   -8.0090 C.3    29  MET29       0.0692
     16  N        -47.8150  -12.0970  -12.5400 N.am   30  GLY30      -0.1942
     17  CA       -47.7320  -12.4040  -13.9580 C.3    30  GLY30       0.2014
     18  C        -49.0730  -12.3000  -14.6530 C.2    30  GLY30       0.2639
     19  O        -50.0030  -11.6840  -14.1260 O.2    30  GLY30      -0.2714
     20  N        -49.1670  -12.9120  -15.8520 N.am   31  GLU31      -0.1963
     21  CA       -50.3750  -13.0020  -16.6830 C.3    31  GLU31       0.1733
     22  C        -51.1740  -14.2650  -16.2780 C.2    31  GLU31       0.2616
     23  O        -50.5850  -15.3420  -16.1170 O.2    31  GLU31      -0.2715
     24  CB       -49.9860  -13.0800  -18.1710 C.3    31  GLU31       0.0429
     25  CG       -51.1460  -12.8830  -19.1370 C.3    31  GLU31       0.1163
     26  CD       -51.6680  -11.4650  -19.2640 C.2    31  GLU31       0.3649
     27  OE1      -50.8470  -10.5190  -19.2890 O.co2  31  GLU31      -0.2457
     28  OE2      -52.9040  -11.3050  -19.3750 O.co2  31  GLU31      -0.2457
     29  N        -52.4940  -14.1110  -16.1310 N.am   32  GLY32      -0.1955
     30  CA       -53.3970  -15.1940  -15.7390 C.3    32  GLY32       0.1869
     31  C        -54.6780  -15.3120  -16.5480 C.2    32  GLY32       0.2309
     32  O        -55.7070  -15.7450  -16.0180 O.2    32  GLY32      -0.2863
     33  N        -52.1820  -10.0100  -12.9960 N.3    37  VAL37      -0.1245
     34  CA       -52.5160  -10.4960  -11.6630 C.3    37  VAL37       0.1561
     35  C        -51.3970  -10.0240  -10.7120 C.2    37  VAL37       0.2260
     36  O        -50.2070  -10.1430  -11.0530 O.2    37  VAL37      -0.2867
     37  CB       -52.7790  -12.0440  -11.5630 C.3    37  VAL37       0.0252
     38  CG1      -53.8310  -12.3520  -10.4970 C.3    37  VAL37       0.0019
     39  CG2      -53.2150  -12.6570  -12.8910 C.3    37  VAL37       0.0019
     40  N        -55.3410  -12.5650   -4.7730 N.3    48  ALA48      -0.1245
     41  CA       -54.9160  -12.5240   -6.1610 C.3    48  ALA48       0.1562
     42  C        -55.8610  -11.5720   -6.8110 C.2    48  ALA48       0.2260
     43  O        -57.0720  -11.8220   -6.8480 O.2    48  ALA48      -0.2867
     44  CB       -55.0230  -13.8930   -6.8120 C.3    48  ALA48       0.0290
     45  N        -56.8840   -9.9030  -10.0520 N.3    50  LYS50      -0.1245
     46  CA       -56.8840   -9.9930  -11.4970 C.3    50  LYS50       0.1561
     47  C        -57.2390   -8.6010  -11.9780 C.2    50  LYS50       0.2260
     48  O        -58.2810   -8.0670  -11.6100 O.2    50  LYS50      -0.2867
     49  CB       -57.9070  -11.0450  -11.9850 C.3    50  LYS50       0.0271
     50  CG       -57.9140  -11.3030  -13.4950 C.3    50  LYS50       0.0035
     51  CD       -56.8830  -12.3370  -13.9490 C.3    50  LYS50       0.0206
     52  CE       -56.8820  -12.5430  -15.4490 C.3    50  LYS50       0.1093
     53  NZ       -58.0040  -13.4100  -15.9090 N.3    50  LYS50      -0.1314
     54  N        -60.6800  -22.8790   -7.1270 N.3    76  VAL76      -0.1245
     55  CA       -60.2560  -21.6150   -6.4950 C.3    76  VAL76       0.1561
     56  C        -61.4890  -20.8800   -5.9570 C.2    76  VAL76       0.2260
     57  O        -62.5780  -20.9900   -6.5300 O.2    76  VAL76      -0.2867
     58  CB       -59.3570  -20.6960   -7.3780 C.3    76  VAL76       0.0252
     59  CG1      -58.1360  -21.4380   -7.8980 C.3    76  VAL76       0.0019
     60  CG2      -60.1280  -20.0590   -8.5220 C.3    76  VAL76       0.0019
     61  N        -59.4750  -13.1970   -5.4740 N.3    92  TYR92      -0.1227
     62  CA       -59.4210  -14.6200   -5.2690 C.3    92  TYR92       0.1736
     63  C        -58.5680  -14.8790   -4.0930 C.2    92  TYR92       0.2595
     64  O        -57.6800  -14.0840   -3.7700 O.2    92  TYR92      -0.2718
     65  CB       -58.7760  -15.3380   -6.4650 C.3    92  TYR92       0.0548
     66  CG       -59.6040  -15.3560   -7.7220 C.ar   92  TYR92      -0.0200
     67  CD1      -60.5750  -16.3310   -7.9240 C.ar   92  TYR92      -0.0009
     68  CD2      -59.3750  -14.4390   -8.7440 C.ar   92  TYR92      -0.0009
     69  CE1      -61.3390  -16.3580   -9.0850 C.ar   92  TYR92       0.0417
     70  CE2      -60.1240  -14.4660   -9.9200 C.ar   92  TYR92       0.0417
     71  CZ       -61.1070  -15.4280  -10.0840 C.ar   92  TYR92       0.1957
     72  OH       -61.8510  -15.4710  -11.2380 O.3    92  TYR92      -0.2866
     73  N        -58.7760  -16.0390   -3.4920 N.am   93  VAL93      -0.1966
     74  CA       -57.9290  -16.4820   -2.4160 C.3    93  VAL93       0.1727
     75  C        -56.6200  -16.8000   -3.1380 C.2    93  VAL93       0.2616
     76  O        -56.6140  -17.4520   -4.1920 O.2    93  VAL93      -0.2715
     77  CB       -58.5390  -17.6860   -1.6730 C.3    93  VAL93       0.0290
     78  CG1      -57.5790  -18.2200   -0.6100 C.3    93  VAL93       0.0023
     79  CG2      -59.8710  -17.2940   -1.0450 C.3    93  VAL93       0.0023
     80  N        -55.5490  -16.2170   -2.6280 N.am   94  TYR94      -0.1960
     81  CA       -54.2120  -16.3230   -3.1780 C.3    94  TYR94       0.1771
     82  C        -53.6880  -17.7210   -2.9220 C.2    94  TYR94       0.2619
     83  O        -53.6510  -18.1810   -1.7770 O.2    94  TYR94      -0.2715
     84  CB       -53.3040  -15.2310   -2.5510 C.3    94  TYR94       0.0574
     85  CG       -51.8470  -15.3020   -2.9430 C.ar   94  TYR94      -0.0198
     86  CD1      -51.4020  -14.7660   -4.1450 C.ar   94  TYR94      -0.0009
     87  CD2      -50.9050  -15.8700   -2.0930 C.ar   94  TYR94      -0.0009
     88  CE1      -50.0600  -14.8350   -4.5130 C.ar   94  TYR94       0.0417
     89  CE2      -49.5570  -15.9220   -2.4390 C.ar   94  TYR94       0.0417
     90  CZ       -49.1430  -15.4250   -3.6630 C.ar   94  TYR94       0.1957
     91  OH       -47.8170  -15.4830   -4.0170 O.3    94  TYR94      -0.2866
     92  N        -53.3300  -18.4140   -4.0070 N.am   95  MET95      -0.1977
     93  CA       -52.7730  -19.7590   -3.9250 C.3    95  MET95       0.1605
     94  C        -51.2610  -19.5630   -3.8170 C.2    95  MET95       0.2287
     95  O        -50.6690  -19.0400   -4.7560 O.2    95  MET95      -0.2864
     96  CB       -53.1980  -20.6150   -5.1460 C.3    95  MET95       0.0413
     97  CG       -54.7190  -20.7930   -5.3170 C.3    95  MET95       0.0598
     98  SD       -55.8920  -21.0000   -3.9130 S.3    95  MET95      -0.1393
     99  CE       -55.1510  -22.0160   -2.9830 C.3    95  MET95       0.0692
    100  N        -48.5860  -21.0150   -6.6210 N.3    98  GLY98      -0.1210
    101  CA       -48.8130  -20.6300   -8.0080 C.3    98  GLY98       0.1956
    102  C        -49.5190  -21.6600   -8.8600 C.2    98  GLY98       0.2612
    103  O        -50.4060  -22.3640   -8.3800 O.2    98  GLY98      -0.2717
    104  N        -49.1450  -21.7380  -10.1490 N.am   99  SER99      -0.1952
    105  CA       -49.7590  -22.6930  -11.0620 C.3    99  SER99       0.1924
    106  C        -48.9400  -23.9820  -11.1870 C.2    99  SER99       0.2314
    107  O        -47.7350  -23.9850  -10.9410 O.2    99  SER99      -0.2863
    108  CB       -49.9600  -22.0600  -12.4330 C.3    99  SER99       0.2116
    109  OG       -48.7180  -21.8590  -13.0860 O.3    99  SER99      -0.2180
    110  N        -48.2470  -25.2870  -14.0050 N.3   101  LEU101     -0.1231
    111  CA       -47.3510  -25.0050  -15.1350 C.3   101  LEU101      0.1693
    112  C        -46.0060  -24.4840  -14.6210 C.2   101  LEU101      0.2592
    113  O        -44.9710  -25.0370  -14.9740 O.2   101  LEU101     -0.2718
    114  CB       -47.9870  -24.0300  -16.1490 C.3   101  LEU101      0.0284
    115  CG       -47.1180  -23.5800  -17.3440 C.3   101  LEU101      0.0019
    116  CD1      -46.9600  -24.6790  -18.3730 C.3   101  LEU101      0.0001
    117  CD2      -47.6890  -22.3530  -18.0020 C.3   101  LEU101      0.0001
    118  N        -46.0290  -23.4790  -13.7360 N.am  102  ASP102     -0.1974
    119  CA       -44.8160  -22.9030  -13.1350 C.3   102  ASP102      0.1709
    120  C        -44.0360  -23.9060  -12.2890 C.2   102  ASP102      0.2293
    121  O        -42.8070  -23.8930  -12.3230 O.2   102  ASP102     -0.2864
    122  CB       -45.1610  -21.6630  -12.3000 C.3   102  ASP102      0.1436
    123  CG       -45.7990  -20.5340  -13.0990 C.2   102  ASP102      0.3671
    124  OD1      -45.7400  -20.5730  -14.3470 O.co2 102  ASP102     -0.2456
    125  OD2      -46.3590  -19.6260  -12.4810 O.co2 102  ASP102     -0.2456
    126  N        -40.1240  -22.8410  -11.9960 N.3   107  LEU107     -0.1231
    127  CA       -40.0100  -21.3870  -12.1260 C.3   107  LEU107      0.1693
    128  C        -39.6450  -20.7410  -10.7870 C.2   107  LEU107      0.2592
    129  O        -40.1580  -21.1460   -9.7410 O.2   107  LEU107     -0.2718
    130  CB       -41.3250  -20.8220  -12.6770 C.3   107  LEU107      0.0284
    131  CG       -41.2650  -19.4710  -13.3690 C.3   107  LEU107      0.0019
    132  CD1      -40.8900  -19.6220  -14.8360 C.3   107  LEU107      0.0001
    133  CD2      -42.5910  -18.8110  -13.3200 C.3   107  LEU107      0.0001
    134  N        -38.7040  -19.7820  -10.8290 N.am  108  ASP108     -0.1974
    135  CA       -38.1980  -19.0060   -9.6870 C.3   108  ASP108      0.1709
    136  C        -37.4700  -19.8470   -8.6190 C.2   108  ASP108      0.2293
    137  O        -37.4330  -19.4560   -7.4550 O.2   108  ASP108     -0.2864
    138  CB       -39.3100  -18.1360   -9.0550 C.3   108  ASP108      0.1436
    139  CG       -39.9040  -17.1360  -10.0230 C.2   108  ASP108      0.3671
    140  OD1      -39.1380  -16.3310  -10.5820 O.co2 108  ASP108     -0.2456
    141  OD2      -41.1380  -17.1580  -10.2140 O.co2 108  ASP108     -0.2456
    142  N        -51.7300  -24.0390  -16.5420 N.3   145  ALA145     -0.1231
    143  CA       -51.6900  -22.6440  -16.0500 C.3   145  ALA145      0.1694
    144  C        -52.9460  -22.3360  -15.1980 C.2   145  ALA145      0.2592
    145  O        -52.9310  -21.4060  -14.4060 O.2   145  ALA145     -0.2718
    146  CB       -51.5920  -21.6600  -17.2210 C.3   145  ALA145      0.0304
    147  N        -54.0260  -23.1340  -15.3840 N.am  146  ASN146     -0.1974
    148  CA       -55.3330  -23.0260  -14.7370 C.3   146  ASN146      0.1688
    149  C        -55.5320  -24.0150  -13.5930 C.2   146  ASN146      0.2292
    150  O        -56.6250  -24.1310  -13.0370 O.2   146  ASN146     -0.2864
    151  CB       -56.4490  -23.1280  -15.7880 C.3   146  ASN146      0.1181
    152  CG       -56.6350  -21.8410  -16.5470 C.2   146  ASN146      0.2629
    153  OD1      -56.0760  -20.7930  -16.1990 O.2   146  ASN146     -0.2716
    154  ND2      -57.4280  -21.8770  -17.6000 N.am  146  ASN146     -0.0877
    155  N        -54.1220  -24.2880  -10.0400 N.3   148  LEU148     -0.1245
    156  CA       -53.3190  -23.6010   -9.0260 C.3   148  LEU148      0.1561
    157  C        -53.0650  -24.5000   -7.8390 C.2   148  LEU148      0.2260
    158  O        -53.7520  -25.5120   -7.6840 O.2   148  LEU148     -0.2867
    159  CB       -53.9190  -22.2470   -8.6010 C.3   148  LEU148      0.0270
    160  CG       -54.2960  -21.2910   -9.7580 C.3   148  LEU148      0.0019
    161  CD1      -55.0960  -20.1630   -9.2320 C.3   148  LEU148      0.0001
    162  CD2      -53.0740  -20.7320  -10.4410 C.3   148  LEU148      0.0001
    163  N        -58.9920  -23.1760  -11.6770 N.3   158  SER158     -0.1202
    164  CA       -59.2930  -21.7480  -11.8270 C.3   158  SER158      0.2020
    165  C        -59.7520  -21.4010  -13.2310 C.2   158  SER158      0.2618
    166  O        -59.7300  -22.2530  -14.1130 O.2   158  SER158     -0.2717
    167  CB       -58.0500  -20.9120  -11.5170 C.3   158  SER158      0.2103
    168  OG       -56.9930  -21.3030  -12.3760 O.3   158  SER158     -0.2182
    169  N        -60.0930  -20.1100  -13.4280 N.am  159  ASP159     -0.1973
    170  CA       -60.4590  -19.4570  -14.6850 C.3   159  ASP159      0.1709
    171  C        -61.7350  -20.0380  -15.3130 C.2   159  ASP159      0.2293
    172  O        -61.6750  -20.8880  -16.2020 O.2   159  ASP159     -0.2864
    173  CB       -59.2630  -19.4610  -15.6650 C.3   159  ASP159      0.1436
    174  CG       -58.8520  -18.0940  -16.1710 C.2   159  ASP159      0.3671
    175  OD1      -58.4940  -17.2340  -15.3330 O.co2 159  ASP159     -0.2456
    176  OD2      -58.8250  -17.9040  -17.4110 O.co2 159  ASP159     -0.2456
@<TRIPOS>BOND
     1    28    26   ar
     2    27    26   ar
     3    26    25    1
     4    25    24    1
     5   116   115    1
     6    24    21    1
     7   117   115    1
     8   154   152   am
     9   176   174   ar
    10   115   114    1
    11   146   143    1
    12    21    22    1
    13    21    20    1
    14    31    32    2
    15    31    30    1
    16   152   153    2
    17   152   151    1
    18   142   143    1
    19    22    29   am
    20    22    23    2
    21   172   171    2
    22   174   173    1
    23   174   175   ar
    24   114   111    1
    25    29    30    1
    26   143   144    1
    27    53    52    1
    28    20    18   am
    29   151   148    1
    30   173   170    1
    31    52    51    1
    32   147   144   am
    33   147   148    1
    34   171   170    1
    35   144   145    2
    36   111   112    1
    37   111   110    1
    38   113   112    2
    39   132   131    1
    40   148   149    1
    41   170   169    1
    42    18    19    2
    43    18    17    1
    44   112   118   am
    45   124   123   ar
    46   166   165    2
    47    17    16    1
    48    51    50    1
    49   118   119    1
    50   149   150    2
    51    50    49    1
    52   169   165   am
    53   131   133    1
    54   131   130    1
    55   165   164    1
    56   119   122    1
    57   119   120    1
    58   123   125   ar
    59   123   122    1
    60   109   108    1
    61    33    34    1
    62    39    37    1
    63   130   127    1
    64    16    10   am
    65   108   105    1
    66   168   167    1
    67   121   120    2
    68   127   126    1
    69   127   128    1
    70    49    46    1
    71    47    48    2
    72    47    46    1
    73   164   163    1
    74   164   167    1
    75    11    10    2
    76    34    37    1
    77    34    35    1
    78    10     9    1
    79    37    38    1
    80     6     7    1
    81     6     5    1
    82    46    45    1
    83    72    71    1
    84   106   105    1
    85   106   107    2
    86   105   104    1
    87    36    35    2
    88     7     1    1
    89   134   128   am
    90   134   135    1
    91   128   129    2
    92   140   139   ar
    93     5     2    1
    94   162   160    1
    95     1     2    1
    96   141   139   ar
    97     9     8    1
    98     9    12    1
    99   104   102   am
   100    71    70   ar
   101    71    69   ar
   102   155   156    1
   103   139   138    1
   104    70    68   ar
   105     2     3    1
   106   160   161    1
   107   160   159    1
   108   135   138    1
   109   135   136    1
   110    12    13    1
   111    69    67   ar
   112   156   159    1
   113   156   157    1
   114   102   103    2
   115   102   101    1
   116    68    66   ar
   117   136   137    2
   118    60    58    1
   119     3     4    2
   120    13    14    1
   121    15    14    1
   122   101   100    1
   123    67    66   ar
   124    59    58    1
   125   157   158    2
   126    66    65    1
   127    58    55    1
   128    54    55    1
   129    43    42    2
   130    44    41    1
   131    42    41    1
   132    57    56    2
   133    55    56    1
   134    65    62    1
   135    41    40    1
   136    61    62    1
   137    97    96    1
   138    97    98    1
   139    62    63    1
   140    96    93    1
   141    95    94    2
   142    88    86   ar
   143    88    90   ar
   144    76    75    2
   145    86    85   ar
   146    63    64    2
   147    63    73   am
   148    91    90    1
   149    92    93    1
   150    92    82   am
   151    93    94    1
   152    98    99    1
   153    90    89   ar
   154    73    74    1
   155    81    82    1
   156    81    80    1
   157    81    84    1
   158    75    80   am
   159    75    74    1
   160    85    84    1
   161    85    87   ar
   162    82    83    2
   163    89    87   ar
   164    74    77    1
   165    77    79    1
   166    77    78    1
