@<TRIPOS>MOLECULE
tmp/6f3nD02.pdb
 164 155 0 0 0
SMALL
GASTEIGER

@<TRIPOS>ATOM
      1  N          2.3240   22.1160   33.6500 N.3    52  ILE52      -0.1231
      2  CA         3.7240   22.0770   33.2890 C.3    52  ILE52       0.1692
      3  C          3.8220   21.7840   31.7750 C.2    52  ILE52       0.2592
      4  O          3.0720   20.9880   31.2480 O.2    52  ILE52      -0.2718
      5  CB         4.5250   21.0530   34.1280 C.3    52  ILE52       0.0266
      6  CG1        6.0000   21.0020   33.7090 C.3    52  ILE52       0.0019
      7  CG2        3.9480   19.6300   34.0330 C.3    52  ILE52       0.0020
      8  CD1        6.9020   20.2690   34.6910 C.3    52  ILE52       0.0001
      9  N          4.7710   22.4410   31.1530 N.am   53  HIS53      -0.1976
     10  CA         5.1170   22.2920   29.7210 C.3    53  HIS53       0.1656
     11  C          4.6700   20.9590   29.1540 C.2    53  HIS53       0.2291
     12  O          5.1640   19.9160   29.5770 O.2    53  HIS53      -0.2864
     13  CB         6.6370   22.4240   29.5350 C.3    53  HIS53       0.0771
     14  CG         7.2430   23.5770   30.2570 C.ar   53  HIS53       0.0820
     15  ND1        7.0100   24.8870   29.8920 N.ar   53  HIS53      -0.2267
     16  CD2        8.0660   23.6180   31.3280 C.ar   53  HIS53       0.1154
     17  CE1        7.6690   25.6820   30.6980 C.ar   53  HIS53       0.1986
     18  NE2        8.3100   24.9380   31.5900 N.ar   53  HIS53      -0.2212
     19  N          5.1800   18.6700   26.9810 N.3    55  THR55      -0.1218
     20  CA         6.1850   18.0310   26.1270 C.3    55  THR55       0.1862
     21  C          6.0410   16.5120   26.1650 C.2    55  THR55       0.2287
     22  O          5.2930   15.9550   26.9700 O.2    55  THR55      -0.2866
     23  CB         7.5870   18.3300   26.6750 C.3    55  THR55       0.1770
     24  OG1        7.6700   17.7920   28.0060 O.3    55  THR55      -0.2211
     25  CG2        7.9070   19.8480   26.6660 C.3    55  THR55       0.0375
     26  N          8.2460   14.6580   27.4270 N.3    57  GLN57      -0.1231
     27  CA         8.7480   14.2530   28.7310 C.3    57  GLN57       0.1698
     28  C          7.6350   14.3460   29.7520 C.2    57  GLN57       0.2592
     29  O          7.4780   13.4550   30.5880 O.2    57  GLN57      -0.2718
     30  CB         9.9690   15.0970   29.1590 C.3    57  GLN57       0.0381
     31  CG        11.2030   14.8730   28.2610 C.3    57  GLN57       0.0905
     32  CD        11.0130   15.3990   26.8530 C.2    57  GLN57       0.2608
     33  OE1       10.5210   16.5350   26.6540 O.2    57  GLN57      -0.2717
     34  NE2       11.3420   14.5790   25.8710 N.am   57  GLN57      -0.0878
     35  N          6.8700   15.4290   29.7030 N.am   58  THR58      -0.1953
     36  CA         5.6840   15.5380   30.5720 C.3    58  THR58       0.1897
     37  C          4.6760   14.4300   30.3170 C.2    58  THR58       0.2313
     38  O          4.0360   13.9410   31.2390 O.2    58  THR58      -0.2863
     39  CB         5.0870   16.9290   30.4090 C.3    58  THR58       0.1794
     40  OG1        5.9980   17.8380   30.9900 O.3    58  THR58      -0.2208
     41  CG2        3.7120   17.0720   31.0500 C.3    58  THR58       0.0378
     42  N          4.5770   24.1300   37.8560 N.3   131  ASP131     -0.1239
     43  CA         5.8840   24.5400   37.3760 C.3   131  ASP131      0.1674
     44  C          5.8080   26.0510   37.1900 C.2   131  ASP131      0.2266
     45  O          5.3620   26.5470   36.1610 O.2   131  ASP131     -0.2867
     46  CB         6.2190   23.8070   36.0770 C.3   131  ASP131      0.1410
     47  CG         7.5880   24.1400   35.5330 C.2   131  ASP131      0.3668
     48  OD1        8.0220   25.2840   35.6040 O.co2 131  ASP131     -0.2456
     49  OD2        8.2440   23.2680   34.9600 O.co2 131  ASP131     -0.2456
     50  N          7.8750   22.3560   40.7050 N.3   156  GLU156     -0.1231
     51  CA         9.0110   21.9670   39.8910 C.3   156  GLU156      0.1699
     52  C         10.1920   22.9290   39.9550 C.2   156  GLU156      0.2592
     53  O         11.3340   22.4780   39.8330 O.2   156  GLU156     -0.2718
     54  CB         8.5740   21.8970   38.4210 C.3   156  GLU156      0.0402
     55  CG         9.6440   21.4780   37.4060 C.3   156  GLU156      0.1161
     56  CD         9.8940   19.9820   37.3210 C.2   156  GLU156      0.3649
     57  OE1        9.2700   19.1850   38.0480 O.co2 156  GLU156     -0.2457
     58  OE2       10.7540   19.6090   36.4610 O.co2 156  GLU156     -0.2457
     59  N          9.9590   24.2400   40.0340 N.am  157  THR157     -0.1953
     60  CA        11.0130   25.1610   39.6020 C.3   157  THR157      0.1897
     61  C         11.3230   26.2480   40.6270 C.2   157  THR157      0.2313
     62  O         10.5470   26.5320   41.5390 O.2   157  THR157     -0.2863
     63  CB        10.7730   25.6640   38.1400 C.3   157  THR157      0.1794
     64  OG1       12.0480   26.0640   37.5060 O.3   157  THR157     -0.2208
     65  CG2        9.7750   26.7230   38.1380 C.3   157  THR157      0.0378
     66  N         17.3460   17.0710   40.6020 N.3   186  LYS186     -0.1245
     67  CA        16.5710   18.0190   39.8420 C.3   186  LYS186      0.1561
     68  C         17.4760   19.2220   39.6150 C.2   186  LYS186      0.2260
     69  O         18.0520   19.3420   38.5250 O.2   186  LYS186     -0.2867
     70  CB        15.2540   18.3510   40.5860 C.3   186  LYS186      0.0271
     71  CG        14.2040   19.0460   39.7740 C.3   186  LYS186      0.0035
     72  CD        14.6520   20.3740   39.1320 C.3   186  LYS186      0.0206
     73  CE        13.5270   20.9930   38.3330 C.3   186  LYS186      0.1093
     74  NZ        13.7700   22.4410   38.0850 N.3   186  LYS186     -0.1314
     75  N         18.7240   18.8010   35.9400 N.3   190  ASP190     -0.1225
     76  CA        17.8140   19.5310   35.0530 C.3   190  ASP190      0.1805
     77  C         18.2800   20.9710   34.8390 C.2   190  ASP190      0.2597
     78  O         18.5960   21.3920   33.7090 O.2   190  ASP190     -0.2718
     79  CB        16.4350   19.4250   35.7270 C.3   190  ASP190      0.1424
     80  CG        15.3330   20.3010   35.1180 C.2   190  ASP190      0.3668
     81  OD1       15.5800   21.4920   34.7480 O.co2 190  ASP190     -0.2456
     82  OD2       14.1710   19.8030   35.1240 O.co2 190  ASP190     -0.2456
     83  N         18.3800   21.7400   35.9340 N.am  191  ASN191     -0.1974
     84  CA        18.5750   23.1840   35.7620 C.3   191  ASN191      0.1688
     85  C         19.9040   23.4900   35.0870 C.2   191  ASN191      0.2292
     86  O         19.9850   24.4360   34.3150 O.2   191  ASN191     -0.2864
     87  CB        18.5380   23.9140   37.0940 C.3   191  ASN191      0.1181
     88  CG        17.2390   23.7280   37.8590 C.2   191  ASN191      0.2629
     89  OD1       16.6130   22.6730   37.7950 O.2   191  ASN191     -0.2716
     90  ND2       16.8120   24.7740   38.5810 N.am  191  ASN191     -0.0877
     91  N         12.4330   31.3000   33.8450 N.3   315  HIS315     -0.1241
     92  CA        11.0090   30.9260   33.7290 C.3   315  HIS315      0.1621
     93  C         10.0530   31.9230   33.0290 C.2   315  HIS315      0.2264
     94  O          9.1240   31.4700   32.3030 O.2   315  HIS315     -0.2867
     95  CB        10.3890   30.5470   35.1000 C.3   315  HIS315      0.0745
     96  CG         9.0340   29.9030   34.9690 C.ar  315  HIS315      0.0817
     97  ND1        8.8600   28.5750   34.6530 N.ar  315  HIS315     -0.2268
     98  CD2        7.7830   30.4230   35.0860 C.ar  315  HIS315      0.1154
     99  CE1        7.5640   28.3070   34.6010 C.ar  315  HIS315      0.1986
    100  NE2        6.8860   29.4110   34.8510 N.ar  315  HIS315     -0.2212
    101  N         10.8760   31.3280   27.6950 N.3   365  LEU365     -0.1245
    102  CA        11.9420   30.3350   27.8270 C.3   365  LEU365      0.1561
    103  C         12.3260   29.7250   26.4930 C.2   365  LEU365      0.2260
    104  O         11.5050   29.1050   25.8130 O.2   365  LEU365     -0.2867
    105  CB        11.6580   29.2260   28.8480 C.3   365  LEU365      0.0270
    106  CG        10.4600   28.9620   29.7010 C.3   365  LEU365      0.0019
    107  CD1        9.3610   28.4860   28.7610 C.3   365  LEU365      0.0001
    108  CD2       10.7690   27.9170   30.7570 C.3   365  LEU365      0.0001
    109  N         14.6570   27.5280   25.3740 N.3   367  ASN367     -0.1225
    110  CA        14.8900   26.1030   25.1190 C.3   367  ASN367      0.1785
    111  C         13.5880   25.3840   24.7370 C.2   367  ASN367      0.2597
    112  O         13.5710   24.5910   23.8010 O.2   367  ASN367     -0.2718
    113  CB        15.5870   25.4110   26.2770 C.3   367  ASN367      0.1169
    114  CG        14.8350   25.5050   27.6010 C.2   367  ASN367      0.2627
    115  OD1       14.0770   26.4420   27.8730 O.2   367  ASN367     -0.2716
    116  ND2       15.1230   24.5700   28.4500 N.am  367  ASN367     -0.0877
    117  N         12.5210   25.6820   25.4530 N.am  368  LEU368     -0.1980
    118  CA        11.1990   25.1140   25.1440 C.3   368  LEU368      0.1596
    119  C         10.4840   25.8170   23.9820 C.2   368  LEU368      0.2287
    120  O          9.6780   25.1840   23.2750 O.2   368  LEU368     -0.2864
    121  CB        10.3210   25.1500   26.3970 C.3   368  LEU368      0.0297
    122  CG        10.7930   24.1150   27.4410 C.3   368  LEU368      0.0022
    123  CD1       10.5350   24.5940   28.8590 C.3   368  LEU368      0.0001
    124  CD2       10.1250   22.7730   27.1580 C.3   368  LEU368      0.0001
    125  N         12.9380   21.8270   22.1160 N.3   372  THR372     -0.1203
    126  CA        12.0200   20.9220   22.8090 C.3   372  THR372      0.1994
    127  C         12.3550   20.8380   24.2840 C.2   372  THR372      0.2618
    128  O         12.0030   19.8590   24.9430 O.2   372  THR372     -0.2717
    129  CB        12.0570   19.4860   22.1920 C.3   372  THR372      0.1784
    130  OG1       13.3270   18.8650   22.5180 O.3   372  THR372     -0.2211
    131  CG2       11.8510   19.4810   20.6890 C.3   372  THR372      0.0376
    132  N         13.0620   21.8250   24.7970 N.am  373  GLY373     -0.1942
    133  CA        13.4680   21.8220   26.1840 C.3   373  GLY373      0.2014
    134  C         14.4970   20.7380   26.4730 C.2   373  GLY373      0.2638
    135  O         15.2130   20.2270   25.5770 O.2   373  GLY373     -0.2714
    136  N         14.5480   20.3530   27.7280 N.am  374  HIS374     -0.1973
    137  CA        15.5000   19.3830   28.1760 C.3   374  HIS374      0.1656
    138  C         15.1820   17.9910   27.6150 C.2   374  HIS374      0.2291
    139  O         14.0110   17.6460   27.3680 O.2   374  HIS374     -0.2864
    140  CB        15.5210   19.2460   29.6870 C.3   374  HIS374      0.0771
    141  CG        15.8420   20.4740   30.4350 C.ar  374  HIS374      0.0820
    142  ND1       16.3170   21.6300   29.8640 N.ar  374  HIS374     -0.2267
    143  CD2       15.7720   20.7050   31.7700 C.ar  374  HIS374      0.1154
    144  CE1       16.5310   22.5300   30.8140 C.ar  374  HIS374      0.1986
    145  NE2       16.1910   21.9920   31.9780 N.ar  374  HIS374     -0.2212
    146  N         15.1650   14.8750   32.1240 N.3   379  MET379     -0.1245
    147  CA        13.8590   15.0810   32.7770 C.3   379  MET379      0.1570
    148  C         13.4020   13.8900   33.6160 C.2   379  MET379      0.2261
    149  O         12.5820   14.0550   34.5340 O.2   379  MET379     -0.2867
    150  CB        12.7870   15.4070   31.7250 C.3   379  MET379      0.0387
    151  CG        12.9900   16.7740   31.0650 C.3   379  MET379      0.0595
    152  SD        13.2510   18.1530   32.2100 S.3   379  MET379     -0.1393
    153  CE        11.7660   18.0130   33.1990 C.3   379  MET379      0.0692
    154  N         11.3090   14.2600   37.0580 N.3   383  PHE383     -0.1241
    155  CA         9.9810   13.7060   37.0740 C.3   383  PHE383      0.1605
    156  C          9.8370   12.4950   37.9670 C.2   383  PHE383      0.2264
    157  O          8.7630   12.2800   38.5480 O.2   383  PHE383     -0.2867
    158  CB         9.5110   13.4910   35.6320 C.3   383  PHE383      0.0534
    159  CG         9.2010   14.7800   34.8940 C.ar  383  PHE383     -0.0203
    160  CD1        9.1090   16.0070   35.5560 C.ar  383  PHE383     -0.0042
    161  CD2        8.9140   14.7570   33.5230 C.ar  383  PHE383     -0.0042
    162  CE1        8.7620   17.1690   34.8870 C.ar  383  PHE383     -0.0003
    163  CE2        8.5670   15.9220   32.8390 C.ar  383  PHE383     -0.0003
    164  CZ         8.4770   17.1280   33.5300 C.ar  383  PHE383     -0.0000
@<TRIPOS>BOND
     1   131   129    1
     2   125   126    1
     3   129   130    1
     4   129   126    1
     5   126   127    1
     6   120   119    2
     7   112   111    2
     8   119   118    1
     9   127   132   am
    10   127   128    2
    11   111   110    1
    12   111   117   am
    13   132   133    1
    14   110   109    1
    15   110   113    1
    16   118   117    1
    17   118   121    1
    18   135   134    2
    19   104   103    2
    20    34    32   am
    21    20    21    1
    22    20    23    1
    23    20    19    1
    24    21    22    2
    25   133   134    1
    26   113   114    1
    27   121   122    1
    28   134   136   am
    29   103   102    1
    30    33    32    2
    31    25    23    1
    32    23    24    1
    33    32    31    1
    34   124   122    1
    35   139   138    2
    36    26    27    1
    37   122   123    1
    38   114   115    2
    39   114   116   am
    40   138   137    1
    41   101   102    1
    42   136   137    1
    43   102   105    1
    44   137   140    1
    45    31    30    1
    46    27    30    1
    47    27    28    1
    48   107   106    1
    49   105   106    1
    50    11    12    2
    51    11    10    1
    52    13    10    1
    53    13    14    1
    54   140   141    1
    55   106   108    1
    56    35    28   am
    57    35    36    1
    58    10     9    1
    59    28    29    2
    60   142   141   ar
    61   142   144   ar
    62    15    14   ar
    63    15    17   ar
    64    14    16   ar
    65    37    36    1
    66    37    38    2
    67    39    36    1
    68    39    40    1
    69    39    41    1
    70   141   143   ar
    71    17    18   ar
    72   144   145   ar
    73   151   150    1
    74   151   152    1
    75     9     3   am
    76     4     3    2
    77    16    18   ar
    78   150   147    1
    79   143   145   ar
    80     3     2    1
    81   146   147    1
    82   152   153    1
    83    94    93    2
    84   147   148    1
    85   163   161   ar
    86   163   164   ar
    87    93    92    1
    88     2     1    1
    89     2     5    1
    90   161   159   ar
    91   164   162   ar
    92   148   149    2
    93     6     5    1
    94     6     8    1
    95    78    77    2
    96    92    91    1
    97    92    95    1
    98     7     5    1
    99    86    85    2
   100    99    97   ar
   101    99   100   ar
   102    97    96   ar
   103    81    80   ar
   104    77    76    1
   105    77    83   am
   106   100    98   ar
   107   162   160   ar
   108   159   160   ar
   109   159   158    1
   110    49    47   ar
   111    96    98   ar
   112    96    95    1
   113    76    79    1
   114    76    75    1
   115    85    84    1
   116    80    82   ar
   117    80    79    1
   118    47    48   ar
   119    47    46    1
   120   158   155    1
   121    84    83    1
   122    84    87    1
   123    46    43    1
   124    45    44    2
   125    58    56   ar
   126   154   155    1
   127   155   156    1
   128    87    88    1
   129    44    43    1
   130    56    55    1
   131    56    57   ar
   132    43    42    1
   133    55    54    1
   134    64    63    1
   135    89    88    2
   136    88    90   am
   137   156   157    2
   138    74    73    1
   139    65    63    1
   140    63    60    1
   141    73    72    1
   142    54    51    1
   143    69    68    2
   144    72    71    1
   145    60    59    1
   146    60    61    1
   147    68    67    1
   148    71    70    1
   149    53    52    2
   150    67    70    1
   151    67    66    1
   152    51    52    1
   153    51    50    1
   154    52    59   am
   155    61    62    2
