@<TRIPOS>MOLECULE
tmp/6f3qB02.pdb
 122 115 0 0 0
SMALL
GASTEIGER

@<TRIPOS>ATOM
      1  N         24.7180   21.4530   -5.8710 N.3    51  ILE51      -0.1231
      2  CA        25.1480   21.5320   -4.4770 C.3    51  ILE51       0.1692
      3  C         23.9100   21.8100   -3.6380 C.2    51  ILE51       0.2592
      4  O         23.0550   22.6050   -4.0340 O.2    51  ILE51      -0.2718
      5  CB        26.3010   22.5430   -4.2640 C.3    51  ILE51       0.0266
      6  CG1       26.7040   22.5850   -2.7730 C.3    51  ILE51       0.0019
      7  CG2       25.9590   23.9200   -4.7120 C.3    51  ILE51       0.0020
      8  CD1       27.9980   23.2980   -2.4820 C.3    51  ILE51       0.0001
      9  N         23.8680   21.1530   -2.4780 N.am   52  HIS52      -0.1976
     10  CA        22.8210   21.2640   -1.4590 C.3    52  HIS52       0.1656
     11  C         22.1140   22.6330   -1.5340 C.2    52  HIS52       0.2291
     12  O         22.7220   23.6650   -1.2710 O.2    52  HIS52      -0.2864
     13  CB        23.4470   21.1130   -0.0800 C.3    52  HIS52       0.0771
     14  CG        24.3200   19.9350    0.0820 C.ar   52  HIS52       0.0820
     15  ND1       23.8450   18.6360    0.0230 N.ar   52  HIS52      -0.2267
     16  CD2       25.6490   19.8610    0.2850 C.ar   52  HIS52       0.1154
     17  CE1       24.8590   17.8230    0.2060 C.ar   52  HIS52       0.1986
     18  NE2       25.9570   18.5420    0.3990 N.ar   52  HIS52      -0.2212
     19  N         20.5630   25.0010    0.0480 N.3    54  THR54      -0.1218
     20  CA        20.3660   25.6120    1.3370 C.3    54  THR54       0.1862
     21  C         20.3410   27.1490    1.2160 C.2    54  THR54       0.2287
     22  O         20.6680   27.7100    0.1560 O.2    54  THR54      -0.2866
     23  CB        21.5500   25.2740    2.2550 C.3    54  THR54       0.1770
     24  OG1       22.7260   25.8160    1.6650 O.3    54  THR54      -0.2211
     25  CG2       21.6600   23.7200    2.4640 C.3    54  THR54       0.0375
     26  N         22.5970   28.9770    2.4750 N.3    56  GLN56      -0.1231
     27  CA        23.9900   29.3430    2.2070 C.3    56  GLN56       0.1698
     28  C         24.2840   29.2560    0.7150 C.2    56  GLN56       0.2592
     29  O         24.9260   30.1280    0.1340 O.2    56  GLN56      -0.2718
     30  CB        24.9360   28.4650    2.9970 C.3    56  GLN56       0.0381
     31  CG        24.8160   28.6830    4.5130 C.3    56  GLN56       0.0905
     32  CD        23.4920   28.1890    5.0840 C.2    56  GLN56       0.2608
     33  OE1       23.0170   27.0780    4.7640 O.2    56  GLN56      -0.2717
     34  NE2       22.8640   29.0060    5.9040 N.am   56  GLN56      -0.0878
     35  N         23.8160   28.1820    0.0800 N.am   57  THR57      -0.1953
     36  CA        23.9390   28.0650   -1.3750 C.3    57  THR57       0.1897
     37  C         23.2260   29.1960   -2.0880 C.2    57  THR57       0.2313
     38  O         23.6630   29.6430   -3.1270 O.2    57  THR57      -0.2863
     39  CB        23.4930   26.6750   -1.8130 C.3    57  THR57       0.1794
     40  OG1       24.4470   25.7420   -1.2920 O.3    57  THR57      -0.2208
     41  CG2       23.3570   26.5300   -3.2830 C.3    57  THR57       0.0378
     42  N         29.4010   19.4290   -6.1220 N.3   130  ASP130     -0.1239
     43  CA        29.7050   18.9520   -4.7540 C.3   130  ASP130      0.1674
     44  C         29.4240   17.4640   -4.7280 C.2   130  ASP130      0.2266
     45  O         28.2750   17.0240   -4.6120 O.2   130  ASP130     -0.2867
     46  CB        28.8310   19.6970   -3.7470 C.3   130  ASP130      0.1410
     47  CG        29.1420   19.3890   -2.3070 C.2   130  ASP130      0.3668
     48  OD1       29.6430   18.3330   -2.0010 O.co2 130  ASP130     -0.2456
     49  OD2       28.7910   20.2590   -1.4320 O.co2 130  ASP130     -0.2456
     50  N         33.6180   21.0190   -4.7980 N.3   155  GLU155     -0.1245
     51  CA        33.5150   21.3940   -3.3980 C.3   155  GLU155      0.1567
     52  C         34.1730   20.4470   -2.3870 C.2   155  GLU155      0.2260
     53  O         34.6950   20.8810   -1.3760 O.2   155  GLU155     -0.2867
     54  CB        32.0580   21.4820   -3.0290 C.3   155  GLU155      0.0388
     55  CG        31.7350   22.0200   -1.6440 C.3   155  GLU155      0.1160
     56  CD        31.9170   23.4850   -1.3820 C.2   155  GLU155      0.3649
     57  OE1       32.2370   24.2120   -2.3090 O.co2 155  GLU155     -0.2457
     58  OE2       31.7110   23.8860   -0.1990 O.co2 155  GLU155     -0.2457
     59  N         35.1600   24.4210    6.9520 N.3   189  ASP189     -0.1239
     60  CA        33.9460   23.6790    6.6500 C.3   189  ASP189      0.1674
     61  C         33.9830   22.2090    7.1280 C.2   189  ASP189      0.2266
     62  O         33.1810   21.7990    7.9540 O.2   189  ASP189     -0.2867
     63  CB        33.7470   23.8350    5.1440 C.3   189  ASP189      0.1410
     64  CG        32.6860   22.9420    4.4670 C.2   189  ASP189      0.3668
     65  OD1       32.5080   21.7570    4.8440 O.co2 189  ASP189     -0.2456
     66  OD2       32.1370   23.4960    3.4300 O.co2 189  ASP189     -0.2456
     67  N         23.9170   15.8670    8.8180 N.3   366  ASN366     -0.1225
     68  CA        23.8560   17.2850    9.1490 C.3   366  ASN366      0.1785
     69  C         22.8500   18.0610    8.2840 C.2   366  ASN366      0.2597
     70  O         22.0930   18.9040    8.7850 O.2   366  ASN366     -0.2718
     71  CB        25.2170   17.9580    9.1630 C.3   366  ASN366      0.1169
     72  CG        25.9830   17.8780    7.8570 C.2   366  ASN366      0.2627
     73  OD1       25.8260   16.9140    7.0580 O.2   366  ASN366     -0.2716
     74  ND2       26.8210   18.8670    7.6340 N.am  366  ASN366     -0.0877
     75  N         22.8610   17.7560    6.9990 N.am  367  LEU367     -0.1980
     76  CA        21.9430   18.3460    6.0450 C.3   367  LEU367      0.1596
     77  C         20.5720   17.6770    6.0310 C.2   367  LEU367      0.2287
     78  O         19.5680   18.3000    5.7200 O.2   367  LEU367     -0.2864
     79  CB        22.6000   18.3090    4.6520 C.3   367  LEU367      0.0297
     80  CG        23.7260   19.3730    4.5230 C.3   367  LEU367      0.0022
     81  CD1       24.8460   18.9250    3.6730 C.3   367  LEU367      0.0001
     82  CD2       23.1910   20.7100    4.1240 C.3   367  LEU367      0.0001
     83  N         20.3500   21.6560    9.1480 N.3   371  THR371     -0.1203
     84  CA        20.4760   22.5960    8.0550 C.3   371  THR371      0.1994
     85  C         21.9010   22.6820    7.5380 C.2   371  THR371      0.2618
     86  O         22.2540   23.6100    6.8380 O.2   371  THR371     -0.2717
     87  CB        19.9820   24.0010    8.4180 C.3   371  THR371      0.1784
     88  OG1       20.9150   24.5610    9.3810 O.3   371  THR371     -0.2211
     89  CG2       18.5730   23.9950    8.9540 C.3   371  THR371      0.0376
     90  N         22.7010   21.6330    7.8230 N.am  372  GLY372     -0.1942
     91  CA        24.0950   21.6820    7.4540 C.3   372  GLY372      0.2014
     92  C         24.8710   22.7580    8.2110 C.2   372  GLY372      0.2638
     93  O         24.4940   23.2330    9.2760 O.2   372  GLY372     -0.2714
     94  N         26.0060   23.1240    7.6220 N.am  373  HIS373     -0.1973
     95  CA        26.9110   24.0490    8.2520 C.3   373  HIS373      0.1656
     96  C         26.3060   25.4570    8.3030 C.2   373  HIS373      0.2291
     97  O         25.5180   25.8170    7.4220 O.2   373  HIS373     -0.2864
     98  CB        28.2080   24.1370    7.4810 C.3   373  HIS373      0.0771
     99  CG        28.9830   22.8750    7.3790 C.ar  373  HIS373      0.0820
    100  ND1       28.6900   21.7070    8.0510 N.ar  373  HIS373     -0.2267
    101  CD2       30.0670   22.6190    6.6320 C.ar  373  HIS373      0.1154
    102  CE1       29.5750   20.7920    7.7310 C.ar  373  HIS373      0.1986
    103  NE2       30.4090   21.3180    6.8670 N.ar  373  HIS373     -0.2212
    104  N         30.2320   28.5000    5.9250 N.3   378  MET378     -0.1245
    105  CA        30.0720   28.3440    4.4680 C.3   378  MET378      0.1570
    106  C         30.6120   29.5250    3.6810 C.2   378  MET378      0.2261
    107  O         30.9640   29.3820    2.5130 O.2   378  MET378     -0.2867
    108  CB        28.6440   28.0060    4.0770 C.3   378  MET378      0.0387
    109  CG        28.1320   26.6770    4.5950 C.3   378  MET378      0.0595
    110  SD        29.2430   25.2770    4.2590 S.3   378  MET378     -0.1393
    111  CE        29.2330   25.2770    2.4690 C.3   378  MET378      0.0692
    112  N         32.4520   29.1100    0.0910 N.3   382  PHE382     -0.1241
    113  CA        31.7960   29.6910   -1.0520 C.3   382  PHE382      0.1605
    114  C         32.5250   30.8790   -1.6380 C.2   382  PHE382      0.2264
    115  O         32.4690   31.0990   -2.8450 O.2   382  PHE382     -0.2867
    116  CB        30.3520   29.9480   -0.7230 C.3   382  PHE382      0.0534
    117  CG        29.5070   28.6620   -0.6140 C.ar  382  PHE382     -0.0203
    118  CD1       30.0040   27.4130   -0.9790 C.ar  382  PHE382     -0.0042
    119  CD2       28.1940   28.7230   -0.1030 C.ar  382  PHE382     -0.0042
    120  CE1       29.2050   26.3250   -0.9430 C.ar  382  PHE382     -0.0003
    121  CE2       27.3790   27.6140   -0.0800 C.ar  382  PHE382     -0.0003
    122  CZ        27.8870   26.3870   -0.5070 C.ar  382  PHE382     -0.0000
@<TRIPOS>BOND
     1    42    43    1
     2     1     2    1
     3    50    51    1
     4    43    44    1
     5    43    46    1
     6    44    45    2
     7     7     5    1
     8     2     5    1
     9     2     3    1
    10     5     6    1
    11     4     3    2
    12    46    47    1
    13     3     9   am
    14    51    54    1
    15    51    52    1
    16    41    39    1
    17    38    37    2
    18    54    55    1
    19   115   114    2
    20     6     8    1
    21     9    10    1
    22    52    53    2
    23    57    56   ar
    24    47    48   ar
    25    47    49   ar
    26    37    36    1
    27    39    36    1
    28    39    40    1
    29    55    56    1
    30   114   113    1
    31    11    10    1
    32    11    12    2
    33    10    13    1
    34    56    58   ar
    35    36    35    1
    36   113   116    1
    37   113   112    1
    38   118   120   ar
    39   118   117   ar
    40   120   122   ar
    41   116   117    1
    42   117   119   ar
    43   122   121   ar
    44   119   121   ar
    45    13    14    1
    46    15    14   ar
    47    15    17   ar
    48    19    20    1
    49    35    28   am
    50    14    16   ar
    51    29    28    2
    52    22    21    2
    53    17    18   ar
    54    16    18   ar
    55    28    27    1
    56    21    20    1
    57    20    23    1
    58    24    23    1
    59    27    26    1
    60    27    30    1
    61    23    25    1
    62   111   110    1
    63   107   106    2
    64    30    31    1
    65    66    64   ar
    66    81    80    1
    67   106   105    1
    68   108   105    1
    69   108   109    1
    70    82    80    1
    71   110   109    1
    72    64    65   ar
    73    64    63    1
    74   105   104    1
    75    31    32    1
    76    80    79    1
    77    79    76    1
    78    33    32    2
    79    32    34   am
    80    63    60    1
    81    78    77    2
    82    77    76    1
    83    76    75    1
    84   101   103   ar
    85   101    99   ar
    86    60    59    1
    87    60    61    1
    88    86    85    2
    89   103   102   ar
    90    75    69   am
    91    73    72    2
    92    61    62    2
    93    99    98    1
    94    99   100   ar
    95    97    96    2
    96    91    90    1
    97    91    92    1
    98    98    95    1
    99    85    90   am
   100    85    84    1
   101    94    92   am
   102    94    95    1
   103    74    72   am
   104   102   100   ar
   105    72    71    1
   106    84    87    1
   107    84    83    1
   108    92    93    2
   109    95    96    1
   110    69    70    2
   111    69    68    1
   112    87    89    1
   113    87    88    1
   114    67    68    1
   115    68    71    1
