@<TRIPOS>MOLECULE
tmp/6f3rA01.pdb
 238 228 0 0 0
SMALL
GASTEIGER

@<TRIPOS>ATOM
      1  N         33.0390   20.2000   39.3870 N.3    77  GLU77      -0.1245
      2  CA        31.6760   20.6670   39.0260 C.3    77  GLU77       0.1567
      3  C         30.7620   19.5330   38.6990 C.2    77  GLU77       0.2260
      4  O         31.1500   18.5910   37.9680 O.2    77  GLU77      -0.2867
      5  CB        31.8000   21.6140   37.8080 C.3    77  GLU77       0.0388
      6  CG        32.6470   22.8560   38.0440 C.3    77  GLU77       0.1160
      7  CD        32.6010   23.8620   36.8930 C.2    77  GLU77       0.3649
      8  OE1       31.6450   23.8190   36.0730 O.co2  77  GLU77      -0.2457
      9  OE2       33.4730   24.7230   36.8590 O.co2  77  GLU77      -0.2457
     10  N         29.4560   25.6000   36.0470 N.3   122  ASN122     -0.1240
     11  CA        29.4380   26.8210   35.2540 C.3   122  ASN122      0.1653
     12  C         28.6810   26.6760   33.9180 C.2   122  ASN122      0.2266
     13  O         28.1030   27.6500   33.4410 O.2   122  ASN122     -0.2867
     14  CB        30.8370   27.1660   34.9190 C.3   122  ASN122      0.1155
     15  CG        31.5030   27.9960   36.0100 C.2   122  ASN122      0.2627
     16  OD1       31.1300   29.1530   36.1970 O.2   122  ASN122     -0.2716
     17  ND2       32.4760   27.3990   36.7370 N.am  122  ASN122     -0.0877
     18  N         28.9630   23.7670   30.3740 N.3   124  GLY124     -0.1210
     19  CA        29.0330   22.5060   29.6920 C.3   124  GLY124      0.1956
     20  C         29.8260   21.3720   30.3830 C.2   124  GLY124      0.2611
     21  O         29.4050   20.2490   30.3870 O.2   124  GLY124     -0.2717
     22  N         30.9710   21.7100   30.9510 N.am  125  LEU125     -0.1979
     23  CA        31.8470   20.7560   31.6480 C.3   125  LEU125      0.1596
     24  C         31.1030   20.1890   32.8710 C.2   125  LEU125      0.2287
     25  O         31.0810   18.9870   33.0730 O.2   125  LEU125     -0.2864
     26  CB        33.1510   21.4280   31.9790 C.3   125  LEU125      0.0297
     27  CG        34.1790   20.5310   32.7470 C.3   125  LEU125      0.0022
     28  CD1       35.5970   20.9670   32.4940 C.3   125  LEU125      0.0001
     29  CD2       33.9070   20.7200   34.1980 C.3   125  LEU125      0.0001
     30  N         28.1560   18.0610   31.7020 N.3   128  LEU128     -0.1245
     31  CA        28.6060   16.7880   31.1490 C.3   128  LEU128      0.1561
     32  C         28.8070   15.7720   32.2570 C.2   128  LEU128      0.2260
     33  O         28.4200   14.6390   32.1430 O.2   128  LEU128     -0.2867
     34  CB        29.9340   16.9140   30.4140 C.3   128  LEU128      0.0270
     35  CG        30.4380   15.6470   29.6890 C.3   128  LEU128      0.0019
     36  CD1       29.6840   15.4090   28.4010 C.3   128  LEU128      0.0001
     37  CD2       31.9060   15.7910   29.3880 C.3   128  LEU128      0.0001
     38  N         33.9670   28.9910   41.8990 N.3   263  TYR263     -0.1241
     39  CA        34.5940   30.0120   41.0340 C.3   263  TYR263      0.1605
     40  C         33.8120   30.0160   39.6740 C.2   263  TYR263      0.2264
     41  O         33.7000   28.9720   39.0190 O.2   263  TYR263     -0.2867
     42  CB        36.0510   29.7240   40.7890 C.3   263  TYR263      0.0534
     43  CG        36.9200   30.2690   41.8560 C.ar  263  TYR263     -0.0201
     44  CD1       37.0850   29.6020   43.0200 C.ar  263  TYR263     -0.0009
     45  CD2       37.5180   31.5160   41.7220 C.ar  263  TYR263     -0.0009
     46  CE1       37.8980   30.1030   44.0410 C.ar  263  TYR263      0.0417
     47  CE2       38.2920   32.0410   42.7420 C.ar  263  TYR263      0.0417
     48  CZ        38.4670   31.3170   43.8940 C.ar  263  TYR263      0.1957
     49  OH        39.2320   31.8030   44.9030 O.3   263  TYR263     -0.2866
     50  N         34.1110   30.9240   36.5180 N.3   265  ASN265     -0.1225
     51  CA        34.7790   31.0840   35.2280 C.3   265  ASN265      0.1785
     52  C         34.3430   29.9560   34.3100 C.2   265  ASN265      0.2597
     53  O         33.9810   28.8610   34.7400 O.2   265  ASN265     -0.2718
     54  CB        36.2960   31.0960   35.4270 C.3   265  ASN265      0.1169
     55  CG        36.7140   32.2610   36.2700 C.2   265  ASN265      0.2627
     56  OD1       36.0770   33.3120   36.1590 O.2   265  ASN265     -0.2716
     57  ND2       37.6730   32.0730   37.1890 N.am  265  ASN265     -0.0877
     58  N         34.3020   30.2300   33.0570 N.am  266  ASP266     -0.1960
     59  CA        34.1230   29.1880   32.0980 C.3   266  ASP266      0.1840
     60  C         35.2250   29.4710   31.1070 C.2   266  ASP266      0.2622
     61  O         35.2940   30.5640   30.5700 O.2   266  ASP266     -0.2715
     62  CB        32.7300   29.3450   31.4770 C.3   266  ASP266      0.1450
     63  CG        32.4000   28.2110   30.5400 C.2   266  ASP266      0.3671
     64  OD1       33.0430   28.1470   29.4770 O.co2 266  ASP266     -0.2456
     65  OD2       31.5290   27.3750   30.8800 O.co2 266  ASP266     -0.2456
     66  N         36.1110   28.4960   30.8830 N.am  267  ASN267     -0.1958
     67  CA        37.2030   28.6170   29.9230 C.3   267  ASN267      0.1819
     68  C         38.1740   29.7630   30.2080 C.2   267  ASN267      0.2621
     69  O         38.6250   30.4250   29.2930 O.2   267  ASN267     -0.2715
     70  CB        36.6640   28.7330   28.4790 C.3   267  ASN267      0.1195
     71  CG        36.4010   27.4090   27.8540 C.2   267  ASN267      0.2630
     72  OD1       37.2940   26.8340   27.2520 O.2   267  ASN267     -0.2716
     73  ND2       35.2030   26.8860   28.0490 N.am  267  ASN267     -0.0877
     74  N         38.4550   29.9870   31.4980 N.am  268  PHE268     -0.1960
     75  CA        39.3590   31.0550   31.9330 C.3   268  PHE268      0.1771
     76  C         40.0330   30.6500   33.2730 C.2   268  PHE268      0.2620
     77  O         39.3230   30.3180   34.2320 O.2   268  PHE268     -0.2715
     78  CB        38.6330   32.4030   32.0550 C.3   268  PHE268      0.0574
     79  CG        39.5960   33.5330   32.3560 C.ar  268  PHE268     -0.0200
     80  CD1       40.5150   33.9600   31.3800 C.ar  268  PHE268     -0.0042
     81  CD2       39.6600   34.1110   33.6300 C.ar  268  PHE268     -0.0042
     82  CE1       41.4820   34.9460   31.6750 C.ar  268  PHE268     -0.0003
     83  CE2       40.6200   35.1140   33.9270 C.ar  268  PHE268     -0.0003
     84  CZ        41.5300   35.5210   32.9520 C.ar  268  PHE268     -0.0000
     85  N         41.3660   30.6150   33.3070 N.am  269  PHE269     -0.1960
     86  CA        42.0960   30.1950   34.4750 C.3   269  PHE269      0.1771
     87  C         42.5980   31.4370   35.2300 C.2   269  PHE269      0.2619
     88  O         43.2690   32.3020   34.6420 O.2   269  PHE269     -0.2715
     89  CB        43.3350   29.3640   34.0740 C.3   269  PHE269      0.0574
     90  CG        44.3050   29.1040   35.2360 C.ar  269  PHE269     -0.0200
     91  CD1       43.9150   28.2800   36.2960 C.ar  269  PHE269     -0.0042
     92  CD2       45.5600   29.6960   35.2760 C.ar  269  PHE269     -0.0042
     93  CE1       44.7970   28.0470   37.3680 C.ar  269  PHE269     -0.0003
     94  CE2       46.4300   29.4520   36.3180 C.ar  269  PHE269     -0.0003
     95  CZ        46.0320   28.6250   37.3640 C.ar  269  PHE269     -0.0000
     96  N         42.3980   31.4540   36.5390 N.am  270  GLU270     -0.1977
     97  CA        43.1990   32.4070   37.3940 C.3   270  GLU270      0.1602
     98  C         43.8990   31.6660   38.5340 C.2   270  GLU270      0.2287
     99  O         43.2900   30.8530   39.2020 O.2   270  GLU270     -0.2864
    100  CB        42.3300   33.5050   38.0340 C.3   270  GLU270      0.0415
    101  CG        40.9210   33.6890   37.5160 C.3   270  GLU270      0.1163
    102  CD        40.1430   34.6840   38.3610 C.2   270  GLU270      0.3649
    103  OE1       40.5840   35.8570   38.4480 O.co2 270  GLU270     -0.2457
    104  OE2       39.1340   34.2590   38.9670 O.co2 270  GLU270     -0.2457
    105  N         41.3010   28.6310   45.0790 N.3   275  ARG275     -0.1245
    106  CA        40.9780   27.6360   44.1060 C.3   275  ARG275      0.1563
    107  C         41.9230   26.4360   44.1580 C.2   275  ARG275      0.2260
    108  O         41.4850   25.2970   44.0640 O.2   275  ARG275     -0.2867
    109  CB        40.9930   28.2580   42.7260 C.3   275  ARG275      0.0307
    110  CG        40.8220   27.3380   41.5630 C.3   275  ARG275      0.0489
    111  CD        39.4400   26.7010   41.4750 C.3   275  ARG275      0.2205
    112  NE        39.4630   25.9110   40.2760 N.pl3 275  ARG275     -0.0865
    113  CZ        38.4370   25.2650   39.7310 C.cat 275  ARG275      0.5346
    114  NH1       37.2310   25.3700   40.2500 N.pl3 275  ARG275      0.1354
    115  NH2       38.6400   24.6200   38.5860 N.pl3 275  ARG275      0.1354
    116  N         39.1030   17.1440   33.1910 N.3   313  ASP313     -0.1239
    117  CA        40.0840   18.1880   32.9560 C.3   313  ASP313      0.1674
    118  C         41.2070   18.1150   33.9900 C.2   313  ASP313      0.2266
    119  O         41.3310   17.1370   34.6980 O.2   313  ASP313     -0.2867
    120  CB        39.4910   19.6130   32.8340 C.3   313  ASP313      0.1410
    121  CG        40.2250   20.4140   31.7450 C.2   313  ASP313      0.3668
    122  OD1       40.0270   20.2410   30.5080 O.co2 313  ASP313     -0.2456
    123  OD2       41.1390   21.1220   32.1450 O.co2 313  ASP313     -0.2456
    124  N         41.5110   19.9530   36.5710 N.3   315  HIS315     -0.1241
    125  CA        41.1240   20.5450   37.8810 C.3   315  HIS315      0.1621
    126  C         41.4390   19.6100   39.0760 C.2   315  HIS315      0.2264
    127  O         41.9080   20.0930   40.1180 O.2   315  HIS315     -0.2867
    128  CB        39.6740   21.0460   37.8710 C.3   315  HIS315      0.0745
    129  CG        39.3490   21.9010   36.6870 C.ar  315  HIS315      0.0817
    130  ND1       38.0570   22.0650   36.2400 N.ar  315  HIS315     -0.2268
    131  CD2       40.1450   22.5810   35.8100 C.ar  315  HIS315      0.1154
    132  CE1       38.0710   22.8050   35.1380 C.ar  315  HIS315      0.1986
    133  NE2       39.3230   23.1590   34.8740 N.ar  315  HIS315     -0.2212
    134  N         39.3170   19.2840   27.8470 N.3   351  HIS351     -0.1226
    135  CA        38.1140   19.9600   27.3700 C.3   351  HIS351      0.1752
    136  C         38.3480   21.3170   26.7010 C.2   351  HIS351      0.2596
    137  O         37.3990   22.0720   26.5040 O.2   351  HIS351     -0.2718
    138  CB        37.1260   20.1840   28.5180 C.3   351  HIS351      0.0759
    139  CG        36.6550   18.9510   29.2070 C.ar  351  HIS351      0.0818
    140  ND1       35.4420   18.3830   28.9590 N.ar  351  HIS351     -0.2268
    141  CD2       37.2330   18.2230   30.1990 C.ar  351  HIS351      0.1154
    142  CE1       35.2860   17.3490   29.7700 C.ar  351  HIS351      0.1986
    143  NE2       36.3690   17.2260   30.5220 N.ar  351  HIS351     -0.2212
    144  N         39.5650   21.6940   26.3950 N.am  352  THR352     -0.1953
    145  CA        39.6960   23.0100   25.7950 C.3   352  THR352      0.1897
    146  C         41.0740   23.1310   25.2330 C.2   352  THR352      0.2313
    147  O         41.9740   22.5310   25.7600 O.2   352  THR352     -0.2863
    148  CB        39.4310   24.1860   26.7750 C.3   352  THR352      0.1794
    149  OG1       39.4450   25.4460   26.0410 O.3   352  THR352     -0.2208
    150  CG2       40.4340   24.1380   27.9470 C.3   352  THR352      0.0378
    151  N         42.6220   29.2140   29.2260 N.3   357  ALA357     -0.1245
    152  CA        41.8420   28.2710   30.0610 C.3   357  ALA357      0.1562
    153  C         42.7130   27.1710   30.7200 C.2   357  ALA357      0.2260
    154  O         42.2680   26.5010   31.6830 O.2   357  ALA357     -0.2867
    155  CB        40.7450   27.6620   29.2210 C.3   357  ALA357      0.0290
    156  N         45.4270   25.3170   33.0260 N.3   359  GLU359     -0.1245
    157  CA        45.9410   25.5870   34.3610 C.3   359  GLU359      0.1567
    158  C         47.4120   25.5080   34.3920 C.2   359  GLU359      0.2260
    159  O         48.0170   24.4570   34.1080 O.2   359  GLU359     -0.2867
    160  CB        45.3440   24.6320   35.4060 C.3   359  GLU359      0.0388
    161  CG        43.8480   24.6920   35.5030 C.3   359  GLU359      0.1160
    162  CD        43.4150   23.9460   36.7630 C.2   359  GLU359      0.3649
    163  OE1       43.5360   22.7270   36.7380 O.co2 359  GLU359     -0.2457
    164  OE2       43.0870   24.5720   37.7900 O.co2 359  GLU359     -0.2457
    165  N         37.0900   15.4740   23.2830 N.3   429  VAL429     -0.1245
    166  CA        35.6460   15.3860   23.5200 C.3   429  VAL429      0.1561
    167  C         34.8010   15.5040   22.2640 C.2   429  VAL429      0.2260
    168  O         33.5770   15.4600   22.3320 O.2   429  VAL429     -0.2867
    169  CB        35.2390   16.3620   24.6270 C.3   429  VAL429      0.0252
    170  CG1       35.7940   15.8880   25.9970 C.3   429  VAL429      0.0019
    171  CG2       35.6830   17.7830   24.3490 C.3   429  VAL429      0.0019
    172  N         31.4450   13.6860   23.0900 N.3   458  ASN458     -0.1240
    173  CA        30.4660   13.9380   24.1140 C.3   458  ASN458      0.1653
    174  C         29.0490   13.4950   23.7460 C.2   458  ASN458      0.2266
    175  O         28.7160   13.1750   22.6020 O.2   458  ASN458     -0.2867
    176  CB        30.4680   15.4300   24.4590 C.3   458  ASN458      0.1155
    177  CG        31.6130   15.8410   25.3960 C.2   458  ASN458      0.2627
    178  OD1       32.3310   14.9840   25.9500 O.2   458  ASN458     -0.2716
    179  ND2       31.7840   17.1780   25.5600 N.am  458  ASN458     -0.0877
    180  N         34.6670   33.7610   22.1770 N.3   547  TYR547     -0.1227
    181  CA        34.8200   32.6690   21.2230 C.3   547  TYR547      0.1736
    182  C         33.5070   32.1200   20.7330 C.2   547  TYR547      0.2595
    183  O         33.4600   31.5870   19.6160 O.2   547  TYR547     -0.2718
    184  CB        35.7550   31.5290   21.7150 C.3   547  TYR547      0.0548
    185  CG        35.1440   30.4290   22.5140 C.ar  547  TYR547     -0.0200
    186  CD1       34.5510   29.3530   21.9120 C.ar  547  TYR547     -0.0009
    187  CD2       35.2290   30.4180   23.9080 C.ar  547  TYR547     -0.0009
    188  CE1       34.0430   28.3030   22.6550 C.ar  547  TYR547      0.0417
    189  CE2       34.7010   29.4110   24.6570 C.ar  547  TYR547      0.0417
    190  CZ        34.1320   28.3240   24.0730 C.ar  547  TYR547      0.1957
    191  OH        33.5720   27.2790   24.8530 O.3   547  TYR547     -0.2866
    192  N         32.4410   32.2610   21.5300 N.am  548  LYS548     -0.1980
    193  CA        31.1330   31.7110   21.1720 C.3   548  LYS548      0.1596
    194  C         30.3680   32.6520   20.2030 C.2   548  LYS548      0.2287
    195  O         29.3570   32.2690   19.5930 O.2   548  LYS548     -0.2864
    196  CB        30.3040   31.4630   22.4360 C.3   548  LYS548      0.0298
    197  CG        30.9020   30.2720   23.2640 C.3   548  LYS548      0.0038
    198  CD        30.1640   30.0070   24.5680 C.3   548  LYS548      0.0206
    199  CE        30.6830   28.8930   25.4750 C.3   548  LYS548      0.1093
    200  NZ        30.3760   27.5040   24.9510 N.3   548  LYS548     -0.1314
    201  N         37.5160   26.3140   18.1910 N.3   645  THR645     -0.1203
    202  CA        37.4630   26.8690   19.5580 C.3   645  THR645      0.1994
    203  C         36.5450   26.1570   20.4940 C.2   645  THR645      0.2618
    204  O         36.8020   26.1430   21.6630 O.2   645  THR645     -0.2717
    205  CB        37.1670   28.4040   19.5520 C.3   645  THR645      0.1784
    206  OG1       35.8810   28.6710   18.9800 O.3   645  THR645     -0.2211
    207  CG2       38.1990   29.1140   18.7760 C.3   645  THR645      0.0376
    208  N         35.4070   25.6410   20.0140 N.am  646  GLU646     -0.1965
    209  CA        34.4630   24.9480   20.8830 C.3   646  GLU646      0.1733
    210  C         34.8540   23.4840   20.8600 C.2   646  GLU646      0.2616
    211  O         34.6710   22.8590   19.8780 O.2   646  GLU646     -0.2715
    212  CB        33.0360   25.2010   20.4200 C.3   646  GLU646      0.0429
    213  CG        31.9560   24.6410   21.3330 C.3   646  GLU646      0.1163
    214  CD        31.7610   25.5170   22.5620 C.2   646  GLU646      0.3649
    215  OE1       31.0450   26.5590   22.4830 O.co2 646  GLU646     -0.2457
    216  OE2       32.4610   25.2400   23.5700 O.co2 646  GLU646     -0.2457
    217  N         35.4550   22.9510   21.9310 N.am  647  ALA647     -0.1963
    218  CA        35.9860   21.6160   21.9180 C.3   647  ALA647      0.1728
    219  C         34.9310   20.5830   21.4870 C.2   647  ALA647      0.2617
    220  O         35.2280   19.7550   20.6320 O.2   647  ALA647     -0.2715
    221  CB        36.6170   21.2520   23.2720 C.3   647  ALA647      0.0334
    222  N         33.6990   20.7010   22.0030 N.am  648  SER648     -0.1936
    223  CA        32.6140   19.8870   21.5690 C.3   648  SER648      0.2055
    224  C         31.3390   20.7040   21.4330 C.2   648  SER648      0.2644
    225  O         30.7800   20.7930   20.3250 O.2   648  SER648     -0.2714
    226  CB        32.3850   18.6760   22.4910 C.3   648  SER648      0.2130
    227  OG        31.1810   18.0150   22.1700 O.3   648  SER648     -0.2179
    228  N         30.8790   21.2370   22.5560 N.am  649  GLY649     -0.1939
    229  CA        29.5650   21.7210   22.6940 C.3   649  GLY649      0.2014
    230  C         28.6840   20.5560   23.1120 C.2   649  GLY649      0.2639
    231  O         28.9530   19.3960   22.7490 O.2   649  GLY649     -0.2714
    232  N         27.6480   20.8650   23.8980 N.am  650  THR650     -0.1950
    233  CA        26.6070   19.9120   24.2290 C.3   650  THR650      0.1897
    234  C         25.1980   20.5170   24.1130 C.2   650  THR650      0.2313
    235  O         24.2160   19.7860   23.8160 O.2   650  THR650     -0.2863
    236  CB        26.7810   19.3160   25.6620 C.3   650  THR650      0.1794
    237  OG1       26.8760   20.4060   26.5690 O.3   650  THR650     -0.2208
    238  CG2       27.9890   18.4670   25.7250 C.3   650  THR650      0.0378
@<TRIPOS>BOND
     1   201   202    1
     2   207   205    1
     3   206   205    1
     4   205   202    1
     5   202   203    1
     6   195   194    2
     7   183   182    2
     8   211   210    2
     9   208   203   am
    10   208   209    1
    11   194   193    1
    12   225   224    2
    13   212   209    1
    14   212   213    1
    15   203   204    2
    16   220   219    2
    17   182   181    1
    18   182   192   am
    19   210   209    1
    20   210   217   am
    21   193   192    1
    22   193   196    1
    23   181   184    1
    24   181   180    1
    25   213   214    1
    26   224   223    1
    27   224   228   am
    28   219   218    1
    29   219   222   am
    30   223   222    1
    31   223   226    1
    32   184   185    1
    33   186   185   ar
    34   186   188   ar
    35   218   217    1
    36   218   221    1
    37   227   226    1
    38   167   168    2
    39   167   166    1
    40   196   197    1
    41   215   214   ar
    42   185   187   ar
    43   228   229    1
    44   214   216   ar
    45   175   174    2
    46   188   190   ar
    47   229   230    1
    48   231   230    2
    49   172   173    1
    50   230   232   am
    51   197   198    1
    52   165   166    1
    53   166   169    1
    54   174   173    1
    55   235   234    2
    56   232   233    1
    57   187   189   ar
    58   190   189   ar
    59   190   191    1
    60   234   233    1
    61   173   176    1
    62   233   236    1
    63   171   169    1
    64   176   177    1
    65   198   199    1
    66   169   170    1
    67   200   199    1
    68   146   147    2
    69   146   145    1
    70   177   179   am
    71   177   178    2
    72   236   238    1
    73   236   237    1
    74   145   144    1
    75   145   148    1
    76   149   148    1
    77   144   136   am
    78   137   136    2
    79   136   135    1
    80   148   150    1
    81    72    71    2
    82   135   134    1
    83   135   138    1
    84    71    73   am
    85    71    70    1
    86    36    35    1
    87    70    67    1
    88   138   139    1
    89   140   139   ar
    90   140   142   ar
    91   139   141   ar
    92   155   152    1
    93   151   152    1
    94    69    68    2
    95    37    35    1
    96    64    63   ar
    97    35    34    1
    98    19    18    1
    99    19    20    1
   100   142   143   ar
   101    67    68    1
   102    67    66    1
   103   152   153    1
   104   141   143   ar
   105    68    74   am
   106    20    21    2
   107    20    22   am
   108    34    31    1
   109   122   121   ar
   110    63    65   ar
   111    63    62    1
   112    61    60    2
   113   153   154    2
   114    66    60   am
   115    22    23    1
   116    60    59    1
   117    31    30    1
   118    31    32    1
   119    80    82   ar
   120    80    79   ar
   121    62    59    1
   122    74    75    1
   123    23    26    1
   124    23    24    1
   125    82    84   ar
   126   121   123   ar
   127   121   120    1
   128    75    78    1
   129    75    76    1
   130    26    27    1
   131    78    79    1
   132    59    58    1
   133    33    32    2
   134    79    81   ar
   135    28    27    1
   136    27    29    1
   137   120   117    1
   138    24    25    2
   139    84    83   ar
   140   117   116    1
   141   117   118    1
   142   156   157    1
   143    58    52   am
   144    76    85   am
   145    76    77    2
   146    85    86    1
   147    13    12    2
   148    81    83   ar
   149    12    11    1
   150   118   119    2
   151    89    86    1
   152    89    90    1
   153   159   158    2
   154    52    53    2
   155    52    51    1
   156   157   158    1
   157   157   160    1
   158    86    87    1
   159    88    87    2
   160   133   132   ar
   161   133   131   ar
   162    14    11    1
   163    14    15    1
   164   132   130   ar
   165    51    54    1
   166    51    50    1
   167    87    96   am
   168    90    92   ar
   169    90    91   ar
   170    11    10    1
   171    92    94   ar
   172   160   161    1
   173    54    55    1
   174   161   162    1
   175   131   129   ar
   176    15    16    2
   177    15    17   am
   178     8     7   ar
   179    56    55    2
   180   130   129   ar
   181    55    57   am
   182    91    93   ar
   183    94    95   ar
   184    96    97    1
   185   124   125    1
   186   129   128    1
   187   163   162   ar
   188   162   164   ar
   189     9     7   ar
   190     7     6    1
   191    95    93   ar
   192    97   100    1
   193    97    98    1
   194   101   100    1
   195   101   102    1
   196     5     6    1
   197     5     2    1
   198   128   125    1
   199   125   126    1
   200     4     3    2
   201   102   103   ar
   202   102   104   ar
   203    98    99    2
   204   115   113    1
   205     3     2    1
   206    41    40    2
   207     2     1    1
   208   126   127    2
   209    40    39    1
   210   113   114    1
   211   113   112    2
   212   112   111    1
   213    42    39    1
   214    42    43    1
   215    39    38    1
   216   111   110    1
   217   110   109    1
   218    45    43   ar
   219    45    47   ar
   220    43    44   ar
   221   109   106    1
   222    47    48   ar
   223    44    46   ar
   224    48    46   ar
   225    48    49    1
   226   108   107    2
   227   106   107    1
   228   106   105    1
