@<TRIPOS>MOLECULE
tmp/6f3uA02.pdb
 210 200 0 0 0
SMALL
GASTEIGER

@<TRIPOS>ATOM
      1  N         32.9370   20.2570   39.4750 N.3    77  GLU77      -0.1245
      2  CA        31.5910   20.7200   39.1320 C.3    77  GLU77       0.1567
      3  C         30.6750   19.5590   38.8090 C.2    77  GLU77       0.2260
      4  O         31.0690   18.6170   38.0760 O.2    77  GLU77      -0.2867
      5  CB        31.6300   21.6980   37.9380 C.3    77  GLU77       0.0388
      6  CG        32.6080   22.8580   38.1250 C.3    77  GLU77       0.1160
      7  CD        32.4970   23.9410   37.0670 C.2    77  GLU77       0.3649
      8  OE1       31.5480   23.9230   36.2510 O.co2  77  GLU77      -0.2457
      9  OE2       33.3710   24.8280   37.0380 O.co2  77  GLU77      -0.2457
     10  N         29.3520   25.6560   36.1610 N.3   122  ASN122     -0.1240
     11  CA        29.3310   26.8660   35.3530 C.3   122  ASN122      0.1653
     12  C         28.5130   26.7130   34.0660 C.2   122  ASN122      0.2266
     13  O         27.8000   27.6300   33.6630 O.2   122  ASN122     -0.2867
     14  CB        30.7650   27.2600   35.0040 C.3   122  ASN122      0.1155
     15  CG        31.4100   28.0900   36.0950 C.2   122  ASN122      0.2627
     16  OD1       31.0290   29.2460   36.2830 O.2   122  ASN122     -0.2716
     17  ND2       32.3450   27.4910   36.8530 N.am  122  ASN122     -0.0877
     18  N         28.8500   23.7950   30.4620 N.3   124  GLY124     -0.1210
     19  CA        28.9420   22.5250   29.7450 C.3   124  GLY124      0.1956
     20  C         29.7100   21.4240   30.4620 C.2   124  GLY124      0.2611
     21  O         29.2910   20.2720   30.4830 O.2   124  GLY124     -0.2717
     22  N         30.8310   21.7750   31.0650 N.am  125  LEU125     -0.1979
     23  CA        31.6670   20.7820   31.7560 C.3   125  LEU125      0.1596
     24  C         30.9530   20.1900   32.9880 C.2   125  LEU125      0.2287
     25  O         30.9350   18.9580   33.1860 O.2   125  LEU125     -0.2864
     26  CB        33.0410   21.3840   32.1030 C.3   125  LEU125      0.0297
     27  CG        33.9890   20.4890   32.9170 C.3   125  LEU125      0.0022
     28  CD1       35.4380   20.6960   32.5480 C.3   125  LEU125      0.0001
     29  CD2       33.8390   20.7750   34.3960 C.3   125  LEU125      0.0001
     30  N         28.0140   18.0800   31.8380 N.3   128  LEU128     -0.1245
     31  CA        28.4830   16.8110   31.2750 C.3   128  LEU128      0.1561
     32  C         28.6840   15.7710   32.3720 C.2   128  LEU128      0.2260
     33  O         28.3420   14.6050   32.2180 O.2   128  LEU128     -0.2867
     34  CB        29.8010   17.0160   30.5280 C.3   128  LEU128      0.0270
     35  CG        30.3420   15.7940   29.7690 C.3   128  LEU128      0.0019
     36  CD1       29.5420   15.5550   28.5090 C.3   128  LEU128      0.0001
     37  CD2       31.8240   15.9510   29.4350 C.3   128  LEU128      0.0001
     38  N         33.9920   31.0470   36.7400 N.3   265  ASN265     -0.1225
     39  CA        34.6430   31.2720   35.4710 C.3   265  ASN265      0.1785
     40  C         34.7350   29.9730   34.6220 C.2   265  ASN265      0.2597
     41  O         35.3550   28.9820   35.0120 O.2   265  ASN265     -0.2718
     42  CB        36.0030   31.9110   35.7240 C.3   265  ASN265      0.1169
     43  CG        36.5750   32.5290   34.4820 C.2   265  ASN265      0.2627
     44  OD1       36.4300   31.9780   33.3780 O.2   265  ASN265     -0.2716
     45  ND2       37.2170   33.6850   34.6360 N.am  265  ASN265     -0.0877
     46  N         34.0800   30.0390   33.4710 N.am  266  ASP266     -0.1960
     47  CA        33.9590   29.0180   32.4340 C.3   266  ASP266      0.1840
     48  C         35.0680   29.3090   31.4070 C.2   266  ASP266      0.2622
     49  O         35.2200   30.4300   30.9330 O.2   266  ASP266     -0.2715
     50  CB        32.5570   29.2280   31.7760 C.3   266  ASP266      0.1450
     51  CG        32.1570   28.1370   30.8360 C.2   266  ASP266      0.3671
     52  OD1       31.4990   27.1630   31.2770 O.co2 266  ASP266     -0.2456
     53  OD2       32.4300   28.2880   29.6110 O.co2 266  ASP266     -0.2456
     54  N         35.8310   28.3170   31.0200 N.am  267  ASN267     -0.1958
     55  CA        36.9200   28.5690   30.0440 C.3   267  ASN267      0.1819
     56  C         37.9540   29.7450   30.2330 C.2   267  ASN267      0.2621
     57  O         38.4620   30.2500   29.2620 O.2   267  ASN267     -0.2715
     58  CB        36.2940   28.6320   28.6250 C.3   267  ASN267      0.1195
     59  CG        36.5760   27.3890   27.8200 C.2   267  ASN267      0.2630
     60  OD1       37.7380   27.0490   27.5390 O.2   267  ASN267     -0.2716
     61  ND2       35.5240   26.6860   27.4720 N.am  267  ASN267     -0.0877
     62  N         38.3050   30.1230   31.4610 N.am  268  PHE268     -0.1960
     63  CA        39.4330   31.0590   31.7210 C.3   268  PHE268      0.1771
     64  C         40.1410   30.7120   33.0740 C.2   268  PHE268      0.2619
     65  O         39.4800   30.5010   34.1070 O.2   268  PHE268     -0.2715
     66  CB        38.9000   32.5030   31.6610 C.3   268  PHE268      0.0574
     67  CG        39.9340   33.5720   31.8600 C.ar  268  PHE268     -0.0200
     68  CD1       40.8320   33.8610   30.8680 C.ar  268  PHE268     -0.0042
     69  CD2       39.9750   34.3170   33.0390 C.ar  268  PHE268     -0.0042
     70  CE1       41.7880   34.8640   31.0400 C.ar  268  PHE268     -0.0003
     71  CE2       40.9170   35.3120   33.2330 C.ar  268  PHE268     -0.0003
     72  CZ        41.8300   35.5910   32.2290 C.ar  268  PHE268     -0.0000
     73  N         41.4670   30.5760   33.0610 N.am  269  PHE269     -0.1974
     74  CA        42.2100   30.1710   34.2810 C.3   269  PHE269      0.1639
     75  C         42.5710   31.3930   35.1260 C.2   269  PHE269      0.2290
     76  O         43.2570   32.2920   34.6370 O.2   269  PHE269     -0.2864
     77  CB        43.5000   29.4120   33.9370 C.3   269  PHE269      0.0560
     78  CG        44.3830   29.1210   35.1390 C.ar  269  PHE269     -0.0200
     79  CD1       43.9250   28.3030   36.1800 C.ar  269  PHE269     -0.0042
     80  CD2       45.6440   29.6970   35.2520 C.ar  269  PHE269     -0.0042
     81  CE1       44.7300   28.0450   37.2900 C.ar  269  PHE269     -0.0003
     82  CE2       46.4530   29.4370   36.3470 C.ar  269  PHE269     -0.0003
     83  CZ        45.9940   28.6050   37.3700 C.ar  269  PHE269     -0.0000
     84  N         41.2640   28.6600   45.1030 N.3   275  ARG275     -0.1245
     85  CA        40.9880   27.6540   44.0880 C.3   275  ARG275      0.1563
     86  C         41.9130   26.4400   44.1860 C.2   275  ARG275      0.2260
     87  O         41.4600   25.2980   44.0810 O.2   275  ARG275     -0.2867
     88  CB        41.0380   28.2980   42.6890 C.3   275  ARG275      0.0307
     89  CG        40.8740   27.3610   41.5110 C.3   275  ARG275      0.0489
     90  CD        39.5200   26.6570   41.4890 C.3   275  ARG275      0.2205
     91  NE        39.3780   25.9230   40.2350 N.pl3 275  ARG275     -0.0865
     92  CZ        38.2440   25.4340   39.7230 C.cat 275  ARG275      0.5346
     93  NH1       37.0700   25.5610   40.3450 N.pl3 275  ARG275      0.1354
     94  NH2       38.2930   24.8110   38.5450 N.pl3 275  ARG275      0.1354
     95  N         39.0770   17.2020   33.3230 N.3   313  ASP313     -0.1239
     96  CA        40.0980   18.2030   33.0570 C.3   313  ASP313      0.1674
     97  C         41.1800   18.1370   34.1250 C.2   313  ASP313      0.2266
     98  O         41.2680   17.1320   34.8200 O.2   313  ASP313     -0.2867
     99  CB        39.5060   19.5910   32.8260 C.3   313  ASP313      0.1410
    100  CG        40.2560   20.3410   31.7380 C.2   313  ASP313      0.3668
    101  OD1       41.3660   20.7990   32.0910 O.co2 313  ASP313     -0.2456
    102  OD2       39.7740   20.4440   30.5680 O.co2 313  ASP313     -0.2456
    103  N         41.5310   20.0150   36.7220 N.3   315  HIS315     -0.1241
    104  CA        41.1530   20.6060   38.0180 C.3   315  HIS315      0.1621
    105  C         41.4740   19.6730   39.2170 C.2   315  HIS315      0.2264
    106  O         41.9800   20.1490   40.2260 O.2   315  HIS315     -0.2867
    107  CB        39.6970   21.1170   38.0140 C.3   315  HIS315      0.0745
    108  CG        39.3360   21.9110   36.7880 C.ar  315  HIS315      0.0817
    109  ND1       38.0750   21.8870   36.2300 N.ar  315  HIS315     -0.2268
    110  CD2       40.0900   22.7000   35.9770 C.ar  315  HIS315      0.1154
    111  CE1       38.0600   22.6540   35.1510 C.ar  315  HIS315      0.1986
    112  NE2       39.2720   23.1490   34.9700 N.ar  315  HIS315     -0.2212
    113  N         39.2650   19.3230   27.9390 N.3   351  HIS351     -0.1226
    114  CA        38.0820   20.0470   27.4630 C.3   351  HIS351      0.1752
    115  C         38.3710   21.4170   26.8560 C.2   351  HIS351      0.2596
    116  O         37.4280   22.1570   26.6430 O.2   351  HIS351     -0.2718
    117  CB        37.0770   20.2870   28.6040 C.3   351  HIS351      0.0759
    118  CG        36.6300   19.0540   29.3150 C.ar  351  HIS351      0.0818
    119  ND1       35.4030   18.4700   29.0840 N.ar  351  HIS351     -0.2268
    120  CD2       37.2260   18.3170   30.2830 C.ar  351  HIS351      0.1154
    121  CE1       35.2720   17.4110   29.8660 C.ar  351  HIS351      0.1986
    122  NE2       36.3600   17.3030   30.6120 N.ar  351  HIS351     -0.2212
    123  N         39.6160   21.7540   26.5320 N.am  352  THR352     -0.1953
    124  CA        39.8280   23.0710   25.9140 C.3   352  THR352      0.1897
    125  C         41.0970   23.1480   25.0930 C.2   352  THR352      0.2313
    126  O         41.8890   22.2180   25.0090 O.2   352  THR352     -0.2863
    127  CB        39.6830   24.2660   26.9110 C.3   352  THR352      0.1794
    128  OG1       39.6350   25.5220   26.1910 O.3   352  THR352     -0.2208
    129  CG2       40.8050   24.2590   27.9280 C.3   352  THR352      0.0378
    130  N         43.0490   29.0920   29.1200 N.3   357  ALA357     -0.1245
    131  CA        42.2560   28.1540   29.9330 C.3   357  ALA357      0.1562
    132  C         43.1040   27.0810   30.6380 C.2   357  ALA357      0.2260
    133  O         42.6170   26.4480   31.5820 O.2   357  ALA357     -0.2867
    134  CB        41.2050   27.4800   29.0650 C.3   357  ALA357      0.0290
    135  N         45.5790   25.3330   33.0900 N.3   359  GLU359     -0.1245
    136  CA        46.0060   25.5720   34.4590 C.3   359  GLU359      0.1567
    137  C         47.4940   25.4960   34.5410 C.2   359  GLU359      0.2260
    138  O         48.0740   24.4360   34.2810 O.2   359  GLU359     -0.2867
    139  CB        45.4240   24.5480   35.4190 C.3   359  GLU359      0.0388
    140  CG        43.9340   24.7050   35.6560 C.3   359  GLU359      0.1160
    141  CD        43.4940   23.9060   36.8550 C.2   359  GLU359      0.3649
    142  OE1       43.5450   22.6550   36.8010 O.co2 359  GLU359     -0.2457
    143  OE2       43.1170   24.5390   37.8460 O.co2 359  GLU359     -0.2457
    144  N         37.0710   15.5790   23.4900 N.3   429  VAL429     -0.1245
    145  CA        35.6240   15.4560   23.7100 C.3   429  VAL429      0.1561
    146  C         34.8020   15.5860   22.4350 C.2   429  VAL429      0.2260
    147  O         33.5830   15.6040   22.4870 O.2   429  VAL429     -0.2867
    148  CB        35.1600   16.4340   24.8090 C.3   429  VAL429      0.0252
    149  CG1       35.6790   15.9690   26.1580 C.3   429  VAL429      0.0019
    150  CG2       35.5840   17.8820   24.5170 C.3   429  VAL429      0.0019
    151  N         31.3480   13.7490   23.1990 N.3   458  ASN458     -0.1240
    152  CA        30.3780   14.0230   24.2370 C.3   458  ASN458      0.1653
    153  C         28.9560   13.5920   23.8710 C.2   458  ASN458      0.2266
    154  O         28.6370   13.2700   22.7150 O.2   458  ASN458     -0.2867
    155  CB        30.4150   15.5210   24.6040 C.3   458  ASN458      0.1155
    156  CG        31.5820   15.8820   25.5370 C.2   458  ASN458      0.2627
    157  OD1       32.2610   14.9990   26.0910 O.2   458  ASN458     -0.2716
    158  ND2       31.8020   17.1910   25.7320 N.am  458  ASN458     -0.0877
    159  N         34.6370   33.8200   22.0390 N.3   547  TYR547     -0.1227
    160  CA        34.8690   32.7290   21.0920 C.3   547  TYR547      0.1736
    161  C         33.5530   32.1320   20.6300 C.2   547  TYR547      0.2595
    162  O         33.4900   31.5770   19.5310 O.2   547  TYR547     -0.2718
    163  CB        35.8310   31.6430   21.6560 C.3   547  TYR547      0.0548
    164  CG        35.2500   30.5240   22.5190 C.ar  547  TYR547     -0.0200
    165  CD1       34.6320   29.4220   21.9490 C.ar  547  TYR547     -0.0009
    166  CD2       35.4010   30.5300   23.9130 C.ar  547  TYR547     -0.0009
    167  CE1       34.1250   28.3910   22.7320 C.ar  547  TYR547      0.0417
    168  CE2       34.9020   29.5000   24.7080 C.ar  547  TYR547      0.0417
    169  CZ        34.2650   28.4260   24.1230 C.ar  547  TYR547      0.1957
    170  OH        33.7490   27.4000   24.9260 O.3   547  TYR547     -0.2866
    171  N         32.5200   32.2570   21.4670 N.am  548  LYS548     -0.1980
    172  CA        31.1540   31.8390   21.1320 C.3   548  LYS548      0.1596
    173  C         30.4270   32.7970   20.1730 C.2   548  LYS548      0.2287
    174  O         29.3990   32.4310   19.6060 O.2   548  LYS548     -0.2864
    175  CB        30.3360   31.6050   22.4160 C.3   548  LYS548      0.0298
    176  CG        30.8870   30.4370   23.2430 C.3   548  LYS548      0.0038
    177  CD        30.4090   30.4680   24.6920 C.3   548  LYS548      0.0206
    178  CE        30.7890   29.2550   25.5420 C.3   548  LYS548      0.1093
    179  NZ        30.1860   27.9860   25.0040 N.3   548  LYS548     -0.1314
    180  N         35.4760   25.7700   20.1030 N.3   646  GLU646     -0.1231
    181  CA        34.5380   25.0140   20.9600 C.3   646  GLU646      0.1699
    182  C         34.9550   23.5350   20.9360 C.2   646  GLU646      0.2592
    183  O         34.7940   22.8820   19.9200 O.2   646  GLU646     -0.2718
    184  CB        33.0910   25.1970   20.4810 C.3   646  GLU646      0.0402
    185  CG        32.0110   24.7380   21.4610 C.3   646  GLU646      0.1161
    186  CD        31.8850   25.6690   22.6570 C.2   646  GLU646      0.3649
    187  OE1       32.5910   25.4180   23.6550 O.co2 646  GLU646     -0.2457
    188  OE2       31.1320   26.6740   22.5780 O.co2 646  GLU646     -0.2457
    189  N         35.5200   23.0260   22.0410 N.am  647  ALA647     -0.1966
    190  CA        36.0300   21.6500   22.0890 C.3   647  ALA647      0.1728
    191  C         34.9810   20.6440   21.6180 C.2   647  ALA647      0.2617
    192  O         35.2770   19.7780   20.7940 O.2   647  ALA647     -0.2715
    193  CB        36.5280   21.2870   23.4820 C.3   647  ALA647      0.0334
    194  N         33.7620   20.7830   22.1270 N.am  648  SER648     -0.1936
    195  CA        32.6340   19.9730   21.6820 C.3   648  SER648      0.2055
    196  C         31.3400   20.7600   21.5640 C.2   648  SER648      0.2644
    197  O         30.7160   20.8110   20.4750 O.2   648  SER648     -0.2714
    198  CB        32.4080   18.7790   22.6110 C.3   648  SER648      0.2130
    199  OG        31.1990   18.0870   22.2820 O.3   648  SER648     -0.2179
    200  N         30.9210   21.3440   22.6810 N.am  649  GLY649     -0.1939
    201  CA        29.5590   21.8110   22.8260 C.3   649  GLY649      0.2014
    202  C         28.7050   20.6110   23.2090 C.2   649  GLY649      0.2639
    203  O         29.0030   19.4770   22.8430 O.2   649  GLY649     -0.2714
    204  N         27.6740   20.8770   24.0010 N.am  650  THR650     -0.1950
    205  CA        26.6050   19.9210   24.3130 C.3   650  THR650      0.1897
    206  C         25.2100   20.5170   24.1480 C.2   650  THR650      0.2313
    207  O         24.2370   19.7870   23.9000 O.2   650  THR650     -0.2863
    208  CB        26.7430   19.3710   25.7520 C.3   650  THR650      0.1794
    209  OG1       26.8250   20.4540   26.6660 O.3   650  THR650     -0.2208
    210  CG2       27.9710   18.5170   25.8760 C.3   650  THR650      0.0378
@<TRIPOS>BOND
     1   162   161    2
     2   174   173    2
     3   183   182    2
     4   180   181    1
     5   173   172    1
     6   197   196    2
     7   184   181    1
     8   184   185    1
     9   161   160    1
    10   161   171   am
    11   192   191    2
    12   182   181    1
    13   182   189   am
    14   160   163    1
    15   160   159    1
    16   172   171    1
    17   172   175    1
    18   185   186    1
    19   196   195    1
    20   196   200   am
    21   191   190    1
    22   191   194   am
    23   163   164    1
    24   195   194    1
    25   195   198    1
    26   165   164   ar
    27   165   167   ar
    28   189   190    1
    29   190   193    1
    30   199   198    1
    31   175   176    1
    32   146   147    2
    33   146   145    1
    34   164   166   ar
    35   188   186   ar
    36   186   187   ar
    37   200   201    1
    38   154   153    2
    39   167   169   ar
    40   201   202    1
    41   203   202    2
    42   151   152    1
    43   202   204   am
    44   176   177    1
    45   144   145    1
    46   145   148    1
    47   153   152    1
    48   207   206    2
    49   166   168   ar
    50   204   205    1
    51   169   168   ar
    52   169   170    1
    53   206   205    1
    54   152   155    1
    55   205   208    1
    56   150   148    1
    57   155   156    1
    58   177   178    1
    59   148   149    1
    60   179   178    1
    61   126   125    2
    62   125   124    1
    63   156   158   am
    64   156   157    2
    65   208   210    1
    66   208   209    1
    67   124   123    1
    68   124   127    1
    69   128   127    1
    70   123   115   am
    71   116   115    2
    72   115   114    1
    73   127   129    1
    74   114   113    1
    75   114   117    1
    76    61    59   am
    77    60    59    2
    78    59    58    1
    79    36    35    1
    80   117   118    1
    81    58    55    1
    82   134   131    1
    83   119   118   ar
    84   119   121   ar
    85   130   131    1
    86    57    56    2
    87   118   120   ar
    88    37    35    1
    89    53    51   ar
    90    19    20    1
    91    19    18    1
    92    35    34    1
    93   121   122   ar
    94   131   132    1
    95    55    56    1
    96    55    54    1
    97    56    62   am
    98   120   122   ar
    99    20    21    2
   100    20    22   am
   101    34    31    1
   102   102   100   ar
   103   132   133    2
   104    51    52   ar
   105    51    50    1
   106    68    70   ar
   107    68    67   ar
   108    49    48    2
   109    54    48   am
   110    70    72   ar
   111    22    23    1
   112    31    30    1
   113    31    32    1
   114    48    47    1
   115    62    63    1
   116    66    63    1
   117    66    67    1
   118    63    64    1
   119   100   101   ar
   120   100    99    1
   121    23    26    1
   122    23    24    1
   123    50    47    1
   124    67    69   ar
   125    26    27    1
   126    33    32    2
   127    72    71   ar
   128    47    46    1
   129    28    27    1
   130    99    96    1
   131    27    29    1
   132    24    25    2
   133    69    71   ar
   134    96    95    1
   135    96    97    1
   136    73    64   am
   137    73    74    1
   138    64    65    2
   139   135   136    1
   140    44    43    2
   141    46    40   am
   142    13    12    2
   143    77    74    1
   144    77    78    1
   145    12    11    1
   146    97    98    2
   147   138   137    2
   148    74    75    1
   149   136   137    1
   150   136   139    1
   151    43    45   am
   152    43    42    1
   153    40    41    2
   154    40    39    1
   155    76    75    2
   156   112   111   ar
   157   112   110   ar
   158    14    11    1
   159    14    15    1
   160    78    80   ar
   161    78    79   ar
   162   111   109   ar
   163    80    82   ar
   164    11    10    1
   165   139   140    1
   166    39    42    1
   167    39    38    1
   168   140   141    1
   169   110   108   ar
   170    15    16    2
   171    15    17   am
   172    79    81   ar
   173   109   108   ar
   174     8     7   ar
   175    82    83   ar
   176   103   104    1
   177   108   107    1
   178   142   141   ar
   179   141   143   ar
   180     9     7   ar
   181     7     6    1
   182    81    83   ar
   183     5     6    1
   184     5     2    1
   185   107   104    1
   186   104   105    1
   187     4     3    2
   188    94    92    1
   189     3     2    1
   190     2     1    1
   191   105   106    2
   192    92    91    2
   193    92    93    1
   194    91    90    1
   195    90    89    1
   196    89    88    1
   197    88    85    1
   198    87    86    2
   199    85    86    1
   200    85    84    1
