@<TRIPOS>MOLECULE
tmp/6f45B00.pdb
 72 67 0 0 0
SMALL
GASTEIGER

@<TRIPOS>ATOM
      1  N        -28.5990   35.4440  -24.5580 N.3     3  SER3       -0.1217
      2  CA       -28.1770   34.1460  -24.0590 C.3     3  SER3        0.1889
      3  C        -27.2710   33.5050  -25.0950 C.2     3  SER3        0.2288
      4  O        -27.6530   33.3980  -26.2630 O.2     3  SER3       -0.2866
      5  CB       -29.3900   33.2580  -23.7780 C.3     3  SER3        0.2089
      6  OG       -29.0290   31.8920  -23.6870 O.3     3  SER3       -0.2183
      7  N        -25.6040   30.0270  -25.4460 N.3     5  ALA5       -0.1245
      8  CA       -25.3610   28.6670  -24.9720 C.3     5  ALA5        0.1562
      9  C        -24.0390   28.1460  -25.4770 C.2     5  ALA5        0.2260
     10  O        -23.6990   28.3080  -26.6530 O.2     5  ALA5       -0.2867
     11  CB       -26.4690   27.7370  -25.4560 C.3     5  ALA5        0.0290
     12  N        -27.7150   23.5020  -23.4920 N.3     9  ASN9       -0.1225
     13  CA       -28.4930   24.7410  -23.4380 C.3     9  ASN9        0.1785
     14  C        -28.8040   25.2140  -22.0090 C.2     9  ASN9        0.2597
     15  O        -29.6340   26.0930  -21.8090 O.2     9  ASN9       -0.2718
     16  CB       -29.8010   24.6060  -24.2360 C.3     9  ASN9        0.1169
     17  CG       -30.8960   23.8670  -23.4880 C.2     9  ASN9        0.2627
     18  OD1      -30.6640   23.0960  -22.5790 O.2     9  ASN9       -0.2716
     19  ND2      -32.1320   24.0940  -23.9270 N.am    9  ASN9       -0.0877
     20  N        -28.1830   24.6540  -21.0280 N.am   10  ASP10      -0.1960
     21  CA       -28.1880   25.0930  -19.6430 C.3    10  ASP10       0.1840
     22  C        -26.8800   25.7670  -19.2540 C.2    10  ASP10       0.2623
     23  O        -26.6840   26.0610  -18.0650 O.2    10  ASP10      -0.2715
     24  CB       -28.4240   23.8990  -18.7070 C.3    10  ASP10       0.1450
     25  CG       -29.8280   23.2960  -18.8470 C.2    10  ASP10       0.3671
     26  OD1      -30.7680   24.0510  -19.0420 O.co2  10  ASP10      -0.2456
     27  OD2      -29.9730   22.0650  -18.7520 O.co2  10  ASP10      -0.2456
     28  N        -25.9620   25.9600  -20.1930 N.am   11  THR11      -0.1937
     29  CA       -24.5880   26.3140  -19.8820 C.3    11  THR11       0.2028
     30  C        -24.1240   27.4070  -20.8430 C.2    11  THR11       0.2643
     31  O        -24.3850   27.3200  -22.0400 O.2    11  THR11      -0.2714
     32  CB       -23.7100   25.0690  -20.0200 C.3    11  THR11       0.1808
     33  OG1      -24.1300   24.0940  -19.0470 O.3    11  THR11      -0.2208
     34  CG2      -22.1960   25.3880  -19.8350 C.3    11  THR11       0.0379
     35  N        -23.4730   28.4330  -20.3180 N.am   12  GLY12      -0.1939
     36  CA       -22.8400   29.4820  -21.1400 C.3    12  GLY12       0.2014
     37  C        -22.9260   30.8340  -20.4410 C.2    12  GLY12       0.2639
     38  O        -22.6680   30.9390  -19.2400 O.2    12  GLY12      -0.2714
     39  N        -23.2770   31.8570  -21.2200 N.am   13  LEU13      -0.1963
     40  CA       -23.2130   33.2470  -20.7590 C.3    13  LEU13       0.1728
     41  C        -24.5510   33.8980  -21.0580 C.2    13  LEU13       0.2616
     42  O        -25.1320   33.6520  -22.1270 O.2    13  LEU13      -0.2715
     43  CB       -22.0810   34.0550  -21.4960 C.3    13  LEU13       0.0311
     44  CG       -20.6580   33.4850  -21.2510 C.3    13  LEU13       0.0022
     45  CD1      -19.6770   34.2350  -22.1280 C.3    13  LEU13       0.0001
     46  CD2      -20.2390   33.6410  -19.7580 C.3    13  LEU13       0.0001
     47  N        -25.0400   34.7390  -20.1430 N.am   14  ARG14      -0.1977
     48  CA       -26.3070   35.3870  -20.4380 C.3    14  ARG14       0.1597
     49  C        -26.4040   36.7700  -19.8000 C.2    14  ARG14       0.2287
     50  O        -25.6490   37.1360  -18.8840 O.2    14  ARG14      -0.2864
     51  CB       -27.4810   34.5080  -20.0140 C.3    14  ARG14       0.0334
     52  CG       -27.6050   34.3450  -18.5430 C.3    14  ARG14       0.0492
     53  CD       -28.7140   33.3210  -18.1940 C.3    14  ARG14       0.2205
     54  NE       -28.9420   33.3130  -16.7340 N.pl3  14  ARG14      -0.0865
     55  CZ       -29.6810   32.4090  -16.0960 C.cat  14  ARG14       0.5346
     56  NH1      -30.2420   31.4130  -16.7920 N.pl3  14  ARG14       0.1354
     57  NH2      -29.8420   32.4880  -14.7730 N.pl3  14  ARG14       0.1354
     58  N        -22.9310   30.7350  -16.4030 N.3    24  VAL24      -0.1245
     59  CA       -23.9260   29.7310  -16.0320 C.3    24  VAL24       0.1561
     60  C        -23.4100   28.3510  -16.4040 C.2    24  VAL24       0.2260
     61  O        -22.7750   28.1790  -17.4420 O.2    24  VAL24      -0.2867
     62  CB       -25.2920   30.0090  -16.7270 C.3    24  VAL24       0.0252
     63  CG1      -26.3660   28.9670  -16.2590 C.3    24  VAL24       0.0019
     64  CG2      -25.7510   31.4360  -16.4560 C.3    24  VAL24       0.0019
     65  N        -27.4940   25.2940  -15.4040 N.3    27  ASN27      -0.1240
     66  CA       -28.4180   26.2070  -14.7150 C.3    27  ASN27       0.1653
     67  C        -27.9140   26.8470  -13.4350 C.2    27  ASN27       0.2266
     68  O        -28.6240   27.7110  -12.9080 O.2    27  ASN27      -0.2867
     69  CB       -29.7270   25.5080  -14.3490 C.3    27  ASN27       0.1155
     70  CG       -30.5070   25.1460  -15.5510 C.2    27  ASN27       0.2627
     71  OD1      -30.8870   26.0170  -16.3280 O.2    27  ASN27      -0.2716
     72  ND2      -30.7670   23.8500  -15.7150 N.am   27  ASN27      -0.0877
@<TRIPOS>BOND
     1    10     9    2
     2     4     3    2
     3     9     8    1
     4    11     8    1
     5     7     8    1
     6     3     2    1
     7     1     2    1
     8    16    17    1
     9    16    13    1
    10     2     5    1
    11    19    17   am
    12     5     6    1
    13    12    13    1
    14    17    18    2
    15    13    14    1
    16    45    44    1
    17    42    41    2
    18    31    30    2
    19    14    15    2
    20    14    20   am
    21    43    44    1
    22    43    40    1
    23    44    46    1
    24    39    40    1
    25    39    37   am
    26    36    37    1
    27    36    35    1
    28    41    40    1
    29    41    47   am
    30    20    21    1
    31    30    35   am
    32    30    29    1
    33    37    38    2
    34    48    47    1
    35    48    51    1
    36    48    49    1
    37    28    29    1
    38    28    22   am
    39    32    29    1
    40    32    34    1
    41    32    33    1
    42    51    52    1
    43    49    50    2
    44    21    22    1
    45    21    24    1
    46    22    23    2
    47    26    25   ar
    48    25    27   ar
    49    25    24    1
    50    52    53    1
    51    53    54    1
    52    61    60    2
    53    56    55    1
    54    54    55    2
    55    62    64    1
    56    62    63    1
    57    62    59    1
    58    60    59    1
    59    58    59    1
    60    71    70    2
    61    55    57    1
    62    72    70   am
    63    70    69    1
    64    65    66    1
    65    66    69    1
    66    66    67    1
    67    67    68    2
