@<TRIPOS>MOLECULE
tmp/6f48A01.pdb
 162 156 0 0 0
SMALL
GASTEIGER

@<TRIPOS>ATOM
      1  N          3.9560   -2.9990   17.3770 N.3    23  HIS23      -0.1241
      2  CA         4.6820   -2.5110   16.2440 C.3    23  HIS23       0.1621
      3  C          4.0100   -2.9570   14.9240 C.2    23  HIS23       0.2264
      4  O          3.3460   -4.0160   14.8640 O.2    23  HIS23      -0.2867
      5  CB         6.1140   -3.0010   16.2790 C.3    23  HIS23       0.0745
      6  CG         6.9800   -2.3170   15.2860 C.ar   23  HIS23       0.0817
      7  ND1        7.2160   -2.8280   14.0270 N.ar   23  HIS23      -0.2268
      8  CD2        7.6260   -1.1240   15.3410 C.ar   23  HIS23       0.1154
      9  CE1        7.9940   -1.9930   13.3610 C.ar   23  HIS23       0.1986
     10  NE2        8.2470   -0.9470   14.1350 N.ar   23  HIS23      -0.2212
     11  N          5.2520   -4.3940   12.5020 N.3    25  PHE25      -0.1241
     12  CA         5.7430   -5.6540   11.9720 C.3    25  PHE25       0.1605
     13  C          5.2300   -6.8750   12.7190 C.2    25  PHE25       0.2264
     14  O          5.6950   -7.9910   12.4710 O.2    25  PHE25      -0.2867
     15  CB         7.2720   -5.6820   11.9410 C.3    25  PHE25       0.0534
     16  CG         7.9210   -4.6470   11.0520 C.ar   25  PHE25      -0.0203
     17  CD1        7.2180   -3.8980   10.1080 C.ar   25  PHE25      -0.0042
     18  CD2        9.2940   -4.4320   11.1500 C.ar   25  PHE25      -0.0042
     19  CE1        7.8590   -2.9620    9.3080 C.ar   25  PHE25      -0.0003
     20  CE2        9.9320   -3.5100   10.3460 C.ar   25  PHE25      -0.0003
     21  CZ         9.2080   -2.7500    9.4290 C.ar   25  PHE25      -0.0000
     22  N          5.0150    2.7550   14.7080 N.3    39  ASP39      -0.1225
     23  CA         6.4860    2.6140   14.7840 C.3    39  ASP39       0.1805
     24  C          6.9640    2.8040   16.2280 C.2    39  ASP39       0.2598
     25  O          6.1990    3.1880   17.0760 O.2    39  ASP39      -0.2718
     26  CB         7.2130    3.5110   13.7770 C.3    39  ASP39       0.1424
     27  CG         7.1030    4.9890   14.0850 C.2    39  ASP39       0.3668
     28  OD1        7.4040    5.4410   15.2130 O.co2  39  ASP39      -0.2456
     29  OD2        6.7420    5.7080   13.1520 O.co2  39  ASP39      -0.2456
     30  N          8.2420    2.5320   16.5070 N.am   40  SER40      -0.1938
     31  CA         8.7240    2.5060   17.9010 C.3    40  SER40       0.2055
     32  C          8.5340    3.8130   18.6750 C.2    40  SER40       0.2642
     33  O          8.0230    3.8090   19.8070 O.2    40  SER40      -0.2714
     34  CB        10.1910    2.0390   17.9700 C.3    40  SER40       0.2130
     35  OG        11.0110    2.9250   17.2630 O.3    40  SER40      -0.2179
     36  N          8.9040    4.9310   18.0670 N.am   41  LEU41      -0.1977
     37  CA         8.7410    6.2150   18.7140 C.3    41  LEU41       0.1596
     38  C          7.2580    6.6310   18.7930 C.2    41  LEU41       0.2287
     39  O          6.8280    7.1640   19.8220 O.2    41  LEU41      -0.2864
     40  CB         9.5590    7.2840   18.0030 C.3    41  LEU41       0.0297
     41  CG         9.6080    8.6630   18.6680 C.3    41  LEU41       0.0022
     42  CD1       10.2510    8.5840   20.0470 C.3    41  LEU41       0.0001
     43  CD2       10.3610    9.6410   17.7600 C.3    41  LEU41       0.0001
     44  N         14.4290   -3.4210   22.1730 N.3    62  PHE62      -0.1227
     45  CA        14.8670   -2.0070   22.2150 C.3    62  PHE62       0.1736
     46  C         13.6540   -1.0810   22.1900 C.2    62  PHE62       0.2595
     47  O         13.6720    0.0190   22.7250 O.2    62  PHE62      -0.2718
     48  CB        15.8940   -1.6590   21.1250 C.3    62  PHE62       0.0547
     49  CG        15.3060   -1.4560   19.7430 C.ar   62  PHE62      -0.0202
     50  CD1       14.6520   -0.2710   19.4150 C.ar   62  PHE62      -0.0042
     51  CD2       15.3550   -2.4540   18.7900 C.ar   62  PHE62      -0.0042
     52  CE1       14.0860   -0.0840   18.1740 C.ar   62  PHE62      -0.0003
     53  CE2       14.7740   -2.2760   17.5300 C.ar   62  PHE62      -0.0003
     54  CZ        14.1570   -1.0790   17.2230 C.ar   62  PHE62      -0.0000
     55  N         12.5930   -1.5440   21.5470 N.am   63  MET63      -0.1979
     56  CA        11.3650   -0.7610   21.4580 C.3    63  MET63       0.1605
     57  C         10.5880   -0.7530   22.7480 C.2    63  MET63       0.2287
     58  O         10.1210    0.3130   23.1830 O.2    63  MET63      -0.2864
     59  CB        10.4440   -1.3360   20.3530 C.3    63  MET63       0.0413
     60  CG        11.0700   -1.4030   18.9970 C.3    63  MET63       0.0598
     61  SD         9.9060   -2.0650   17.7980 S.3    63  MET63      -0.1393
     62  CE        10.8890   -1.9020   16.3360 C.3    63  MET63       0.0692
     63  N         20.5440    5.8020   15.6020 N.3   111  TYR111     -0.1227
     64  CA        19.2420    5.3640   15.1480 C.3   111  TYR111      0.1736
     65  C         18.5160    4.7080   16.3020 C.2   111  TYR111      0.2595
     66  O         19.1160    4.0320   17.1370 O.2   111  TYR111     -0.2718
     67  CB        19.4700    4.3770   13.9920 C.3   111  TYR111      0.0548
     68  CG        18.2490    3.8760   13.2190 C.ar  111  TYR111     -0.0200
     69  CD1       17.1020    4.6550   13.0510 C.ar  111  TYR111     -0.0009
     70  CD2       18.3090    2.6500   12.5700 C.ar  111  TYR111     -0.0009
     71  CE1       16.0170    4.1760   12.3260 C.ar  111  TYR111      0.0417
     72  CE2       17.2430    2.1780   11.8280 C.ar  111  TYR111      0.0417
     73  CZ        16.0990    2.9480   11.7200 C.ar  111  TYR111      0.1957
     74  OH        15.0190    2.5050   10.9690 O.3   111  TYR111     -0.2866
     75  N         17.2130    4.9320   16.3680 N.am  112  VAL112     -0.1966
     76  CA        16.4180    4.4000   17.4320 C.3   112  VAL112      0.1727
     77  C         16.5480    2.8750   17.5480 C.2   112  VAL112      0.2616
     78  O         16.3940    2.3270   18.6470 O.2   112  VAL112     -0.2715
     79  CB        14.9460    4.8620   17.2860 C.3   112  VAL112      0.0290
     80  CG1       14.2930    4.2050   16.0810 C.3   112  VAL112      0.0023
     81  CG2       14.1950    4.5910   18.5650 C.3   112  VAL112      0.0023
     82  N         16.8220    2.2030   16.4280 N.am  113  ASN113     -0.1972
     83  CA        17.1010    0.7520   16.4250 C.3   113  ASN113      0.1688
     84  C         18.5160    0.5410   16.9390 C.2   113  ASN113      0.2292
     85  O         19.4430    0.3590   16.1660 O.2   113  ASN113     -0.2864
     86  CB        16.9630    0.1260   15.0230 C.3   113  ASN113      0.1181
     87  CG        15.5750    0.2950   14.4250 C.2   113  ASN113      0.2629
     88  OD1       14.8570    1.2280   14.7470 O.2   113  ASN113     -0.2716
     89  ND2       15.2080   -0.6100   13.5440 N.am  113  ASN113     -0.0877
     90  N         15.1250    8.8340   14.3130 N.3   127  THR127     -0.1203
     91  CA        14.2570    7.8130   13.6800 C.3   127  THR127      0.1994
     92  C         14.5350    7.8610   12.2050 C.2   127  THR127      0.2618
     93  O         15.2120    8.7720   11.7220 O.2   127  THR127     -0.2717
     94  CB        12.7770    8.1330   13.8600 C.3   127  THR127      0.1784
     95  OG1       12.4990    9.3710   13.1860 O.3   127  THR127     -0.2211
     96  CG2       12.3880    8.1980   15.3450 C.3   127  THR127      0.0376
     97  N         14.0010    6.8950   11.4700 N.am  128  SER128     -0.1951
     98  CA        14.1630    6.8940   10.0120 C.3   128  SER128      0.1924
     99  C         13.4450    8.0960    9.3840 C.2   128  SER128      0.2314
    100  O         13.8930    8.6020    8.3770 O.2   128  SER128     -0.2863
    101  CB        13.6930    5.5720    9.3850 C.3   128  SER128      0.2116
    102  OG        12.4580    5.1330    9.9150 O.3   128  SER128     -0.2180
    103  N         20.1090   -4.0100    8.2230 N.3   172  CYS172     -0.1235
    104  CA        18.9730   -4.8540    8.5390 C.3   172  CYS172      0.1677
    105  C         18.8420   -5.9000    7.4330 C.2   172  CYS172      0.2270
    106  O         18.6290   -5.5190    6.2800 O.2   172  CYS172     -0.2867
    107  CB        17.6910   -4.0300    8.5810 C.3   172  CYS172      0.0956
    108  SG        16.2280   -5.0740    8.6790 S.3   172  CYS172     -0.0801
    109  N         15.5840   -5.8600    5.0620 N.3   175  HIS175     -0.1241
    110  CA        15.4110   -4.8310    4.0350 C.3   175  HIS175      0.1621
    111  C         16.3740   -4.9540    2.8420 C.2   175  HIS175      0.2264
    112  O         16.4380   -4.0490    2.0110 O.2   175  HIS175     -0.2867
    113  CB        15.4570   -3.4360    4.6830 C.3   175  HIS175      0.0745
    114  CG        14.2250   -3.1070    5.4610 C.ar  175  HIS175      0.0817
    115  ND1       14.0460   -3.4650    6.7780 N.ar  175  HIS175     -0.2268
    116  CD2       13.0770   -2.4900    5.0780 C.ar  175  HIS175      0.1154
    117  CE1       12.8510   -3.0600    7.1830 C.ar  175  HIS175      0.1986
    118  NE2       12.2390   -2.4760    6.1640 N.ar  175  HIS175     -0.2212
    119  N         11.8220    1.5120    2.3150 N.3   197  HIS197     -0.1241
    120  CA        12.4190    2.0280    3.5470 C.3   197  HIS197      0.1621
    121  C         13.8370    2.5380    3.2730 C.2   197  HIS197      0.2264
    122  O         14.5100    1.9920    2.4280 O.2   197  HIS197     -0.2867
    123  CB        12.4690    0.9200    4.5960 C.3   197  HIS197      0.0745
    124  CG        12.5320    1.4170    6.0010 C.ar  197  HIS197      0.0817
    125  ND1       13.7160    1.8180    6.6050 N.ar  197  HIS197     -0.2268
    126  CD2       11.5740    1.5300    6.9450 C.ar  197  HIS197      0.1154
    127  CE1       13.4610    2.1900    7.8450 C.ar  197  HIS197      0.1986
    128  NE2       12.1720    2.0120    8.0800 N.ar  197  HIS197     -0.2212
    129  N         16.3510    2.0130    5.0730 N.3   199  GLU199     -0.1245
    130  CA        17.2120    0.8720    5.4220 C.3   199  GLU199      0.1567
    131  C         17.5280   -0.0190    4.2290 C.2   199  GLU199      0.2260
    132  O         18.4110   -0.8580    4.3260 O.2   199  GLU199     -0.2867
    133  CB        16.5830   -0.0130    6.5000 C.3   199  GLU199      0.0388
    134  CG        16.6050    0.5670    7.8930 C.3   199  GLU199      0.1160
    135  CD        15.8090   -0.2740    8.8810 C.2   199  GLU199      0.3649
    136  OE1       15.4530   -1.4370    8.5830 O.co2 199  GLU199     -0.2457
    137  OE2       15.5250    0.2310    9.9650 O.co2 199  GLU199     -0.2457
    138  N         10.0540    6.0230    6.1060 N.3   213  SER213     -0.1202
    139  CA         9.7830    5.1860    7.2760 C.3   213  SER213      0.2020
    140  C          8.3990    4.5820    7.1570 C.2   213  SER213      0.2619
    141  O          7.6170    5.0300    6.3090 O.2   213  SER213     -0.2717
    142  CB         9.8550    6.0310    8.5340 C.3   213  SER213      0.2103
    143  OG         8.7500    6.9410    8.6070 O.3   213  SER213     -0.2182
    144  N          8.0720    3.6120    8.0060 N.am  214  THR214     -0.1938
    145  CA         6.7160    3.0230    7.9590 C.3   214  THR214      0.2028
    146  C          5.6370    4.0720    8.2560 C.2   214  THR214      0.2642
    147  O          4.5860    4.1070    7.5920 O.2   214  THR214     -0.2714
    148  CB         6.5630    1.8100    8.8860 C.3   214  THR214      0.1808
    149  OG1        6.8170    2.1770   10.2440 O.3   214  THR214     -0.2208
    150  CG2        7.4630    0.6900    8.4380 C.3   214  THR214      0.0379
    151  N          5.9090    4.9460    9.2220 N.am  215  GLY215     -0.1954
    152  CA         5.0480    6.0840    9.5050 C.3   215  GLY215      0.1869
    153  C          4.8490    6.9870    8.3030 C.2   215  GLY215      0.2309
    154  O          3.7380    7.4850    8.0740 O.2   215  GLY215     -0.2863
    155  N         10.4250  -10.2290   15.2030 N.3   261  MET261     -0.1245
    156  CA         9.0720   -9.6620   15.3510 C.3   261  MET261      0.1570
    157  C          8.0220  -10.7750   15.3930 C.2   261  MET261      0.2261
    158  O          7.0040  -10.6580   16.1000 O.2   261  MET261     -0.2867
    159  CB         8.7780   -8.7490   14.1620 C.3   261  MET261      0.0387
    160  CG         9.4940   -7.4110   14.2390 C.3   261  MET261      0.0595
    161  SD         8.7690   -6.3710   15.4850 S.3   261  MET261     -0.1393
    162  CE         9.7870   -4.9060   15.3130 C.3   261  MET261      0.0692
@<TRIPOS>BOND
     1   112   111    2
     2   119   120    1
     3   122   121    2
     4   111   110    1
     5   121   120    1
     6   120   123    1
     7   110   113    1
     8   110   109    1
     9   131   132    2
    10   131   130    1
    11   123   124    1
    12   113   114    1
    13   129   130    1
    14   116   114   ar
    15   116   118   ar
    16   130   133    1
    17   114   115   ar
    18   124   125   ar
    19   124   126   ar
    20   138   139    1
    21   118   117   ar
    22   106   105    2
    23   141   140    2
    24   133   134    1
    25   125   127   ar
    26   115   117   ar
    27   126   128   ar
    28   140   139    1
    29   140   144   am
    30   139   142    1
    31   105   104    1
    32   147   146    2
    33   127   128   ar
    34   134   135    1
    35   145   144    1
    36   145   146    1
    37   145   148    1
    38   154   153    2
    39   103   104    1
    40   146   151   am
    41   153   152    1
    42   100    99    2
    43   150   148    1
    44   142   143    1
    45   104   107    1
    46   107   108    1
    47   136   135   ar
    48   135   137   ar
    49   148   149    1
    50   151   152    1
    51    19    21   ar
    52    19    17   ar
    53    99    98    1
    54   101   102    1
    55   101    98    1
    56    21    20   ar
    57    98    97    1
    58    17    16   ar
    59    20    18   ar
    60    74    73    1
    61    16    18   ar
    62    16    15    1
    63    97    92   am
    64    73    72   ar
    65    73    71   ar
    66    93    92    2
    67    72    70   ar
    68    15    12    1
    69    12    11    1
    70    12    13    1
    71    92    91    1
    72    71    69   ar
    73    14    13    2
    74    70    68   ar
    75    69    68   ar
    76    29    27   ar
    77    95    94    1
    78    68    67    1
    79     9     7   ar
    80     9    10   ar
    81    89    87   am
    82    91    94    1
    83    91    90    1
    84    26    27    1
    85    26    23    1
    86    94    96    1
    87    67    64    1
    88     7     6   ar
    89    27    28   ar
    90    10     8   ar
    91   159   160    1
    92   159   156    1
    93   160   161    1
    94    87    88    2
    95    87    86    1
    96    22    23    1
    97    23    24    1
    98     4     3    2
    99     3     2    1
   100    86    83    1
   101    64    63    1
   102    64    65    1
   103   155   156    1
   104     6     8   ar
   105     6     5    1
   106   162   161    1
   107   156   157    1
   108   157   158    2
   109    80    79    1
   110    85    84    2
   111    24    30   am
   112    24    25    2
   113     2     5    1
   114     2     1    1
   115    65    75   am
   116    65    66    2
   117    62    61    1
   118    75    76    1
   119    83    82    1
   120    83    84    1
   121    82    77   am
   122    30    31    1
   123    54    53   ar
   124    54    52   ar
   125    35    34    1
   126    79    76    1
   127    79    81    1
   128    76    77    1
   129    53    51   ar
   130    77    78    2
   131    43    41    1
   132    61    60    1
   133    31    34    1
   134    31    32    1
   135    40    41    1
   136    40    37    1
   137    36    32   am
   138    36    37    1
   139    52    50   ar
   140    41    42    1
   141    32    33    2
   142    37    38    1
   143    51    49   ar
   144    38    39    2
   145    60    59    1
   146    50    49   ar
   147    49    48    1
   148    59    56    1
   149    48    45    1
   150    56    55    1
   151    56    57    1
   152    55    46   am
   153    44    45    1
   154    46    45    1
   155    46    47    2
   156    57    58    2
