@<TRIPOS>MOLECULE
tmp/6f48A00.pdb
 171 163 0 0 0
SMALL
GASTEIGER

@<TRIPOS>ATOM
      1  N          3.9560   -2.9990   17.3770 N.3    23  HIS23      -0.1241
      2  CA         4.6820   -2.5110   16.2440 C.3    23  HIS23       0.1621
      3  C          4.0100   -2.9570   14.9240 C.2    23  HIS23       0.2264
      4  O          3.3460   -4.0160   14.8640 O.2    23  HIS23      -0.2867
      5  CB         6.1140   -3.0010   16.2790 C.3    23  HIS23       0.0745
      6  CG         6.9800   -2.3170   15.2860 C.ar   23  HIS23       0.0817
      7  ND1        7.2160   -2.8280   14.0270 N.ar   23  HIS23      -0.2268
      8  CD2        7.6260   -1.1240   15.3410 C.ar   23  HIS23       0.1154
      9  CE1        7.9940   -1.9930   13.3610 C.ar   23  HIS23       0.1986
     10  NE2        8.2470   -0.9470   14.1350 N.ar   23  HIS23      -0.2212
     11  N          5.2520   -4.3940   12.5020 N.3    25  PHE25      -0.1241
     12  CA         5.7430   -5.6540   11.9720 C.3    25  PHE25       0.1605
     13  C          5.2300   -6.8750   12.7190 C.2    25  PHE25       0.2264
     14  O          5.6950   -7.9910   12.4710 O.2    25  PHE25      -0.2867
     15  CB         7.2720   -5.6820   11.9410 C.3    25  PHE25       0.0534
     16  CG         7.9210   -4.6470   11.0520 C.ar   25  PHE25      -0.0203
     17  CD1        7.2180   -3.8980   10.1080 C.ar   25  PHE25      -0.0042
     18  CD2        9.2940   -4.4320   11.1500 C.ar   25  PHE25      -0.0042
     19  CE1        7.8590   -2.9620    9.3080 C.ar   25  PHE25      -0.0003
     20  CE2        9.9320   -3.5100   10.3460 C.ar   25  PHE25      -0.0003
     21  CZ         9.2080   -2.7500    9.4290 C.ar   25  PHE25      -0.0000
     22  N          5.0150    2.7550   14.7080 N.3    39  ASP39      -0.1225
     23  CA         6.4860    2.6140   14.7840 C.3    39  ASP39       0.1805
     24  C          6.9640    2.8040   16.2280 C.2    39  ASP39       0.2598
     25  O          6.1990    3.1880   17.0760 O.2    39  ASP39      -0.2718
     26  CB         7.2130    3.5110   13.7770 C.3    39  ASP39       0.1424
     27  CG         7.1030    4.9890   14.0850 C.2    39  ASP39       0.3668
     28  OD1        7.4040    5.4410   15.2130 O.co2  39  ASP39      -0.2456
     29  OD2        6.7420    5.7080   13.1520 O.co2  39  ASP39      -0.2456
     30  N          8.2420    2.5320   16.5070 N.am   40  SER40      -0.1938
     31  CA         8.7240    2.5060   17.9010 C.3    40  SER40       0.2055
     32  C          8.5340    3.8130   18.6750 C.2    40  SER40       0.2642
     33  O          8.0230    3.8090   19.8070 O.2    40  SER40      -0.2714
     34  CB        10.1910    2.0390   17.9700 C.3    40  SER40       0.2130
     35  OG        11.0110    2.9250   17.2630 O.3    40  SER40      -0.2179
     36  N          8.9040    4.9310   18.0670 N.am   41  LEU41      -0.1977
     37  CA         8.7410    6.2150   18.7140 C.3    41  LEU41       0.1596
     38  C          7.2580    6.6310   18.7930 C.2    41  LEU41       0.2287
     39  O          6.8280    7.1640   19.8220 O.2    41  LEU41      -0.2864
     40  CB         9.5590    7.2840   18.0030 C.3    41  LEU41       0.0297
     41  CG         9.6080    8.6630   18.6680 C.3    41  LEU41       0.0022
     42  CD1       10.2510    8.5840   20.0470 C.3    41  LEU41       0.0001
     43  CD2       10.3610    9.6410   17.7600 C.3    41  LEU41       0.0001
     44  N         10.0220   -5.7150   19.6040 N.3    60  VAL60      -0.1245
     45  CA        11.3370   -6.2410   20.0310 C.3    60  VAL60       0.1561
     46  C         11.8870   -5.3780   21.1650 C.2    60  VAL60       0.2260
     47  O         11.4200   -4.2470   21.4200 O.2    60  VAL60      -0.2867
     48  CB        12.3430   -6.3480   18.8780 C.3    60  VAL60       0.0252
     49  CG1       11.8470   -7.3000   17.8030 C.3    60  VAL60       0.0019
     50  CG2       12.7320   -5.0170   18.3050 C.3    60  VAL60       0.0019
     51  N         14.4290   -3.4210   22.1730 N.3    62  PHE62      -0.1227
     52  CA        14.8670   -2.0070   22.2150 C.3    62  PHE62       0.1736
     53  C         13.6540   -1.0810   22.1900 C.2    62  PHE62       0.2595
     54  O         13.6720    0.0190   22.7250 O.2    62  PHE62      -0.2718
     55  CB        15.8940   -1.6590   21.1250 C.3    62  PHE62       0.0547
     56  CG        15.3060   -1.4560   19.7430 C.ar   62  PHE62      -0.0202
     57  CD1       14.6520   -0.2710   19.4150 C.ar   62  PHE62      -0.0042
     58  CD2       15.3550   -2.4540   18.7900 C.ar   62  PHE62      -0.0042
     59  CE1       14.0860   -0.0840   18.1740 C.ar   62  PHE62      -0.0003
     60  CE2       14.7740   -2.2760   17.5300 C.ar   62  PHE62      -0.0003
     61  CZ        14.1570   -1.0790   17.2230 C.ar   62  PHE62      -0.0000
     62  N         12.5930   -1.5440   21.5470 N.am   63  MET63      -0.1979
     63  CA        11.3650   -0.7610   21.4580 C.3    63  MET63       0.1605
     64  C         10.5880   -0.7530   22.7480 C.2    63  MET63       0.2287
     65  O         10.1210    0.3130   23.1830 O.2    63  MET63      -0.2864
     66  CB        10.4440   -1.3360   20.3530 C.3    63  MET63       0.0413
     67  CG        11.0700   -1.4030   18.9970 C.3    63  MET63       0.0598
     68  SD         9.9060   -2.0650   17.7980 S.3    63  MET63      -0.1393
     69  CE        10.8890   -1.9020   16.3360 C.3    63  MET63       0.0692
     70  N         16.6530   -7.1290   18.1850 N.3    85  CYS85      -0.1235
     71  CA        17.0320   -6.6540   16.8740 C.3    85  CYS85       0.1677
     72  C         18.4910   -7.0000   16.6140 C.2    85  CYS85       0.2270
     73  O         19.3960   -6.3970   17.2400 O.2    85  CYS85      -0.2867
     74  CB        16.8300   -5.1610   16.7610 C.3    85  CYS85       0.0956
     75  SG        17.3730   -4.5050   15.1700 S.3    85  CYS85      -0.0801
     76  N         20.5440    5.8020   15.6020 N.3   111  TYR111     -0.1227
     77  CA        19.2420    5.3640   15.1480 C.3   111  TYR111      0.1736
     78  C         18.5160    4.7080   16.3020 C.2   111  TYR111      0.2595
     79  O         19.1160    4.0320   17.1370 O.2   111  TYR111     -0.2718
     80  CB        19.4700    4.3770   13.9920 C.3   111  TYR111      0.0548
     81  CG        18.2490    3.8760   13.2190 C.ar  111  TYR111     -0.0200
     82  CD1       17.1020    4.6550   13.0510 C.ar  111  TYR111     -0.0009
     83  CD2       18.3090    2.6500   12.5700 C.ar  111  TYR111     -0.0009
     84  CE1       16.0170    4.1760   12.3260 C.ar  111  TYR111      0.0417
     85  CE2       17.2430    2.1780   11.8280 C.ar  111  TYR111      0.0417
     86  CZ        16.0990    2.9480   11.7200 C.ar  111  TYR111      0.1957
     87  OH        15.0190    2.5050   10.9690 O.3   111  TYR111     -0.2866
     88  N         17.2130    4.9320   16.3680 N.am  112  VAL112     -0.1966
     89  CA        16.4180    4.4000   17.4320 C.3   112  VAL112      0.1727
     90  C         16.5480    2.8750   17.5480 C.2   112  VAL112      0.2616
     91  O         16.3940    2.3270   18.6470 O.2   112  VAL112     -0.2715
     92  CB        14.9460    4.8620   17.2860 C.3   112  VAL112      0.0290
     93  CG1       14.2930    4.2050   16.0810 C.3   112  VAL112      0.0023
     94  CG2       14.1950    4.5910   18.5650 C.3   112  VAL112      0.0023
     95  N         16.8220    2.2030   16.4280 N.am  113  ASN113     -0.1972
     96  CA        17.1010    0.7520   16.4250 C.3   113  ASN113      0.1688
     97  C         18.5160    0.5410   16.9390 C.2   113  ASN113      0.2292
     98  O         19.4430    0.3590   16.1660 O.2   113  ASN113     -0.2864
     99  CB        16.9630    0.1260   15.0230 C.3   113  ASN113      0.1181
    100  CG        15.5750    0.2950   14.4250 C.2   113  ASN113      0.2629
    101  OD1       14.8570    1.2280   14.7470 O.2   113  ASN113     -0.2716
    102  ND2       15.2080   -0.6100   13.5440 N.am  113  ASN113     -0.0877
    103  N         15.1250    8.8340   14.3130 N.3   127  THR127     -0.1203
    104  CA        14.2570    7.8130   13.6800 C.3   127  THR127      0.1994
    105  C         14.5350    7.8610   12.2050 C.2   127  THR127      0.2618
    106  O         15.2120    8.7720   11.7220 O.2   127  THR127     -0.2717
    107  CB        12.7770    8.1330   13.8600 C.3   127  THR127      0.1784
    108  OG1       12.4990    9.3710   13.1860 O.3   127  THR127     -0.2211
    109  CG2       12.3880    8.1980   15.3450 C.3   127  THR127      0.0376
    110  N         14.0010    6.8950   11.4700 N.am  128  SER128     -0.1951
    111  CA        14.1630    6.8940   10.0120 C.3   128  SER128      0.1924
    112  C         13.4450    8.0960    9.3840 C.2   128  SER128      0.2314
    113  O         13.8930    8.6020    8.3770 O.2   128  SER128     -0.2863
    114  CB        13.6930    5.5720    9.3850 C.3   128  SER128      0.2116
    115  OG        12.4580    5.1330    9.9150 O.3   128  SER128     -0.2180
    116  N         20.1090   -4.0100    8.2230 N.3   172  CYS172     -0.1235
    117  CA        18.9730   -4.8540    8.5390 C.3   172  CYS172      0.1677
    118  C         18.8420   -5.9000    7.4330 C.2   172  CYS172      0.2270
    119  O         18.6290   -5.5190    6.2800 O.2   172  CYS172     -0.2867
    120  CB        17.6910   -4.0300    8.5810 C.3   172  CYS172      0.0956
    121  SG        16.2280   -5.0740    8.6790 S.3   172  CYS172     -0.0801
    122  N         15.5840   -5.8600    5.0620 N.3   175  HIS175     -0.1241
    123  CA        15.4110   -4.8310    4.0350 C.3   175  HIS175      0.1621
    124  C         16.3740   -4.9540    2.8420 C.2   175  HIS175      0.2264
    125  O         16.4380   -4.0490    2.0110 O.2   175  HIS175     -0.2867
    126  CB        15.4570   -3.4360    4.6830 C.3   175  HIS175      0.0745
    127  CG        14.2250   -3.1070    5.4610 C.ar  175  HIS175      0.0817
    128  ND1       14.0460   -3.4650    6.7780 N.ar  175  HIS175     -0.2268
    129  CD2       13.0770   -2.4900    5.0780 C.ar  175  HIS175      0.1154
    130  CE1       12.8510   -3.0600    7.1830 C.ar  175  HIS175      0.1986
    131  NE2       12.2390   -2.4760    6.1640 N.ar  175  HIS175     -0.2212
    132  N         11.8220    1.5120    2.3150 N.3   197  HIS197     -0.1241
    133  CA        12.4190    2.0280    3.5470 C.3   197  HIS197      0.1621
    134  C         13.8370    2.5380    3.2730 C.2   197  HIS197      0.2264
    135  O         14.5100    1.9920    2.4280 O.2   197  HIS197     -0.2867
    136  CB        12.4690    0.9200    4.5960 C.3   197  HIS197      0.0745
    137  CG        12.5320    1.4170    6.0010 C.ar  197  HIS197      0.0817
    138  ND1       13.7160    1.8180    6.6050 N.ar  197  HIS197     -0.2268
    139  CD2       11.5740    1.5300    6.9450 C.ar  197  HIS197      0.1154
    140  CE1       13.4610    2.1900    7.8450 C.ar  197  HIS197      0.1986
    141  NE2       12.1720    2.0120    8.0800 N.ar  197  HIS197     -0.2212
    142  N         16.3510    2.0130    5.0730 N.3   199  GLU199     -0.1245
    143  CA        17.2120    0.8720    5.4220 C.3   199  GLU199      0.1567
    144  C         17.5280   -0.0190    4.2290 C.2   199  GLU199      0.2260
    145  O         18.4110   -0.8580    4.3260 O.2   199  GLU199     -0.2867
    146  CB        16.5830   -0.0130    6.5000 C.3   199  GLU199      0.0388
    147  CG        16.6050    0.5670    7.8930 C.3   199  GLU199      0.1160
    148  CD        15.8090   -0.2740    8.8810 C.2   199  GLU199      0.3649
    149  OE1       15.4530   -1.4370    8.5830 O.co2 199  GLU199     -0.2457
    150  OE2       15.5250    0.2310    9.9650 O.co2 199  GLU199     -0.2457
    151  N         10.0540    6.0230    6.1060 N.3   213  SER213     -0.1202
    152  CA         9.7830    5.1860    7.2760 C.3   213  SER213      0.2020
    153  C          8.3990    4.5820    7.1570 C.2   213  SER213      0.2619
    154  O          7.6170    5.0300    6.3090 O.2   213  SER213     -0.2717
    155  CB         9.8550    6.0310    8.5340 C.3   213  SER213      0.2103
    156  OG         8.7500    6.9410    8.6070 O.3   213  SER213     -0.2182
    157  N          8.0720    3.6120    8.0060 N.am  214  THR214     -0.1952
    158  CA         6.7160    3.0230    7.9590 C.3   214  THR214      0.1897
    159  C          5.6370    4.0720    8.2560 C.2   214  THR214      0.2313
    160  O          4.5860    4.1070    7.5920 O.2   214  THR214     -0.2863
    161  CB         6.5630    1.8100    8.8860 C.3   214  THR214      0.1794
    162  OG1        6.8170    2.1770   10.2440 O.3   214  THR214     -0.2208
    163  CG2        7.4630    0.6900    8.4380 C.3   214  THR214      0.0378
    164  N         10.4250  -10.2290   15.2030 N.3   261  MET261     -0.1245
    165  CA         9.0720   -9.6620   15.3510 C.3   261  MET261      0.1570
    166  C          8.0220  -10.7750   15.3930 C.2   261  MET261      0.2261
    167  O          7.0040  -10.6580   16.1000 O.2   261  MET261     -0.2867
    168  CB         8.7780   -8.7490   14.1620 C.3   261  MET261      0.0387
    169  CG         9.4940   -7.4110   14.2390 C.3   261  MET261      0.0595
    170  SD         8.7690   -6.3710   15.4850 S.3   261  MET261     -0.1393
    171  CE         9.7870   -4.9060   15.3130 C.3   261  MET261      0.0692
@<TRIPOS>BOND
     1   125   124    2
     2   132   133    1
     3   135   134    2
     4   124   123    1
     5   134   133    1
     6   133   136    1
     7   123   126    1
     8   123   122    1
     9   144   145    2
    10   144   143    1
    11   136   137    1
    12   126   127    1
    13   142   143    1
    14   129   127   ar
    15   129   131   ar
    16   143   146    1
    17   127   128   ar
    18   137   138   ar
    19   137   139   ar
    20   151   152    1
    21   131   130   ar
    22   119   118    2
    23   154   153    2
    24   146   147    1
    25   138   140   ar
    26   128   130   ar
    27   139   141   ar
    28   153   152    1
    29   153   157   am
    30   152   155    1
    31   118   117    1
    32   160   159    2
    33   140   141   ar
    34   147   148    1
    35   158   157    1
    36   158   159    1
    37   158   161    1
    38   116   117    1
    39   113   112    2
    40   163   161    1
    41   155   156    1
    42   117   120    1
    43   120   121    1
    44   149   148   ar
    45   148   150   ar
    46   161   162    1
    47    19    21   ar
    48    19    17   ar
    49   112   111    1
    50   114   115    1
    51   114   111    1
    52    21    20   ar
    53   111   110    1
    54    17    16   ar
    55    20    18   ar
    56    87    86    1
    57    16    18   ar
    58    16    15    1
    59   110   105   am
    60    86    85   ar
    61    86    84   ar
    62   106   105    2
    63    85    83   ar
    64    15    12    1
    65    12    11    1
    66    12    13    1
    67   105   104    1
    68    84    82   ar
    69    14    13    2
    70    83    81   ar
    71    82    81   ar
    72    29    27   ar
    73   108   107    1
    74    81    80    1
    75     9     7   ar
    76     9    10   ar
    77   102   100   am
    78   104   107    1
    79   104   103    1
    80    26    27    1
    81    26    23    1
    82   107   109    1
    83    80    77    1
    84     7     6   ar
    85    27    28   ar
    86    10     8   ar
    87   168   169    1
    88   168   165    1
    89   169   170    1
    90   100   101    2
    91   100    99    1
    92    22    23    1
    93    23    24    1
    94     4     3    2
    95     3     2    1
    96    99    96    1
    97    77    76    1
    98    77    78    1
    99    75    74    1
   100   164   165    1
   101     6     8   ar
   102     6     5    1
   103   171   170    1
   104   165   166    1
   105   166   167    2
   106    93    92    1
   107    98    97    2
   108    24    30   am
   109    24    25    2
   110     2     5    1
   111     2     1    1
   112    78    88   am
   113    78    79    2
   114    69    68    1
   115    88    89    1
   116    96    95    1
   117    96    97    1
   118    95    90   am
   119    30    31    1
   120    72    71    1
   121    72    73    2
   122    74    71    1
   123    71    70    1
   124    61    60   ar
   125    61    59   ar
   126    35    34    1
   127    92    89    1
   128    92    94    1
   129    89    90    1
   130    60    58   ar
   131    90    91    2
   132    43    41    1
   133    68    67    1
   134    49    48    1
   135    31    34    1
   136    31    32    1
   137    40    41    1
   138    40    37    1
   139    36    32   am
   140    36    37    1
   141    59    57   ar
   142    50    48    1
   143    41    42    1
   144    32    33    2
   145    37    38    1
   146    58    56   ar
   147    38    39    2
   148    48    45    1
   149    67    66    1
   150    57    56   ar
   151    44    45    1
   152    56    55    1
   153    45    46    1
   154    66    63    1
   155    55    52    1
   156    46    47    2
   157    63    62    1
   158    63    64    1
   159    62    53   am
   160    51    52    1
   161    53    52    1
   162    53    54    2
   163    64    65    2
