@<TRIPOS>MOLECULE
tmp/6f4kA00.pdb
 113 111 0 0 0
SMALL
GASTEIGER

@<TRIPOS>ATOM
      1  N         -7.8550  -17.4930   30.4630 N.3    13  PRO13      -0.2102
      2  CA        -8.7900  -17.7760   29.3740 C.3    13  PRO13       0.1504
      3  C         -8.0910  -17.9650   28.0340 C.2    13  PRO13       0.2575
      4  O         -8.6200  -18.6620   27.1800 O.2    13  PRO13      -0.2718
      5  CB        -9.7320  -16.5650   29.3780 C.3    13  PRO13       0.0282
      6  CG        -8.9120  -15.4660   30.0300 C.3    13  PRO13       0.0208
      7  CD        -8.0250  -16.1450   31.0420 C.3    13  PRO13       0.0893
      8  N         -6.9410  -17.3540   27.8210 N.am   14  TYR14      -0.1977
      9  CA        -6.2230  -17.5550   26.5780 C.3    14  TYR14       0.1639
     10  C         -5.7570  -18.9830   26.4240 C.2    14  TYR14       0.2290
     11  O         -5.8320  -19.5370   25.3280 O.2    14  TYR14      -0.2864
     12  CB        -5.0290  -16.6130   26.4920 C.3    14  TYR14       0.0560
     13  CG        -5.4050  -15.1500   26.4130 C.ar   14  TYR14      -0.0198
     14  CD1       -5.8950  -14.6070   25.2210 C.ar   14  TYR14      -0.0009
     15  CD2       -5.1960  -14.2990   27.4890 C.ar   14  TYR14      -0.0009
     16  CE1       -6.2240  -13.2680   25.1130 C.ar   14  TYR14       0.0417
     17  CE2       -5.5150  -12.9450   27.3790 C.ar   14  TYR14       0.0417
     18  CZ        -6.0210  -12.4500   26.1730 C.ar   14  TYR14       0.1957
     19  OH        -6.2820  -11.1130   26.0010 O.3    14  TYR14      -0.2866
     20  N          4.4920  -15.1290   28.3040 N.3    52  LYS52      -0.1245
     21  CA         3.0430  -15.2320   28.4190 C.3    52  LYS52       0.1561
     22  C          2.5600  -16.6720   28.2500 C.2    52  LYS52       0.2260
     23  O          3.1720  -17.4820   27.5410 O.2    52  LYS52      -0.2867
     24  CB         2.3390  -14.3930   27.3730 C.3    52  LYS52       0.0271
     25  CG         2.5320  -12.8900   27.5900 C.3    52  LYS52       0.0035
     26  CD         1.9980  -12.1470   26.3780 C.3    52  LYS52       0.0206
     27  CE         2.4830  -10.7250   26.3560 C.3    52  LYS52       0.1093
     28  NZ         1.8200   -9.8790   27.3830 N.3    52  LYS52      -0.1314
     29  N          0.9410  -16.8590   20.9290 N.3    77  GLU77      -0.1245
     30  CA        -0.3440  -16.1780   20.7150 C.3    77  GLU77       0.1567
     31  C         -1.4930  -17.1670   20.4580 C.2    77  GLU77       0.2260
     32  O         -1.5130  -17.9160   19.4630 O.2    77  GLU77      -0.2867
     33  CB        -0.2590  -15.1150   19.6050 C.3    77  GLU77       0.0388
     34  CG         0.7180  -14.0280   19.9230 C.3    77  GLU77       0.1160
     35  CD         0.3010  -13.2290   21.1120 C.2    77  GLU77       0.3649
     36  OE1       -0.7860  -12.6010   21.0320 O.co2  77  GLU77      -0.2457
     37  OE2        1.0340  -13.1900   22.1110 O.co2  77  GLU77      -0.2457
     38  N        -11.7140   -9.7680   19.9530 N.3   113  GLU113     -0.1245
     39  CA       -10.3880   -9.3260   20.3590 C.3   113  GLU113      0.1567
     40  C        -10.2630   -7.8110   20.3020 C.2   113  GLU113      0.2260
     41  O         -9.6110   -7.1980   21.1570 O.2   113  GLU113     -0.2867
     42  CB        -9.3400   -9.9750   19.4520 C.3   113  GLU113      0.0388
     43  CG        -8.0190  -10.3420   20.1060 C.3   113  GLU113      0.1160
     44  CD        -8.1290  -11.6000   20.9730 C.2   113  GLU113      0.3649
     45  OE1       -7.1010  -12.2610   21.2090 O.co2 113  GLU113     -0.2457
     46  OE2       -9.2350  -11.8850   21.4520 O.co2 113  GLU113     -0.2457
     47  N        -13.0140   -5.2680   34.6630 N.3   124  TRP124     -0.1227
     48  CA       -12.5240   -6.2130   35.6670 C.3   124  TRP124      0.1737
     49  C        -11.2330   -5.7450   36.3290 C.2   124  TRP124      0.2595
     50  O        -11.0490   -5.9810   37.5260 O.2   124  TRP124     -0.2718
     51  CB       -12.3270   -7.6050   35.0480 C.3   124  TRP124      0.0564
     52  CG       -13.4440   -8.5190   35.4830 C.ar  124  TRP124      0.0003
     53  CD1      -13.3800   -9.4460   36.4720 C.ar  124  TRP124      0.0946
     54  CD2      -14.8010   -8.5280   35.0090 C.ar  124  TRP124      0.0152
     55  NE1      -14.5870  -10.0560   36.6270 N.ar  124  TRP124     -0.2442
     56  CE2      -15.4920   -9.4890   35.7690 C.ar  124  TRP124      0.0810
     57  CE3      -15.5070   -7.7830   34.0540 C.ar  124  TRP124      0.0012
     58  CZ2      -16.8360   -9.7780   35.5510 C.ar  124  TRP124      0.0191
     59  CZ3      -16.8590   -8.0510   33.8610 C.ar  124  TRP124      0.0001
     60  CH2      -17.5040   -9.0300   34.6010 C.ar  124  TRP124      0.0015
     61  N        -10.3230   -5.0890   35.5910 N.am  125  PHE125     -0.1976
     62  CA        -9.0500   -4.6900   36.1820 C.3   125  PHE125      0.1639
     63  C         -9.0060   -3.2300   36.6160 C.2   125  PHE125      0.2290
     64  O         -8.2460   -2.8980   37.5420 O.2   125  PHE125     -0.2864
     65  CB        -7.9050   -4.9830   35.2120 C.3   125  PHE125      0.0560
     66  CG        -7.6500   -6.4590   35.0230 C.ar  125  PHE125     -0.0200
     67  CD1       -6.8320   -7.1550   35.8820 C.ar  125  PHE125     -0.0042
     68  CD2       -8.2320   -7.1350   33.9860 C.ar  125  PHE125     -0.0042
     69  CE1       -6.6150   -8.5060   35.7160 C.ar  125  PHE125     -0.0003
     70  CE2       -8.0080   -8.4990   33.8140 C.ar  125  PHE125     -0.0003
     71  CZ        -7.2150   -9.1720   34.6750 C.ar  125  PHE125     -0.0000
     72  N        -13.8630  -16.4960   27.8240 N.3   165  PHE165     -0.1241
     73  CA       -14.1370  -15.1960   28.4330 C.3   165  PHE165      0.1605
     74  C        -15.6080  -15.0730   28.8640 C.2   165  PHE165      0.2264
     75  O        -15.9110  -14.6560   29.9960 O.2   165  PHE165     -0.2867
     76  CB       -13.7140  -14.0780   27.4530 C.3   165  PHE165      0.0534
     77  CG       -12.2370  -14.0440   27.2110 C.ar  165  PHE165     -0.0203
     78  CD1      -11.6620  -14.7950   26.2060 C.ar  165  PHE165     -0.0042
     79  CD2      -11.4060  -13.3080   28.0510 C.ar  165  PHE165     -0.0042
     80  CE1      -10.3050  -14.7930   26.0150 C.ar  165  PHE165     -0.0003
     81  CE2      -10.0280  -13.3130   27.8440 C.ar  165  PHE165     -0.0003
     82  CZ        -9.4950  -14.0710   26.8160 C.ar  165  PHE165     -0.0000
     83  N        -16.4330  -17.2410   31.9790 N.3   168  ARG168     -0.1245
     84  CA       -15.9570  -16.7310   33.2450 C.3   168  ARG168      0.1563
     85  C        -16.8270  -15.5960   33.7830 C.2   168  ARG168      0.2260
     86  O        -16.7960  -15.3240   34.9830 O.2   168  ARG168     -0.2867
     87  CB       -14.4980  -16.2750   33.0940 C.3   168  ARG168      0.0307
     88  CG       -13.5290  -17.4540   33.0070 C.3   168  ARG168      0.0489
     89  CD       -12.1370  -17.0280   32.5880 C.3   168  ARG168      0.2205
     90  NE       -11.1560  -18.0860   32.8030 N.pl3 168  ARG168     -0.0865
     91  CZ       -11.0470  -19.2030   32.0830 C.cat 168  ARG168      0.5346
     92  NH1      -11.8240  -19.4240   31.0260 N.pl3 168  ARG168      0.1354
     93  NH2      -10.0980  -20.0870   32.3900 N.pl3 168  ARG168      0.1354
     94  N        -17.5530  -15.1340   37.9020 N.3   172  TYR172     -0.1241
     95  CA       -16.8030  -14.0320   38.4900 C.3   172  TYR172      0.1605
     96  C        -17.7420  -12.9740   39.0670 C.2   172  TYR172      0.2264
     97  O        -17.4570  -12.3810   40.1140 O.2   172  TYR172     -0.2867
     98  CB       -15.8840  -13.3690   37.4610 C.3   172  TYR172      0.0534
     99  CG       -14.6640  -14.1500   37.0060 C.ar  172  TYR172     -0.0201
    100  CD1      -14.4430  -15.4870   37.3540 C.ar  172  TYR172     -0.0009
    101  CD2      -13.7230  -13.5250   36.1940 C.ar  172  TYR172     -0.0009
    102  CE1      -13.2980  -16.1760   36.8910 C.ar  172  TYR172      0.0417
    103  CE2      -12.5830  -14.2130   35.7450 C.ar  172  TYR172      0.0417
    104  CZ       -12.3860  -15.5140   36.0980 C.ar  172  TYR172      0.1957
    105  OH       -11.2700  -16.1730   35.5910 O.3   172  TYR172     -0.2866
    106  N         -6.4230   -8.8970   39.5590 N.3   233  LEU233     -0.1245
    107  CA        -7.8250   -8.9300   39.9630 C.3   233  LEU233      0.1561
    108  C         -8.0240   -8.4580   41.3950 C.2   233  LEU233      0.2260
    109  O         -9.1760   -8.2840   41.8040 O.2   233  LEU233     -0.2867
    110  CB        -8.4310  -10.3430   39.7970 C.3   233  LEU233      0.0270
    111  CG        -8.7180  -10.6560   38.3230 C.3   233  LEU233      0.0019
    112  CD1       -9.1730  -12.0930   38.1570 C.3   233  LEU233      0.0001
    113  CD2       -9.7770   -9.6720   37.7410 C.3   233  LEU233      0.0001
@<TRIPOS>BOND
     1    42    43    1
     2    42    39    1
     3    32    31    2
     4    33    34    1
     5    33    30    1
     6    34    35    1
     7    38    39    1
     8    43    44    1
     9    40    39    1
    10    40    41    2
    11    31    30    1
    12    30    29    1
    13    44    45   ar
    14    44    46   ar
    15    36    35   ar
    16    35    37   ar
    17    16    14   ar
    18    16    18   ar
    19    14    13   ar
    20    11    10    2
    21    19    18    1
    22    80    78   ar
    23    80    82   ar
    24    18    17   ar
    25    78    77   ar
    26    27    26    1
    27    27    28    1
    28    26    25    1
    29    13    12    1
    30    13    15   ar
    31    10     9    1
    32    12     9    1
    33     9     8    1
    34    82    81   ar
    35     4     3    2
    36    77    76    1
    37    77    79   ar
    38    24    25    1
    39    24    21    1
    40    17    15   ar
    41    76    73    1
    42    23    22    2
    43     8     3   am
    44    72    73    1
    45    81    79   ar
    46     3     2    1
    47    22    21    1
    48    20    21    1
    49    73    74    1
    50    74    75    2
    51     2     5    1
    52     2     1    1
    53     5     6    1
    54     6     7    1
    55     1     7    1
    56    92    91    1
    57    83    84    1
    58    91    93    1
    59    91    90    2
    60    89    90    1
    61    89    88    1
    62    88    87    1
    63    87    84    1
    64    84    85    1
    65    85    86    2
    66    70    68   ar
    67    70    71   ar
    68    59    57   ar
    69    59    60   ar
    70    68    66   ar
    71    57    54   ar
    72    60    58   ar
    73    47    48    1
    74    71    69   ar
    75    54    52   ar
    76    54    56   ar
    77    66    65    1
    78    66    67   ar
    79    51    52    1
    80    51    48    1
    81    65    62    1
    82    52    53   ar
    83    58    56   ar
    84   105   104    1
    85    61    62    1
    86    61    49   am
    87    48    49    1
    88    69    67   ar
    89   103   104   ar
    90   103   101   ar
    91    56    55   ar
    92   104   102   ar
    93    62    63    1
    94   101    99   ar
    95    49    50    2
    96    53    55   ar
    97    63    64    2
    98   102   100   ar
    99    99   100   ar
   100    99    98    1
   101    98    95    1
   102   113   111    1
   103    94    95    1
   104   112   111    1
   105   111   110    1
   106    95    96    1
   107    96    97    2
   108   106   107    1
   109   110   107    1
   110   107   108    1
   111   108   109    2
