@<TRIPOS>MOLECULE
tmp/6f4nB00.pdb
 127 120 0 0 0
SMALL
GASTEIGER

@<TRIPOS>ATOM
      1  N        -20.8620   -3.0710   -5.3190 N.3    99  TYR99      -0.1241
      2  CA       -22.2870   -2.9850   -5.0390 C.3    99  TYR99       0.1605
      3  C        -22.8230   -1.6300   -5.4680 C.2    99  TYR99       0.2264
      4  O        -22.3460   -0.5970   -4.9910 O.2    99  TYR99      -0.2867
      5  CB       -22.5260   -3.1990   -3.5380 C.3    99  TYR99       0.0534
      6  CG       -23.9370   -3.5750   -3.1300 C.ar   99  TYR99      -0.0201
      7  CD1      -24.8990   -3.9030   -4.0700 C.ar   99  TYR99      -0.0009
      8  CD2      -24.2980   -3.6070   -1.7910 C.ar   99  TYR99      -0.0009
      9  CE1      -26.1820   -4.2430   -3.6970 C.ar   99  TYR99       0.0417
     10  CE2      -25.5800   -3.9520   -1.4030 C.ar   99  TYR99       0.0417
     11  CZ       -26.5160   -4.2660   -2.3670 C.ar   99  TYR99       0.1957
     12  OH       -27.7940   -4.6230   -2.0150 O.3    99  TYR99      -0.2866
     13  N        -30.7370   -1.2380   -5.5430 N.3   137  TRP137     -0.1241
     14  CA       -29.7050   -2.0590   -4.9150 C.3   137  TRP137      0.1605
     15  C        -29.4130   -3.1830   -5.8980 C.2   137  TRP137      0.2264
     16  O        -30.1390   -4.1730   -5.9350 O.2   137  TRP137     -0.2867
     17  CB       -30.1830   -2.6220   -3.5880 C.3   137  TRP137      0.0550
     18  CG       -30.6830   -1.5940   -2.6460 C.ar  137  TRP137      0.0003
     19  CD1      -31.9020   -0.9890   -2.6750 C.ar  137  TRP137      0.0946
     20  CD2      -29.9870   -1.0430   -1.5250 C.ar  137  TRP137      0.0152
     21  NE1      -32.0130   -0.0980   -1.6430 N.ar  137  TRP137     -0.2442
     22  CE2      -30.8490   -0.1090   -0.9190 C.ar  137  TRP137      0.0810
     23  CE3      -28.7190   -1.2470   -0.9720 C.ar  137  TRP137      0.0012
     24  CZ2      -30.4840    0.6220    0.2090 C.ar  137  TRP137      0.0191
     25  CZ3      -28.3610   -0.5210    0.1550 C.ar  137  TRP137      0.0001
     26  CH2      -29.2380    0.4010    0.7290 C.ar  137  TRP137      0.0015
     27  N        -23.0410   -9.7170   -1.9080 N.3   143  THR143     -0.1218
     28  CA       -23.0720   -8.4010   -1.2830 C.3   143  THR143      0.1862
     29  C        -23.6730   -8.5090    0.1110 C.2   143  THR143      0.2287
     30  O        -24.5790   -9.3080    0.3630 O.2   143  THR143     -0.2866
     31  CB       -23.8970   -7.4120   -2.1080 C.3   143  THR143      0.1770
     32  OG1      -25.2650   -7.8440   -2.1430 O.3   143  THR143     -0.2211
     33  CG2      -23.3560   -7.2910   -3.5290 C.3   143  THR143      0.0375
     34  N        -24.9860   -5.9390    3.3950 N.3   145  SER145     -0.1217
     35  CA       -25.2300   -4.6830    4.0870 C.3   145  SER145      0.1889
     36  C        -25.2630   -4.9550    5.5870 C.2   145  SER145      0.2288
     37  O        -26.2070   -5.6020    6.0710 O.2   145  SER145     -0.2866
     38  CB       -26.5390   -4.0600    3.6090 C.3   145  SER145      0.2089
     39  OG       -26.3590   -3.5300    2.3020 O.3   145  SER145     -0.2183
     40  N        -28.1170   -2.4330   10.4410 N.3   148  HIS148     -0.1241
     41  CA       -28.3290   -0.9990   10.5870 C.3   148  HIS148      0.1621
     42  C        -29.8230   -0.7140   10.6430 C.2   148  HIS148      0.2264
     43  O        -30.6570   -1.5970   10.4190 O.2   148  HIS148     -0.2867
     44  CB       -27.6520   -0.2180    9.4620 C.3   148  HIS148      0.0745
     45  CG       -28.3050   -0.4030    8.1270 C.ar  148  HIS148      0.0817
     46  ND1      -28.0910   -1.5230    7.3520 N.ar  148  HIS148     -0.2268
     47  CD2      -29.1950    0.3600    7.4480 C.ar  148  HIS148      0.1154
     48  CE1      -28.8010   -1.4300    6.2410 C.ar  148  HIS148      0.1986
     49  NE2      -29.4840   -0.2990    6.2760 N.ar  148  HIS148     -0.2212
     50  N        -32.8190    2.6070    9.7670 N.3   150  ASP150     -0.1239
     51  CA       -33.0950    3.7610    8.9260 C.3   150  ASP150      0.1674
     52  C        -34.1710    4.6340    9.5640 C.2   150  ASP150      0.2266
     53  O        -34.9540    4.1590   10.3940 O.2   150  ASP150     -0.2867
     54  CB       -33.5670    3.3300    7.5220 C.3   150  ASP150      0.1410
     55  CG       -32.4960    2.5840    6.7220 C.2   150  ASP150      0.3668
     56  OD1      -31.3340    3.0410    6.6870 O.co2 150  ASP150     -0.2456
     57  OD2      -32.8190    1.5420    6.1090 O.co2 150  ASP150     -0.2456
     58  N        -39.8300    1.4470    5.3380 N.3   154  ASN154     -0.1240
     59  CA       -39.2500    0.9440    4.1000 C.3   154  ASN154      0.1653
     60  C        -40.0700   -0.2000    3.5200 C.2   154  ASN154      0.2266
     61  O        -40.5010   -1.0880    4.2500 O.2   154  ASN154     -0.2867
     62  CB       -37.8110    0.4520    4.3620 C.3   154  ASN154      0.1155
     63  CG       -37.0540    0.0910    3.0880 C.2   154  ASN154      0.2627
     64  OD1      -37.5650    0.2520    1.9790 O.2   154  ASN154     -0.2716
     65  ND2      -35.8210   -0.3920    3.2500 N.am  154  ASN154     -0.0877
     66  N        -38.9560   -2.9190    0.8040 N.3   156  LEU156     -0.1245
     67  CA       -37.8670   -3.4630    0.0080 C.3   156  LEU156      0.1561
     68  C        -38.4340   -4.5120   -0.9350 C.2   156  LEU156      0.2260
     69  O        -38.9520   -5.5380   -0.4870 O.2   156  LEU156     -0.2867
     70  CB       -36.7800   -4.0430    0.9090 C.3   156  LEU156      0.0270
     71  CG       -35.5680   -4.6120    0.1760 C.3   156  LEU156      0.0019
     72  CD1      -34.8060   -3.4750   -0.5130 C.3   156  LEU156      0.0001
     73  CD2      -34.6490   -5.3550    1.1340 C.3   156  LEU156      0.0001
     74  N        -32.5180  -12.7010   -1.3600 N.3   163  LYS163     -0.1245
     75  CA       -31.7150  -12.1320   -0.2870 C.3   163  LYS163      0.1561
     76  C        -32.0740  -12.7510    1.0530 C.2   163  LYS163      0.2260
     77  O        -33.2480  -12.9710    1.3510 O.2   163  LYS163     -0.2867
     78  CB       -31.8630  -10.6050   -0.2180 C.3   163  LYS163      0.0271
     79  CG       -30.9110   -9.8530   -1.1490 C.3   163  LYS163      0.0035
     80  CD       -31.2610   -8.3810   -1.2770 C.3   163  LYS163      0.0206
     81  CE       -30.0920   -7.6080   -1.8490 C.3   163  LYS163      0.1093
     82  NZ       -30.4070   -6.1790   -2.0980 N.3   163  LYS163     -0.1314
     83  N        -40.0510   -3.0630    6.2320 N.3   221  ILE221     -0.1245
     84  CA       -39.1130   -2.8540    7.3330 C.3   221  ILE221      0.1561
     85  C        -39.6050   -1.6440    8.1140 C.2   221  ILE221      0.2260
     86  O        -39.4980   -0.4990    7.6230 O.2   221  ILE221     -0.2867
     87  CB       -37.6630   -2.6850    6.8640 C.3   221  ILE221      0.0252
     88  CG1      -37.2350   -3.8720    5.9890 C.3   221  ILE221      0.0019
     89  CG2      -36.7420   -2.5280    8.0660 C.3   221  ILE221      0.0019
     90  CD1      -35.8290   -3.7520    5.4200 C.3   221  ILE221      0.0001
     91  N        -31.8760   -4.1900   10.3920 N.3   227  HIS227     -0.1241
     92  CA       -31.9450   -5.1660    9.3170 C.3   227  HIS227      0.1621
     93  C        -30.5470   -5.4420    8.7890 C.2   227  HIS227      0.2264
     94  O        -29.6990   -4.5480    8.7490 O.2   227  HIS227     -0.2867
     95  CB       -32.8800   -4.7610    8.1550 C.3   227  HIS227      0.0745
     96  CG       -32.6680   -3.3790    7.6230 C.ar  227  HIS227      0.0817
     97  ND1      -33.0760   -2.2480    8.2970 N.ar  227  HIS227     -0.2268
     98  CD2      -32.1060   -2.9470    6.4700 C.ar  227  HIS227      0.1154
     99  CE1      -32.7740   -1.1800    7.5810 C.ar  227  HIS227      0.1986
    100  NE2      -32.1790   -1.5760    6.4700 N.ar  227  HIS227     -0.2212
    101  N        -28.6820   -7.7230    5.5450 N.3   229  VAL229     -0.1245
    102  CA       -29.0620   -8.2130    4.2250 C.3   229  VAL229      0.1561
    103  C        -27.8380   -8.7740    3.5220 C.2   229  VAL229      0.2260
    104  O        -26.8240   -8.0830    3.3750 O.2   229  VAL229     -0.2867
    105  CB       -29.6910   -7.0810    3.3830 C.3   229  VAL229      0.0252
    106  CG1      -30.0980   -7.5810    2.0020 C.3   229  VAL229      0.0019
    107  CG2      -30.8960   -6.4770    4.1070 C.3   229  VAL229      0.0019
    108  N        -35.8380   -0.2240   -2.9530 N.3   239  SER239     -0.1217
    109  CA       -36.3610    0.1890   -1.6610 C.3   239  SER239      0.1889
    110  C        -37.1410    1.4900   -1.7880 C.2   239  SER239      0.2288
    111  O        -36.8210    2.3540   -2.6070 O.2   239  SER239     -0.2866
    112  CB       -35.2400    0.3560   -0.6360 C.3   239  SER239      0.2089
    113  OG       -34.3040    1.3380   -1.0440 O.3   239  SER239     -0.2183
    114  N        -38.3660    4.3990    0.7700 N.3   241  TRP241     -0.1241
    115  CA       -38.3180    5.0390    2.0780 C.3   241  TRP241      0.1605
    116  C        -39.4330    6.0740    2.1450 C.2   241  TRP241      0.2264
    117  O        -39.4540    7.0310    1.3570 O.2   241  TRP241     -0.2867
    118  CB       -36.9540    5.6840    2.3260 C.3   241  TRP241      0.0550
    119  CG       -35.8510    4.6860    2.4870 C.ar  241  TRP241      0.0003
    120  CD1      -35.9870    3.3470    2.7190 C.ar  241  TRP241      0.0946
    121  CD2      -34.4460    4.9430    2.4160 C.ar  241  TRP241      0.0152
    122  NE1      -34.7490    2.7560    2.8010 N.ar  241  TRP241     -0.2442
    123  CE2      -33.7860    3.7140    2.6180 C.ar  241  TRP241      0.0810
    124  CE3      -33.6830    6.0920    2.2030 C.ar  241  TRP241      0.0012
    125  CZ2      -32.3940    3.6040    2.6150 C.ar  241  TRP241      0.0191
    126  CZ3      -32.2990    5.9830    2.1980 C.ar  241  TRP241      0.0001
    127  CH2      -31.6700    4.7480    2.4040 C.ar  241  TRP241      0.0015
@<TRIPOS>BOND
     1    16    15    2
     2    15    14    1
     3    13    14    1
     4     3     2    1
     5     3     4    2
     6     1     2    1
     7     2     5    1
     8    14    17    1
     9     7     9   ar
    10     7     6   ar
    11     9    11   ar
    12    17    18    1
    13     5     6    1
    14    33    31    1
    15     6     8   ar
    16   108   109    1
    17    19    18   ar
    18    19    21   ar
    19    18    20   ar
    20   111   110    2
    21    11    12    1
    22    11    10   ar
    23    32    31    1
    24    31    28    1
    25    82    81    1
    26    27    28    1
    27    81    80    1
    28     8    10   ar
    29   110   109    1
    30   109   112    1
    31    21    22   ar
    32    20    23   ar
    33    20    22   ar
    34    74    75    1
    35    28    29    1
    36    80    79    1
    37    79    78    1
    38   113   112    1
    39    23    25   ar
    40    68    69    2
    41    68    67    1
    42    22    24   ar
    43    72    71    1
    44    75    78    1
    45    75    76    1
    46    67    66    1
    47    67    70    1
    48    29    30    2
    49    25    26   ar
    50    71    70    1
    51    71    73    1
    52    24    26   ar
    53   114   115    1
    54    76    77    2
    55   117   116    2
    56    64    63    2
    57   106   105    1
    58   115   116    1
    59   115   118    1
    60   126   124   ar
    61   126   127   ar
    62   124   121   ar
    63    39    38    1
    64   118   119    1
    65   127   125   ar
    66   121   119   ar
    67   121   123   ar
    68   119   120   ar
    69   125   123   ar
    70   123   122   ar
    71   120   122   ar
    72    63    65   am
    73    63    62    1
    74   104   103    2
    75   105   107    1
    76   105   102    1
    77    34    35    1
    78    60    59    1
    79    60    61    2
    80   103   102    1
    81    38    35    1
    82    35    36    1
    83    59    62    1
    84    59    58    1
    85   102   101    1
    86    90    88    1
    87    36    37    2
    88    88    87    1
    89    57    55   ar
    90    83    84    1
    91    48    49   ar
    92    48    46   ar
    93    49    47   ar
    94    98   100   ar
    95    98    96   ar
    96   100    99   ar
    97    56    55   ar
    98    55    54    1
    99    87    84    1
   100    87    89    1
   101    84    85    1
   102    46    45   ar
   103    47    45   ar
   104    54    51    1
   105    99    97   ar
   106    96    95    1
   107    96    97   ar
   108    86    85    2
   109    45    44    1
   110    95    92    1
   111    94    93    2
   112    93    92    1
   113    51    52    1
   114    51    50    1
   115    92    91    1
   116    44    41    1
   117    52    53    2
   118    43    42    2
   119    40    41    1
   120    41    42    1
