@<TRIPOS>MOLECULE
tmp/6f4oA00.pdb
 113 108 0 0 0
SMALL
GASTEIGER

@<TRIPOS>ATOM
      1  N          2.6530    8.9880  -18.4270 N.3    85  TYR85      -0.1241
      2  CA         1.2430    9.3230  -18.2080 C.3    85  TYR85       0.1605
      3  C          0.4890    8.0330  -17.9610 C.2    85  TYR85       0.2264
      4  O          0.4860    7.1260  -18.8110 O.2    85  TYR85      -0.2867
      5  CB         0.6900   10.0050  -19.4460 C.3    85  TYR85       0.0534
      6  CG        -0.6240   10.7560  -19.3030 C.ar   85  TYR85      -0.0201
      7  CD1       -1.2520   10.9630  -18.0780 C.ar   85  TYR85      -0.0009
      8  CD2       -1.2200   11.3000  -20.4290 C.ar   85  TYR85      -0.0009
      9  CE1       -2.4280   11.7110  -17.9970 C.ar   85  TYR85       0.0417
     10  CE2       -2.3740   12.0530  -20.3430 C.ar   85  TYR85       0.0417
     11  CZ        -2.9570   12.2630  -19.1330 C.ar   85  TYR85       0.1957
     12  OH        -4.1200   13.0310  -18.9830 O.3    85  TYR85      -0.2866
     13  N         -6.8640    9.2990  -15.4560 N.3   123  TRP123     -0.1241
     14  CA        -5.8240   10.0090  -16.1910 C.3   123  TRP123      0.1605
     15  C         -4.9670   10.6770  -15.1350 C.2   123  TRP123      0.2264
     16  O         -5.3550   11.7130  -14.5910 O.2   123  TRP123     -0.2867
     17  CB        -6.4190   11.0590  -17.1390 C.3   123  TRP123      0.0550
     18  CG        -7.4210   10.5100  -18.0650 C.ar  123  TRP123      0.0003
     19  CD1       -8.7270   10.2250  -17.7580 C.ar  123  TRP123      0.0946
     20  CD2       -7.2300   10.1480  -19.4210 C.ar  123  TRP123      0.0152
     21  NE1       -9.3550    9.6970  -18.8230 N.ar  123  TRP123     -0.2442
     22  CE2       -8.5040    9.6450  -19.8780 C.ar  123  TRP123      0.0810
     23  CE3       -6.1580   10.2190  -20.3090 C.ar  123  TRP123      0.0012
     24  CZ2       -8.7110    9.2180  -21.1650 C.ar  123  TRP123      0.0191
     25  CZ3       -6.3970    9.7760  -21.6480 C.ar  123  TRP123      0.0001
     26  CH2       -7.6570    9.3130  -22.0370 C.ar  123  TRP123      0.0015
     27  N          1.8890   16.4840  -19.4530 N.3   129  THR129     -0.1218
     28  CA         1.2890   15.4550  -20.2910 C.3   129  THR129      0.1862
     29  C          0.4370   16.1060  -21.3540 C.2   129  THR129      0.2287
     30  O         -0.2300   17.1290  -21.1020 O.2   129  THR129     -0.2866
     31  CB         0.4650   14.4580  -19.4920 C.3   129  THR129      0.1770
     32  OG1       -0.6510   15.1290  -18.8760 O.3   129  THR129     -0.2211
     33  CG2        1.2960   13.7370  -18.4520 C.3   129  THR129      0.0375
     34  N         -2.4020   15.0240  -24.4510 N.3   131  SER131     -0.1217
     35  CA        -3.2030   14.1580  -25.2930 C.3   131  SER131      0.1889
     36  C         -3.4530   14.9090  -26.5860 C.2   131  SER131      0.2288
     37  O         -4.1280   15.9490  -26.5600 O.2   131  SER131     -0.2866
     38  CB        -4.5050   13.8050  -24.6110 C.3   131  SER131      0.2089
     39  OG        -4.2110   13.0090  -23.4510 O.3   131  SER131     -0.2183
     40  N         -7.9630   14.6980  -30.8320 N.3   134  HIS134     -0.1241
     41  CA        -8.6200   13.4460  -31.2500 C.3   134  HIS134      0.1621
     42  C        -10.0890   13.5060  -30.8580 C.2   134  HIS134      0.2264
     43  O        -10.5280   14.4060  -30.1570 O.2   134  HIS134     -0.2867
     44  CB        -7.9620   12.2050  -30.5980 C.3   134  HIS134      0.0745
     45  CG        -8.2340   12.1270  -29.1370 C.ar  134  HIS134      0.0817
     46  ND1       -7.6000   12.9200  -28.2080 N.ar  134  HIS134     -0.2268
     47  CD2       -9.1260   11.4030  -28.4240 C.ar  134  HIS134      0.1154
     48  CE1       -8.0770   12.6970  -27.0050 C.ar  134  HIS134      0.1986
     49  NE2       -9.0290   11.7700  -27.1140 N.ar  134  HIS134     -0.2212
     50  N        -13.5580   11.0350  -29.6430 N.3   136  ASP136     -0.1239
     51  CA       -13.9790    9.7600  -29.0640 C.3   136  ASP136      0.1674
     52  C        -15.3780    9.4020  -29.5110 C.2   136  ASP136      0.2266
     53  O        -16.1470   10.2530  -29.9480 O.2   136  ASP136     -0.2867
     54  CB       -13.9550    9.8350  -27.5350 C.3   136  ASP136      0.1410
     55  CG       -12.5280    9.9300  -26.9880 C.2   136  ASP136      0.3668
     56  OD1      -11.7220    9.0620  -27.3800 O.co2 136  ASP136     -0.2456
     57  OD2      -12.1840   10.8330  -26.2120 O.co2 136  ASP136     -0.2456
     58  N        -18.6690   12.3290  -23.2220 N.3   140  ASN140     -0.1240
     59  CA       -17.6780   12.2590  -22.1540 C.3   140  ASN140      0.1653
     60  C        -17.9320   13.3340  -21.1150 C.2   140  ASN140      0.2266
     61  O        -18.1680   14.4940  -21.4540 O.2   140  ASN140     -0.2867
     62  CB       -16.2690   12.4050  -22.7350 C.3   140  ASN140      0.1155
     63  CG       -15.1440   12.3160  -21.7040 C.2   140  ASN140      0.2627
     64  OD1      -15.2960   11.8530  -20.5870 O.2   140  ASN140     -0.2716
     65  ND2      -13.9840   12.7870  -22.1280 N.am  140  ASN140     -0.0877
     66  N        -15.5090   14.7560  -18.3030 N.3   142  LEU142     -0.1245
     67  CA       -14.1480   14.7520  -17.7930 C.3   142  LEU142      0.1561
     68  C        -14.1260   15.5380  -16.4920 C.2   142  LEU142      0.2260
     69  O        -14.3330   16.7540  -16.4910 O.2   142  LEU142     -0.2867
     70  CB       -13.2100   15.3630  -18.8180 C.3   142  LEU142      0.0270
     71  CG       -11.7230   15.3470  -18.4830 C.3   142  LEU142      0.0019
     72  CD1      -11.1310   13.9490  -18.4120 C.3   142  LEU142      0.0001
     73  CD2      -10.9410   16.1720  -19.5250 C.3   142  LEU142      0.0001
     74  N         -5.9390   21.5680  -16.2660 N.3   149  LYS149     -0.1245
     75  CA        -5.6440   21.2210  -17.6490 C.3   149  LYS149      0.1561
     76  C         -6.0860   22.3010  -18.6190 C.2   149  LYS149      0.2260
     77  O         -7.1970   22.8370  -18.4970 O.2   149  LYS149     -0.2867
     78  CB        -6.3700   19.9020  -18.0170 C.3   149  LYS149      0.0271
     79  CG        -5.5790   18.6980  -17.5870 C.3   149  LYS149      0.0035
     80  CD        -6.3000   17.3760  -17.6960 C.3   149  LYS149      0.0206
     81  CE        -5.2870   16.2270  -17.7150 C.3   149  LYS149      0.1093
     82  NZ        -5.9630   14.8750  -17.6170 N.3   149  LYS149     -0.1314
     83  N        -10.8540   17.0640  -29.2020 N.3   213  HIS213     -0.1241
     84  CA       -10.3120   17.6420  -27.9850 C.3   213  HIS213      0.1621
     85  C         -8.8210   17.3630  -27.8680 C.2   213  HIS213      0.2264
     86  O         -8.3400   16.3170  -28.2780 O.2   213  HIS213     -0.2867
     87  CB       -11.0610   17.1770  -26.7230 C.3   213  HIS213      0.0745
     88  CG       -11.2430   15.6950  -26.6140 C.ar  213  HIS213      0.0817
     89  ND1      -12.1400   14.9980  -27.3960 N.ar  213  HIS213     -0.2268
     90  CD2      -10.7100   14.7880  -25.7630 C.ar  213  HIS213      0.1154
     91  CE1      -12.1120   13.7230  -27.0600 C.ar  213  HIS213      0.1986
     92  NE2      -11.2440   13.5570  -26.0730 N.ar  213  HIS213     -0.2212
     93  N         -5.5940   18.1230  -24.8590 N.3   215  VAL215     -0.1245
     94  CA        -5.5030   18.3210  -23.4250 C.3   215  VAL215      0.1561
     95  C         -4.0470   18.3920  -22.9930 C.2   215  VAL215      0.2260
     96  O         -3.2960   17.4340  -23.2520 O.2   215  VAL215     -0.2867
     97  CB        -6.2010   17.1780  -22.6600 C.3   215  VAL215      0.0252
     98  CG1       -6.1340   17.4330  -21.1790 C.3   215  VAL215      0.0019
     99  CG2       -7.6480   17.0190  -23.1020 C.3   215  VAL215      0.0019
    100  N        -17.3020    7.7690  -20.0080 N.3   227  TRP227     -0.1241
    101  CA       -17.7420    7.6030  -21.3800 C.3   227  TRP227      0.1605
    102  C        -19.1000    6.9080  -21.3810 C.2   227  TRP227      0.2264
    103  O        -19.2330    5.7940  -20.8290 O.2   227  TRP227     -0.2867
    104  CB       -16.7130    6.7920  -22.1660 C.3   227  TRP227      0.0550
    105  CG       -15.4030    7.5530  -22.3210 C.ar  227  TRP227      0.0003
    106  CD1      -15.1700    8.8670  -22.0110 C.ar  227  TRP227      0.0946
    107  CD2      -14.1710    7.0540  -22.8620 C.ar  227  TRP227      0.0152
    108  NE1      -13.8620    9.2210  -22.3200 N.ar  227  TRP227     -0.2442
    109  CE2      -13.2570    8.1380  -22.8830 C.ar  227  TRP227      0.0810
    110  CE3      -13.7670    5.8220  -23.3540 C.ar  227  TRP227      0.0012
    111  CZ2      -11.9390    7.9920  -23.3320 C.ar  227  TRP227      0.0191
    112  CZ3      -12.4480    5.6850  -23.8100 C.ar  227  TRP227      0.0001
    113  CH2      -11.5650    6.7590  -23.7880 C.ar  227  TRP227      0.0015
@<TRIPOS>BOND
     1    41    42    1
     2    41    40    1
     3    41    44    1
     4    42    43    2
     5    44    45    1
     6    53    52    2
     7    50    51    1
     8    52    51    1
     9    83    84    1
    10    45    47   ar
    11    45    46   ar
    12    51    54    1
    13    47    49   ar
    14    86    85    2
    15    46    48   ar
    16    84    85    1
    17    84    87    1
    18    54    55    1
    19    89    91   ar
    20    89    88   ar
    21    56    55   ar
    22    49    48   ar
    23    91    92   ar
    24    55    57   ar
    25    87    88    1
    26    88    90   ar
    27    36    37    2
    28    36    35    1
    29    92    90   ar
    30    35    38    1
    31    35    34    1
    32    93    94    1
    33    38    39    1
    34   112   113   ar
    35   112   110   ar
    36   113   111   ar
    37    94    95    1
    38    94    97    1
    39   110   107   ar
    40   111   109   ar
    41    96    95    2
    42    58    59    1
    43    99    97    1
    44   109   107   ar
    45   109   108   ar
    46   107   105   ar
    47    62    59    1
    48    62    63    1
    49    97    98    1
    50   105   104    1
    51   105   106   ar
    52   108   106   ar
    53   104   101    1
    54    59    60    1
    55    65    63   am
    56    26    25   ar
    57    26    24   ar
    58    63    64    2
    59    25    23   ar
    60    61    60    2
    61   102   101    1
    62   102   103    2
    63   101   100    1
    64    29    30    2
    65    29    28    1
    66    24    22   ar
    67     8    10   ar
    68     8     6   ar
    69    10    11   ar
    70    23    20   ar
    71    28    31    1
    72    28    27    1
    73    22    20   ar
    74    22    21   ar
    75    73    71    1
    76    31    32    1
    77    31    33    1
    78     5     6    1
    79     5     2    1
    80    20    18   ar
    81     6     7   ar
    82    11    12    1
    83    11     9   ar
    84    21    19   ar
    85    70    71    1
    86    70    67    1
    87     4     3    2
    88    76    77    2
    89    76    75    1
    90    71    72    1
    91     1     2    1
    92    66    67    1
    93     2     3    1
    94     7     9   ar
    95    18    19   ar
    96    18    17    1
    97    78    75    1
    98    78    79    1
    99    67    68    1
   100    81    80    1
   101    81    82    1
   102    80    79    1
   103    75    74    1
   104    17    14    1
   105    68    69    2
   106    14    13    1
   107    14    15    1
   108    15    16    2
