@<TRIPOS>MOLECULE
tmp/6f4pA00.pdb
 130 126 0 0 0
SMALL
GASTEIGER

@<TRIPOS>ATOM
      1  N          2.0540    4.9650  -20.7600 N.3    58  GLU58      -0.1245
      2  CA         2.5140    5.4710  -22.0530 C.3    58  GLU58       0.1567
      3  C          3.7210    6.3580  -21.8120 C.2    58  GLU58       0.2260
      4  O          3.6700    7.2650  -20.9870 O.2    58  GLU58      -0.2867
      5  CB         1.4250    6.3040  -22.7390 C.3    58  GLU58       0.0388
      6  CG         0.1320    5.5790  -22.9640 C.3    58  GLU58       0.1160
      7  CD        -0.9640    6.4710  -23.5140 C.2    58  GLU58       0.3649
      8  OE1       -0.8350    7.7220  -23.4830 O.co2  58  GLU58      -0.2457
      9  OE2       -1.9760    5.9000  -23.9670 O.co2  58  GLU58      -0.2457
     10  N          1.1670   10.4010  -28.2210 N.3    63  TYR63      -0.1241
     11  CA         1.0380    9.0510  -28.7520 C.3    63  TYR63       0.1605
     12  C          1.2580    8.9870  -30.2530 C.2    63  TYR63       0.2264
     13  O          1.4090    7.8840  -30.7900 O.2    63  TYR63      -0.2867
     14  CB        -0.2760    8.3870  -28.3290 C.3    63  TYR63       0.0534
     15  CG        -1.5550    8.9100  -28.9300 C.ar   63  TYR63      -0.0201
     16  CD1       -1.9040    8.6420  -30.2510 C.ar   63  TYR63      -0.0009
     17  CD2       -2.4580    9.5920  -28.1430 C.ar   63  TYR63      -0.0009
     18  CE1       -3.1010    9.0890  -30.7800 C.ar   63  TYR63       0.0417
     19  CE2       -3.6550   10.0540  -28.6600 C.ar   63  TYR63       0.0417
     20  CZ        -3.9700    9.7960  -29.9690 C.ar   63  TYR63       0.1957
     21  OH        -5.1710   10.2420  -30.4620 O.3    63  TYR63      -0.2866
     22  N          2.6090    8.6020  -18.6740 N.3    92  TYR92      -0.1241
     23  CA         1.1830    8.8950  -18.4900 C.3    92  TYR92       0.1605
     24  C          0.4320    7.5980  -18.2700 C.2    92  TYR92       0.2264
     25  O          0.4370    6.7090  -19.1270 O.2    92  TYR92      -0.2867
     26  CB         0.6370    9.6070  -19.7290 C.3    92  TYR92       0.0534
     27  CG        -0.6740   10.3600  -19.6060 C.ar   92  TYR92      -0.0201
     28  CD1       -1.2880   10.5700  -18.3930 C.ar   92  TYR92      -0.0009
     29  CD2       -1.2220   10.9500  -20.7270 C.ar   92  TYR92      -0.0009
     30  CE1       -2.4460   11.3460  -18.3050 C.ar   92  TYR92       0.0417
     31  CE2       -2.3820   11.6960  -20.6650 C.ar   92  TYR92       0.0417
     32  CZ        -2.9830   11.9030  -19.4330 C.ar   92  TYR92       0.1957
     33  OH        -4.1160   12.6830  -19.2920 O.3    92  TYR92      -0.2866
     34  N         -2.6560    6.5060  -18.7880 N.3    94  ALA94      -0.1231
     35  CA        -3.7390    7.0670  -19.5730 C.3    94  ALA94       0.1694
     36  C         -4.7800    6.0280  -19.9570 C.2    94  ALA94       0.2591
     37  O         -4.4640    4.8630  -20.2140 O.2    94  ALA94      -0.2718
     38  CB        -3.1580    7.6050  -20.8890 C.3    94  ALA94       0.0304
     39  N         -6.0240    6.4600  -19.9790 N.am   95  GLN95      -0.1979
     40  CA        -7.1250    5.7110  -20.5450 C.3    95  GLN95       0.1601
     41  C         -7.1760    4.2860  -19.9950 C.2    95  GLN95       0.2287
     42  O         -7.2460    3.3050  -20.7400 O.2    95  GLN95      -0.2864
     43  CB        -7.0160    5.7110  -22.0670 C.3    95  GLN95       0.0394
     44  CG        -8.2620    5.1690  -22.7770 C.3    95  GLN95       0.0908
     45  CD        -8.1680    5.2600  -24.2940 C.2    95  GLN95       0.2608
     46  OE1       -8.2190    6.3400  -24.8500 O.2    95  GLN95      -0.2717
     47  NE2       -8.0250    4.1190  -24.9620 N.am   95  GLN95      -0.0878
     48  N         -6.9720    8.8910  -15.7940 N.3   130  TRP130     -0.1241
     49  CA        -5.9020    9.6110  -16.5050 C.3   130  TRP130      0.1605
     50  C         -5.0380   10.2890  -15.4580 C.2   130  TRP130      0.2264
     51  O         -5.4620   11.2930  -14.8760 O.2   130  TRP130     -0.2867
     52  CB        -6.4600   10.6650  -17.4540 C.3   130  TRP130      0.0550
     53  CG        -7.4460   10.1550  -18.4530 C.ar  130  TRP130      0.0003
     54  CD1       -8.7750    9.8720  -18.2530 C.ar  130  TRP130      0.0946
     55  CD2       -7.1820    9.9120  -19.8380 C.ar  130  TRP130      0.0152
     56  NE1       -9.3330    9.4280  -19.4260 N.ar  130  TRP130     -0.2442
     57  CE2       -8.3990    9.4780  -20.4190 C.ar  130  TRP130      0.0810
     58  CE3       -6.0450   10.0280  -20.6480 C.ar  130  TRP130      0.0012
     59  CZ2       -8.4920    9.1420  -21.7670 C.ar  130  TRP130      0.0191
     60  CZ3       -6.1510    9.7120  -21.9840 C.ar  130  TRP130      0.0001
     61  CH2       -7.3620    9.2680  -22.5230 C.ar  130  TRP130      0.0015
     62  N          0.4210   15.2550  -22.8120 N.3   137  ILE137     -0.1231
     63  CA        -0.3340   15.7820  -23.9410 C.3   137  ILE137      0.1692
     64  C         -1.0550   14.6150  -24.5880 C.2   137  ILE137      0.2592
     65  O         -0.4240   13.6180  -24.9640 O.2   137  ILE137     -0.2718
     66  CB         0.5740   16.4590  -24.9730 C.3   137  ILE137      0.0266
     67  CG1        1.1930   17.7150  -24.3480 C.3   137  ILE137      0.0019
     68  CG2       -0.2070   16.8060  -26.2490 C.3   137  ILE137      0.0020
     69  CD1        2.2370   18.3600  -25.2080 C.3   137  ILE137      0.0001
     70  N         -2.3630   14.7740  -24.8010 N.am  138  SER138     -0.1952
     71  CA        -3.1790   13.8980  -25.6240 C.3   138  SER138      0.1924
     72  C         -3.4630   14.6750  -26.9010 C.2   138  SER138      0.2314
     73  O         -4.2200   15.6670  -26.8760 O.2   138  SER138     -0.2863
     74  CB        -4.4700   13.5290  -24.9010 C.3   138  SER138      0.2116
     75  OG        -4.2250   12.5880  -23.8560 O.3   138  SER138     -0.2180
     76  N         -7.9360   14.5070  -31.0940 N.3   141  HIS141     -0.1241
     77  CA        -8.5990   13.2770  -31.5360 C.3   141  HIS141      0.1621
     78  C        -10.0790   13.3400  -31.1890 C.2   141  HIS141      0.2264
     79  O        -10.5320   14.2310  -30.4560 O.2   141  HIS141     -0.2867
     80  CB        -7.9620   12.0280  -30.9170 C.3   141  HIS141      0.0745
     81  CG        -8.2430   11.8960  -29.4590 C.ar  141  HIS141      0.0817
     82  ND1       -7.5540   12.6230  -28.5220 N.ar  141  HIS141     -0.2268
     83  CD2       -9.1670   11.1700  -28.7780 C.ar  141  HIS141      0.1154
     84  CE1       -8.0480   12.3570  -27.3170 C.ar  141  HIS141      0.1986
     85  NE2       -9.0270   11.4730  -27.4430 N.ar  141  HIS141     -0.2212
     86  N        -13.6390   10.7530  -30.1840 N.3   143  ASP143     -0.1239
     87  CA       -14.0610    9.4860  -29.6030 C.3   143  ASP143      0.1674
     88  C        -15.4770    9.1580  -30.0420 C.2   143  ASP143      0.2266
     89  O        -16.2560   10.0560  -30.3920 O.2   143  ASP143     -0.2867
     90  CB       -14.0170    9.5350  -28.0710 C.3   143  ASP143      0.1410
     91  CG       -12.5870    9.6710  -27.5270 C.2   143  ASP143      0.3668
     92  OD1      -11.7260    8.8960  -28.0130 O.co2 143  ASP143     -0.2456
     93  OD2      -12.3430   10.5630  -26.7060 O.co2 143  ASP143     -0.2456
     94  N         -5.7290    5.3270  -37.2520 N.3   177  LEU177     -0.1245
     95  CA        -5.4760    6.6480  -36.6840 C.3   177  LEU177      0.1561
     96  C         -6.4020    7.6680  -37.3010 C.2   177  LEU177      0.2260
     97  O         -6.1770    8.8600  -37.1270 O.2   177  LEU177     -0.2867
     98  CB        -4.0210    7.1480  -36.7880 C.3   177  LEU177      0.0270
     99  CG        -2.9040    6.5170  -35.9700 C.3   177  LEU177      0.0019
    100  CD1       -1.5550    7.0120  -36.4380 C.3   177  LEU177      0.0001
    101  CD2       -3.1170    6.9640  -34.5320 C.3   177  LEU177      0.0001
    102  N         -9.1440    8.6450  -36.3740 N.3   179  ASN179     -0.1225
    103  CA        -9.7620    9.4690  -35.3460 C.3   179  ASN179      0.1785
    104  C         -8.7930   10.4600  -34.7180 C.2   179  ASN179      0.2597
    105  O         -9.1600   11.1090  -33.7340 O.2   179  ASN179     -0.2718
    106  CB       -10.3550    8.5860  -34.2410 C.3   179  ASN179      0.1169
    107  CG        -9.2930    8.0140  -33.3300 C.2   179  ASN179      0.2627
    108  OD1       -8.2230    7.6160  -33.7930 O.2   179  ASN179     -0.2716
    109  ND2       -9.5630    7.9990  -32.0250 N.am  179  ASN179     -0.0877
    110  N         -7.5920   10.6040  -35.2700 N.am  180  THR180     -0.1953
    111  CA        -6.5630   11.4910  -34.7310 C.3   180  THR180      0.1897
    112  C         -6.1230   12.4670  -35.8130 C.2   180  THR180      0.2313
    113  O         -5.9300   12.0950  -36.9690 O.2   180  THR180     -0.2863
    114  CB        -5.3650   10.6690  -34.2500 C.3   180  THR180      0.1794
    115  OG1       -5.8070    9.7900  -33.2180 O.3   180  THR180     -0.2208
    116  CG2       -4.2940   11.5680  -33.6610 C.3   180  THR180      0.0378
    117  N        -17.3800    7.3700  -20.4240 N.3   234  TRP234     -0.1241
    118  CA       -17.8210    7.2170  -21.7960 C.3   234  TRP234      0.1605
    119  C        -19.2040    6.5790  -21.7860 C.2   234  TRP234      0.2264
    120  O        -19.4090    5.5040  -21.1940 O.2   234  TRP234     -0.2867
    121  CB       -16.8580    6.3400  -22.5910 C.3   234  TRP234      0.0550
    122  CG       -15.6610    7.0200  -23.1150 C.ar  234  TRP234      0.0003
    123  CD1      -15.0470    8.1190  -22.6260 C.ar  234  TRP234      0.0946
    124  CD2      -14.9390    6.6170  -24.2730 C.ar  234  TRP234      0.0152
    125  NE1      -13.9380    8.4330  -23.4200 N.ar  234  TRP234     -0.2442
    126  CE2      -13.8720    7.5130  -24.4400 C.ar  234  TRP234      0.0810
    127  CE3      -15.0980    5.5720  -25.1930 C.ar  234  TRP234      0.0012
    128  CZ2      -12.9650    7.3910  -25.4880 C.ar  234  TRP234      0.0191
    129  CZ3      -14.1990    5.4580  -26.2330 C.ar  234  TRP234      0.0001
    130  CH2      -13.1520    6.3610  -26.3760 C.ar  234  TRP234      0.0015
@<TRIPOS>BOND
     1    96    97    2
     2    96    95    1
     3    94    95    1
     4   113   112    2
     5    98    95    1
     6    98    99    1
     7   100    99    1
     8   102   103    1
     9    99   101    1
    10   112   111    1
    11   103   104    1
    12   103   106    1
    13   110   111    1
    14   110   104   am
    15   111   114    1
    16   104   105    2
    17   114   116    1
    18   114   115    1
    19   106   107    1
    20   108   107    2
    21   107   109   am
    22    77    78    1
    23    77    76    1
    24    77    80    1
    25    78    79    2
    26    80    81    1
    27    13    12    2
    28    18    16   ar
    29    18    20   ar
    30    21    20    1
    31    89    88    2
    32    12    11    1
    33    16    15   ar
    34    86    87    1
    35    88    87    1
    36    20    19   ar
    37    87    90    1
    38    81    83   ar
    39    81    82   ar
    40    15    14    1
    41    15    17   ar
    42    83    85   ar
    43    11    14    1
    44    11    10    1
    45    19    17   ar
    46    82    84   ar
    47    90    91    1
    48    92    91   ar
    49    91    93   ar
    50    85    84   ar
    51    72    73    2
    52    72    71    1
    53   130   129   ar
    54   130   128   ar
    55    68    66    1
    56   129   127   ar
    57    71    74    1
    58    71    70    1
    59   128   126   ar
    60    69    67    1
    61   127   124   ar
    62    66    67    1
    63    66    63    1
    64    65    64    2
    65    47    45   am
    66    74    75    1
    67    46    45    2
    68    70    64   am
    69    64    63    1
    70   126   124   ar
    71   126   125   ar
    72    45    44    1
    73   124   122   ar
    74     9     7   ar
    75    63    62    1
    76     7     8   ar
    77     7     6    1
    78   125   123   ar
    79   122   123   ar
    80   122   121    1
    81     6     5    1
    82    44    43    1
    83     5     2    1
    84   121   118    1
    85    61    60   ar
    86    61    59   ar
    87    43    40    1
    88     2     3    1
    89     2     1    1
    90    60    58   ar
    91     3     4    2
    92   118   119    1
    93   118   117    1
    94   119   120    2
    95    59    57   ar
    96    38    35    1
    97    42    41    2
    98    29    31   ar
    99    29    27   ar
   100    31    32   ar
   101    58    55   ar
   102    40    41    1
   103    40    39    1
   104    57    55   ar
   105    57    56   ar
   106    37    36    2
   107    39    36   am
   108    36    35    1
   109    55    53   ar
   110    26    27    1
   111    26    23    1
   112    27    28   ar
   113    35    34    1
   114    32    33    1
   115    32    30   ar
   116    56    54   ar
   117    25    24    2
   118    22    23    1
   119    23    24    1
   120    53    54   ar
   121    53    52    1
   122    28    30   ar
   123    52    49    1
   124    49    48    1
   125    49    50    1
   126    50    51    2
