@<TRIPOS>MOLECULE
tmp/6f4qA00.pdb
 99 97 0 0 0
SMALL
GASTEIGER

@<TRIPOS>ATOM
      1  N         -2.0830   -4.9530  -20.7060 N.3    57  GLU57      -0.1245
      2  CA        -2.5050   -5.4440  -21.9990 C.3    57  GLU57       0.1567
      3  C         -3.7290   -6.3170  -21.7900 C.2    57  GLU57       0.2260
      4  O         -3.7150   -7.2610  -20.9880 O.2    57  GLU57      -0.2867
      5  CB        -1.4060   -6.3020  -22.6220 C.3    57  GLU57       0.0388
      6  CG        -0.0670   -5.6160  -22.7950 C.3    57  GLU57       0.1160
      7  CD         1.0130   -6.5540  -23.3680 C.2    57  GLU57       0.3649
      8  OE1        0.8950   -7.8030  -23.2290 O.co2  57  GLU57      -0.2457
      9  OE2        2.0190   -6.0420  -23.9020 O.co2  57  GLU57      -0.2457
     10  N         -1.1950  -10.3630  -28.1350 N.3    62  TYR62      -0.1241
     11  CA        -1.0330   -9.0150  -28.6840 C.3    62  TYR62       0.1605
     12  C         -1.2210   -8.9490  -30.1880 C.2    62  TYR62       0.2264
     13  O         -1.3650   -7.8430  -30.7310 O.2    62  TYR62      -0.2867
     14  CB         0.2930   -8.3890  -28.2880 C.3    62  TYR62       0.0534
     15  CG         1.5530   -8.9390  -28.9020 C.ar   62  TYR62      -0.0201
     16  CD1        1.9280   -8.6470  -30.1980 C.ar   62  TYR62      -0.0009
     17  CD2        2.4290   -9.6770  -28.1450 C.ar   62  TYR62      -0.0009
     18  CE1        3.1140   -9.1370  -30.7270 C.ar   62  TYR62       0.0417
     19  CE2        3.6190  -10.1610  -28.6660 C.ar   62  TYR62       0.0417
     20  CZ         3.9430   -9.8830  -29.9440 C.ar   62  TYR62       0.1957
     21  OH         5.1320  -10.3680  -30.4220 O.3    62  TYR62      -0.2866
     22  N         -7.3250   -6.9180  -29.0720 N.3    67  TRP67      -0.1241
     23  CA        -6.3250   -6.5960  -28.0560 C.3    67  TRP67       0.1605
     24  C         -6.1440   -5.0930  -27.8920 C.2    67  TRP67       0.2264
     25  O         -6.1860   -4.3240  -28.8620 O.2    67  TRP67      -0.2867
     26  CB        -5.0140   -7.2230  -28.4690 C.3    67  TRP67       0.0550
     27  CG        -3.8840   -7.1170  -27.5070 C.ar   67  TRP67       0.0003
     28  CD1       -3.5760   -7.9910  -26.5030 C.ar   67  TRP67       0.0946
     29  CD2       -2.8490   -6.1360  -27.5100 C.ar   67  TRP67       0.0152
     30  NE1       -2.4140   -7.6070  -25.8750 N.ar   67  TRP67      -0.2442
     31  CE2       -1.9450   -6.4710  -26.4740 C.ar   67  TRP67       0.0810
     32  CE3       -2.5940   -5.0000  -28.2820 C.ar   67  TRP67       0.0012
     33  CZ2       -0.8230   -5.7140  -26.1980 C.ar   67  TRP67       0.0191
     34  CZ3       -1.4740   -4.2450  -27.9980 C.ar   67  TRP67       0.0001
     35  CH2       -0.6020   -4.6040  -26.9700 C.ar   67  TRP67       0.0015
     36  N         -4.4580   -1.8180  -24.9350 N.3    69  GLN69      -0.1245
     37  CA        -3.6100   -1.4540  -23.8160 C.3    69  GLN69       0.1566
     38  C         -4.3090   -0.3660  -23.0150 C.2    69  GLN69       0.2260
     39  O         -4.8830    0.5730  -23.5930 O.2    69  GLN69      -0.2867
     40  CB        -2.2930   -0.9070  -24.3260 C.3    69  GLN69       0.0367
     41  CG        -1.4920   -1.8750  -25.1920 C.3    69  GLN69       0.0905
     42  CD        -0.3510   -1.1950  -25.9310 C.2    69  GLN69       0.2608
     43  OE1        0.8160   -1.5450  -25.7550 O.2    69  GLN69      -0.2717
     44  NE2       -0.6870   -0.2230  -26.7690 N.am   69  GLN69      -0.0878
     45  N         -2.6660   -8.5300  -18.6310 N.3    91  TYR91      -0.1241
     46  CA        -1.2600   -8.8590  -18.4180 C.3    91  TYR91       0.1605
     47  C         -0.5100   -7.5680  -18.1800 C.2    91  TYR91       0.2264
     48  O         -0.4860   -6.6770  -19.0420 O.2    91  TYR91      -0.2867
     49  CB        -0.6980   -9.5670  -19.6560 C.3    91  TYR91       0.0534
     50  CG         0.6090  -10.3150  -19.5100 C.ar   91  TYR91      -0.0201
     51  CD1        1.2660  -10.4970  -18.2930 C.ar   91  TYR91      -0.0009
     52  CD2        1.1680  -10.9060  -20.6340 C.ar   91  TYR91      -0.0009
     53  CE1        2.4340  -11.2550  -18.2200 C.ar   91  TYR91       0.0417
     54  CE2        2.3440  -11.6600  -20.5670 C.ar   91  TYR91       0.0417
     55  CZ         2.9590  -11.8400  -19.3460 C.ar   91  TYR91       0.1957
     56  OH         4.0920  -12.6100  -19.1980 O.3    91  TYR91      -0.2866
     57  N          2.5750   -6.5070  -18.6330 N.3    93  ALA93      -0.1245
     58  CA         3.6540   -7.0370  -19.4440 C.3    93  ALA93       0.1562
     59  C          4.6850   -5.9810  -19.7760 C.2    93  ALA93       0.2260
     60  O          4.3530   -4.8060  -19.9890 O.2    93  ALA93      -0.2867
     61  CB         3.1030   -7.5800  -20.7730 C.3    93  ALA93       0.0290
     62  N          6.8600   -8.8770  -15.6970 N.3   129  TRP129     -0.1241
     63  CA         5.8230   -9.5960  -16.4380 C.3   129  TRP129      0.1605
     64  C          4.9500  -10.2620  -15.3720 C.2   129  TRP129      0.2264
     65  O          5.3290  -11.3060  -14.8300 O.2   129  TRP129     -0.2867
     66  CB         6.4330  -10.6630  -17.3680 C.3   129  TRP129      0.0550
     67  CG         7.4360  -10.1160  -18.3410 C.ar  129  TRP129      0.0003
     68  CD1        8.7540   -9.8270  -18.0880 C.ar  129  TRP129      0.0946
     69  CD2        7.2220   -9.8070  -19.7100 C.ar  129  TRP129      0.0152
     70  NE1        9.3580   -9.3310  -19.2000 N.ar  129  TRP129     -0.2442
     71  CE2        8.4530   -9.3250  -20.2250 C.ar  129  TRP129      0.0810
     72  CE3        6.1090   -9.9070  -20.5650 C.ar  129  TRP129      0.0012
     73  CZ2        8.6050   -8.9380  -21.5380 C.ar  129  TRP129      0.0191
     74  CZ3        6.2780   -9.5320  -21.9030 C.ar  129  TRP129      0.0001
     75  CH2        7.5180   -9.0670  -22.3730 C.ar  129  TRP129      0.0015
     76  N         -0.4720  -15.2590  -22.7210 N.3   136  ILE136     -0.1231
     77  CA         0.3030  -15.7730  -23.8420 C.3   136  ILE136      0.1692
     78  C          1.0320  -14.6180  -24.4870 C.2   136  ILE136      0.2592
     79  O          0.3950  -13.6230  -24.8900 O.2   136  ILE136     -0.2718
     80  CB        -0.5850  -16.4760  -24.8770 C.3   136  ILE136      0.0266
     81  CG1       -1.1970  -17.7320  -24.2610 C.3   136  ILE136      0.0019
     82  CG2        0.2130  -16.8080  -26.1300 C.3   136  ILE136      0.0020
     83  CD1       -2.2900  -18.3720  -25.1520 C.3   136  ILE136      0.0001
     84  N          2.3500  -14.7680  -24.6520 N.am  137  SER137     -0.1952
     85  CA         3.1530  -13.9050  -25.4960 C.3   137  SER137      0.1924
     86  C          3.4570  -14.6600  -26.7730 C.2   137  SER137      0.2314
     87  O          4.2280  -15.6360  -26.7380 O.2   137  SER137     -0.2863
     88  CB         4.4490  -13.5210  -24.8010 C.3   137  SER137      0.2116
     89  OG         4.1680  -12.5770  -23.7580 O.3   137  SER137     -0.2180
     90  N          7.9810  -14.5060  -30.9610 N.3   140  HIS140     -0.1241
     91  CA         8.6160  -13.2760  -31.4200 C.3   140  HIS140      0.1621
     92  C         10.0960  -13.3330  -31.0620 C.2   140  HIS140      0.2264
     93  O         10.5340  -14.2030  -30.3110 O.2   140  HIS140     -0.2867
     94  CB         7.9590  -12.0220  -30.8060 C.3   140  HIS140      0.0745
     95  CG         8.2430  -11.8860  -29.3350 C.ar  140  HIS140      0.0817
     96  ND1        7.5720  -12.6200  -28.3910 N.ar  140  HIS140     -0.2268
     97  CD2        9.1640  -11.1550  -28.6510 C.ar  140  HIS140      0.1154
     98  CE1        8.0670  -12.3310  -27.1900 C.ar  140  HIS140      0.1986
     99  NE2        9.0380  -11.4430  -27.3170 N.ar  140  HIS140     -0.2212
@<TRIPOS>BOND
     1    91    92    1
     2    91    90    1
     3    91    94    1
     4    92    93    2
     5    94    95    1
     6    13    12    2
     7    18    16   ar
     8    18    20   ar
     9    21    20    1
    10    16    15   ar
    11    12    11    1
    12    20    19   ar
    13    95    97   ar
    14    95    96   ar
    15    22    23    1
    16    15    14    1
    17    15    17   ar
    18    25    24    2
    19    11    14    1
    20    11    10    1
    21    19    17   ar
    22    97    99   ar
    23    26    23    1
    24    26    27    1
    25    96    98   ar
    26    32    34   ar
    27    32    29   ar
    28    23    24    1
    29    34    35   ar
    30    29    27   ar
    31    29    31   ar
    32    27    28   ar
    33    99    98   ar
    34    35    33   ar
    35    86    87    2
    36    86    85    1
    37    44    42   am
    38    28    30   ar
    39    31    33   ar
    40    31    30   ar
    41    82    80    1
    42    42    43    2
    43    42    41    1
    44    85    88    1
    45    85    84    1
    46    41    40    1
    47    83    81    1
    48    36    37    1
    49    79    78    2
    50    80    81    1
    51    80    77    1
    52    88    89    1
    53    84    78   am
    54    78    77    1
    55    40    37    1
    56     9     7   ar
    57    77    76    1
    58    37    38    1
    59    39    38    2
    60     7     8   ar
    61     7     6    1
    62     6     5    1
    63     5     2    1
    64    75    74   ar
    65    75    73   ar
    66     2     3    1
    67     2     1    1
    68    74    72   ar
    69     3     4    2
    70    73    71   ar
    71    61    58    1
    72    52    54   ar
    73    52    50   ar
    74    54    55   ar
    75    72    69   ar
    76    71    69   ar
    77    71    70   ar
    78    60    59    2
    79    59    58    1
    80    69    67   ar
    81    49    50    1
    82    49    46    1
    83    50    51   ar
    84    58    57    1
    85    55    56    1
    86    55    53   ar
    87    70    68   ar
    88    48    47    2
    89    45    46    1
    90    46    47    1
    91    67    68   ar
    92    67    66    1
    93    51    53   ar
    94    66    63    1
    95    63    62    1
    96    63    64    1
    97    64    65    2
