@<TRIPOS>MOLECULE
tmp/6f4tA01.pdb
 113 105 0 0 0
SMALL
GASTEIGER

@<TRIPOS>ATOM
      1  N          2.6410    8.3810  -18.8400 N.3    91  TYR91      -0.1241
      2  CA         1.2300    8.7020  -18.6070 C.3    91  TYR91       0.1605
      3  C          0.4870    7.4300  -18.3530 C.2    91  TYR91       0.2264
      4  O          0.4720    6.5260  -19.2270 O.2    91  TYR91      -0.2867
      5  CB         0.7060    9.4260  -19.8520 C.3    91  TYR91       0.0534
      6  CG        -0.6040   10.1870  -19.7270 C.ar   91  TYR91      -0.0201
      7  CD1       -1.2520   10.3560  -18.5230 C.ar   91  TYR91      -0.0009
      8  CD2       -1.1310   10.7650  -20.8650 C.ar   91  TYR91      -0.0009
      9  CE1       -2.4240   11.1570  -18.4400 C.ar   91  TYR91       0.0417
     10  CE2       -2.2950   11.5470  -20.7820 C.ar   91  TYR91       0.0417
     11  CZ        -2.8990   11.7420  -19.5810 C.ar   91  TYR91       0.1957
     12  OH        -4.0220   12.5560  -19.4290 O.3    91  TYR91      -0.2866
     13  N         -6.8800    8.7810  -16.0180 N.3   129  TRP129     -0.1241
     14  CA        -5.8040    9.4920  -16.7300 C.3   129  TRP129      0.1605
     15  C         -4.9610   10.1390  -15.6630 C.2   129  TRP129      0.2264
     16  O         -5.3510   11.2080  -15.1370 O.2   129  TRP129     -0.2867
     17  CB        -6.3930   10.5580  -17.6690 C.3   129  TRP129      0.0550
     18  CG        -7.3590   10.0140  -18.6760 C.ar  129  TRP129      0.0003
     19  CD1       -8.6890    9.7180  -18.4460 C.ar  129  TRP129      0.0946
     20  CD2       -7.0980    9.7310  -20.0320 C.ar  129  TRP129      0.0152
     21  NE1       -9.2410    9.2300  -19.6100 N.ar  129  TRP129     -0.2442
     22  CE2       -8.3190    9.2370  -20.6110 C.ar  129  TRP129      0.0810
     23  CE3       -5.9870    9.8610  -20.8480 C.ar  129  TRP129      0.0012
     24  CZ2       -8.3890    8.8880  -21.9570 C.ar  129  TRP129      0.0191
     25  CZ3       -6.0820    9.4820  -22.2190 C.ar  129  TRP129      0.0001
     26  CH2       -7.3200    9.0340  -22.7300 C.ar  129  TRP129      0.0015
     27  N          1.9120   16.0160  -19.7970 N.3   135  THR135     -0.1218
     28  CA         1.3460   15.0100  -20.7050 C.3   135  THR135      0.1862
     29  C          0.5320   15.7240  -21.7680 C.2   135  THR135      0.2287
     30  O         -0.1450   16.7510  -21.5070 O.2   135  THR135     -0.2866
     31  CB         0.4750   13.9750  -19.9830 C.3   135  THR135      0.1770
     32  OG1       -0.6410   14.6370  -19.3480 O.3   135  THR135     -0.2211
     33  CG2        1.2660   13.2180  -18.9280 C.3   135  THR135      0.0375
     34  N         -2.2450   14.7230  -24.9860 N.3   137  SER137     -0.1217
     35  CA        -3.0440   13.8560  -25.8040 C.3   137  SER137      0.1889
     36  C         -3.3400   14.6080  -27.0850 C.2   137  SER137      0.2288
     37  O         -4.0760   15.6280  -27.0560 O.2   137  SER137     -0.2866
     38  CB        -4.3310   13.4510  -25.1260 C.3   137  SER137      0.2089
     39  OG        -4.0320   12.5690  -24.0500 O.3   137  SER137     -0.2183
     40  N         -7.7920   14.4910  -31.3520 N.3   140  HIS140     -0.1241
     41  CA        -8.4500   13.2750  -31.8130 C.3   140  HIS140      0.1621
     42  C         -9.9220   13.3480  -31.4650 C.2   140  HIS140      0.2264
     43  O        -10.3620   14.2210  -30.7110 O.2   140  HIS140     -0.2867
     44  CB        -7.7900   12.0260  -31.1980 C.3   140  HIS140      0.0745
     45  CG        -8.0560   11.8810  -29.7420 C.ar  140  HIS140      0.0817
     46  ND1       -7.3910   12.6100  -28.8000 N.ar  140  HIS140     -0.2268
     47  CD2       -8.9800   11.1700  -29.0530 C.ar  140  HIS140      0.1154
     48  CE1       -7.8780   12.3360  -27.5860 C.ar  140  HIS140      0.1986
     49  NE2       -8.8740   11.4550  -27.7310 N.ar  140  HIS140     -0.2212
     50  N        -13.4740   10.7570  -30.4370 N.3   142  ASP142     -0.1239
     51  CA       -13.8970    9.4810  -29.8830 C.3   142  ASP142      0.1674
     52  C        -15.3150    9.1600  -30.3290 C.2   142  ASP142      0.2266
     53  O        -16.1040   10.0500  -30.6690 O.2   142  ASP142     -0.2867
     54  CB       -13.8190    9.4980  -28.3600 C.3   142  ASP142      0.1410
     55  CG       -12.3890    9.6150  -27.8560 C.2   142  ASP142      0.3668
     56  OD1      -11.5180    8.8520  -28.3110 O.co2 142  ASP142     -0.2456
     57  OD2      -12.1540   10.4460  -26.9850 O.co2 142  ASP142     -0.2456
     58  N        -18.5250   11.8090  -23.7670 N.3   146  ASN146     -0.1240
     59  CA       -17.5540   11.7110  -22.6730 C.3   146  ASN146      0.1653
     60  C        -17.8390   12.7760  -21.6480 C.2   146  ASN146      0.2266
     61  O        -18.0670   13.9550  -22.0120 O.2   146  ASN146     -0.2867
     62  CB       -16.1560   11.8500  -23.2660 C.3   146  ASN146      0.1155
     63  CG       -15.0370   11.6550  -22.2760 C.2   146  ASN146      0.2627
     64  OD1      -15.1900   11.4360  -21.0680 O.2   146  ASN146     -0.2716
     65  ND2      -13.8010   11.8110  -22.7600 N.am  146  ASN146     -0.0877
     66  N        -15.3720   14.1960  -18.8610 N.3   148  LEU148     -0.1245
     67  CA       -14.0050   14.2000  -18.3590 C.3   148  LEU148      0.1561
     68  C        -13.9750   14.9870  -17.0700 C.2   148  LEU148      0.2260
     69  O        -14.1950   16.2150  -17.0700 O.2   148  LEU148     -0.2867
     70  CB       -13.0940   14.7640  -19.4110 C.3   148  LEU148      0.0270
     71  CG       -11.5900   14.7710  -19.0350 C.3   148  LEU148      0.0019
     72  CD1      -11.0150   13.4010  -18.8550 C.3   148  LEU148      0.0001
     73  CD2      -10.8060   15.5670  -20.0810 C.3   148  LEU148      0.0001
     74  N         -5.9260   20.9800  -16.5780 N.3   155  LYS155     -0.1245
     75  CA        -5.6430   20.6610  -17.9670 C.3   155  LYS155      0.1561
     76  C         -6.0680   21.7830  -18.9060 C.2   155  LYS155      0.2260
     77  O         -7.1730   22.3320  -18.7640 O.2   155  LYS155     -0.2867
     78  CB        -6.3470   19.3650  -18.3740 C.3   155  LYS155      0.0271
     79  CG        -5.5080   18.1090  -18.0450 C.3   155  LYS155      0.0035
     80  CD        -6.2400   16.8030  -18.1300 C.3   155  LYS155      0.0206
     81  CE        -5.2560   15.6730  -18.1580 C.3   155  LYS155      0.1093
     82  NZ        -5.9390   14.3240  -18.1160 N.3   155  LYS155     -0.1314
     83  N        -17.6030   16.3620  -23.4580 N.3   213  ILE213     -0.1245
     84  CA       -17.0270   16.3040  -24.7900 C.3   213  ILE213      0.1561
     85  C        -18.0480   15.5500  -25.6570 C.2   213  ILE213      0.2260
     86  O        -18.1500   14.2920  -25.5170 O.2   213  ILE213     -0.2867
     87  CB       -15.6460   15.6400  -24.8310 C.3   213  ILE213      0.0252
     88  CG1      -14.7000   16.2810  -23.8700 C.3   213  ILE213      0.0019
     89  CG2      -15.1350   15.6540  -26.3120 C.3   213  ILE213      0.0019
     90  CD1      -13.3090   15.6410  -23.8230 C.3   213  ILE213      0.0001
     91  N        -10.7270   16.8430  -29.6490 N.3   219  HIS219     -0.1241
     92  CA       -10.1790   17.3750  -28.4280 C.3   219  HIS219      0.1621
     93  C         -8.6900   17.1270  -28.3210 C.2   219  HIS219      0.2264
     94  O         -8.2040   16.0610  -28.7430 O.2   219  HIS219     -0.2867
     95  CB       -10.9620   16.8800  -27.1790 C.3   219  HIS219      0.0745
     96  CG       -11.1110   15.4100  -27.0940 C.ar  219  HIS219      0.0817
     97  ND1      -12.0050   14.6990  -27.9000 N.ar  219  HIS219     -0.2268
     98  CD2      -10.5280   14.4510  -26.3300 C.ar  219  HIS219      0.1154
     99  CE1      -11.9750   13.4140  -27.6120 C.ar  219  HIS219      0.1986
    100  NE2      -11.0720   13.2280  -26.6510 N.ar  219  HIS219     -0.2212
    101  N         -5.5140   17.8020  -25.2610 N.3   221  VAL221     -0.1245
    102  CA        -5.4310   17.9380  -23.8100 C.3   221  VAL221      0.1561
    103  C         -3.9920   18.0070  -23.3540 C.2   221  VAL221      0.2260
    104  O         -3.2350   17.0430  -23.6340 O.2   221  VAL221     -0.2867
    105  CB        -6.1610   16.7790  -23.1010 C.3   221  VAL221      0.0252
    106  CG1       -6.0730   16.9530  -21.6100 C.3   221  VAL221      0.0019
    107  CG2       -7.5630   16.6380  -23.5440 C.3   221  VAL221      0.0019
    108  N        -12.5990    9.7820  -16.8410 N.3   231  SER231     -0.1217
    109  CA       -13.5300    9.9100  -17.9400 C.3   231  SER231      0.1889
    110  C        -14.5930    8.8430  -17.8700 C.2   231  SER231      0.2288
    111  O        -14.3140    7.6990  -17.5010 O.2   231  SER231     -0.2866
    112  CB       -12.8490    9.9030  -19.3300 C.3   231  SER231      0.2089
    113  OG       -12.2270    8.6550  -19.7290 O.3   231  SER231     -0.2183
@<TRIPOS>BOND
     1    41    42    1
     2    41    40    1
     3    41    44    1
     4    42    43    2
     5    44    45    1
     6    53    52    2
     7    50    51    1
     8    52    51    1
     9    51    54    1
    10    45    47   ar
    11    45    46   ar
    12    91    92    1
    13    47    49   ar
    14    46    48   ar
    15    94    93    2
    16    92    93    1
    17    92    95    1
    18    54    55    1
    19    56    55   ar
    20    97    99   ar
    21    97    96   ar
    22    55    57   ar
    23    49    48   ar
    24    99   100   ar
    25    95    96    1
    26    96    98   ar
    27    36    37    2
    28    36    35    1
    29   100    98   ar
    30    89    87    1
    31    35    38    1
    32    35    34    1
    33    85    86    2
    34    85    84    1
    35   101   102    1
    36    38    39    1
    37    87    84    1
    38    87    88    1
    39    84    83    1
    40    88    90    1
    41   102   103    1
    42   102   105    1
    43    58    59    1
    44   104   103    2
    45   107   105    1
    46    62    59    1
    47    62    63    1
    48   105   106    1
    49    65    63   am
    50    26    25   ar
    51    26    24   ar
    52    59    60    1
    53    63    64    2
    54    25    23   ar
    55    61    60    2
    56    24    22   ar
    57    29    30    2
    58    29    28    1
    59     8    10   ar
    60     8     6   ar
    61    23    20   ar
    62    10    11   ar
    63    28    31    1
    64    28    27    1
    65    22    20   ar
    66    22    21   ar
    67    73    71    1
    68    20    18   ar
    69    31    32    1
    70    31    33    1
    71     5     6    1
    72     5     2    1
    73   113   112    1
    74     6     7   ar
    75    21    19   ar
    76    11    12    1
    77    11     9   ar
    78    70    71    1
    79    70    67    1
    80   112   109    1
    81     4     3    2
    82    71    72    1
    83    76    77    2
    84    76    75    1
    85    66    67    1
    86     1     2    1
    87    18    19   ar
    88    18    17    1
    89     2     3    1
    90     7     9   ar
    91    78    79    1
    92    78    75    1
    93    67    68    1
    94    81    80    1
    95    81    82    1
    96    80    79    1
    97    75    74    1
    98   109   110    1
    99   109   108    1
   100   110   111    2
   101    17    14    1
   102    69    68    2
   103    14    13    1
   104    14    15    1
   105    15    16    2
