@<TRIPOS>MOLECULE
tmp/6f4xD00.pdb
 125 119 0 0 0
SMALL
GASTEIGER

@<TRIPOS>ATOM
      1  N          5.0310   15.4400  -12.3600 N.3    20  GLY20      -0.1225
      2  CA         4.1270   14.3770  -11.9480 C.3    20  GLY20       0.1811
      3  C          3.5580   14.5550  -10.5510 C.2    20  GLY20       0.2280
      4  O          2.4510   14.0940  -10.2630 O.2    20  GLY20      -0.2866
      5  N          0.6590   16.0220  -13.3830 N.3    62  HIS62      -0.1226
      6  CA         0.1610   15.0470  -14.3490 C.3    62  HIS62       0.1752
      7  C          0.1730   13.6020  -13.8660 C.2    62  HIS62       0.2597
      8  O         -0.2570   12.7200  -14.6210 O.2    62  HIS62      -0.2718
      9  CB         0.9190   15.1470  -15.6980 C.3    62  HIS62       0.0759
     10  CG         2.3910   14.8470  -15.6420 C.ar   62  HIS62       0.0818
     11  ND1        2.9050   13.6410  -15.2090 N.ar   62  HIS62      -0.2268
     12  CD2        3.4600   15.5880  -16.0260 C.ar   62  HIS62       0.1154
     13  CE1        4.2230   13.6640  -15.3000 C.ar   62  HIS62       0.1986
     14  NE2        4.5850   14.8290  -15.8070 N.ar   62  HIS62      -0.2212
     15  N          0.6100   13.3320  -12.6370 N.am   63  GLY63      -0.1942
     16  CA         0.5620   11.9450  -12.1500 C.3    63  GLY63       0.2014
     17  C          1.6420   11.0710  -12.7750 C.2    63  GLY63       0.2638
     18  O          2.5440   11.5450  -13.4520 O.2    63  GLY63      -0.2714
     19  N          1.5280    9.7560  -12.5550 N.am   64  MET64      -0.1976
     20  CA         2.5940    8.8490  -12.9720 C.3    64  MET64       0.1605
     21  C          2.1130    7.9490  -14.1020 C.2    64  MET64       0.2287
     22  O          1.0130    7.3910  -14.0300 O.2    64  MET64      -0.2864
     23  CB         3.0960    8.0100  -11.7950 C.3    64  MET64       0.0413
     24  CG         3.6460    8.8610  -10.6460 C.3    64  MET64       0.0598
     25  SD         4.4270    7.8730   -9.3430 S.3    64  MET64      -0.1393
     26  CE         3.0100    6.9630   -8.7140 C.3    64  MET64       0.0692
     27  N          7.8700   19.7930  -19.4630 N.3    87  ARG87      -0.1245
     28  CA         7.7520   18.7990  -18.4110 C.3    87  ARG87       0.1563
     29  C          9.0950   18.5880  -17.7320 C.2    87  ARG87       0.2260
     30  O         10.1120   18.3850  -18.4020 O.2    87  ARG87      -0.2867
     31  CB         7.2350   17.4890  -18.9900 C.3    87  ARG87       0.0307
     32  CG         6.8800   16.4920  -17.9450 C.3    87  ARG87       0.0489
     33  CD         7.8410   15.3690  -18.0250 C.3    87  ARG87       0.2205
     34  NE         7.7710   14.5500  -16.8360 N.pl3  87  ARG87      -0.0865
     35  CZ         8.1650   13.2920  -16.8060 C.cat  87  ARG87       0.5346
     36  NH1        8.6360   12.7380  -17.9120 N.pl3  87  ARG87       0.1354
     37  NH2        8.0630   12.5960  -15.6880 N.pl3  87  ARG87       0.1354
     38  N         10.9560   16.5150  -14.1760 N.3    89  GLY89      -0.1210
     39  CA        10.7440   15.3720  -13.3130 C.3    89  GLY89       0.1956
     40  C         12.0640   14.7030  -13.0070 C.2    89  GLY89       0.2613
     41  O         13.1270   15.2190  -13.3390 O.2    89  GLY89      -0.2717
     42  N         11.9740   13.5440  -12.3680 N.am   90  THR90      -0.1938
     43  CA        13.1530   12.7740  -11.9990 C.3    90  THR90       0.2028
     44  C         13.3100   11.5820  -12.9450 C.2    90  THR90       0.2642
     45  O         12.4250   11.2770  -13.7500 O.2    90  THR90      -0.2714
     46  CB        13.0460   12.3140  -10.5420 C.3    90  THR90       0.1808
     47  OG1       11.9740   11.3820  -10.4200 O.3    90  THR90      -0.2208
     48  CG2       12.7360   13.5060   -9.6190 C.3    90  THR90       0.0379
     49  N         14.4720   10.9260  -12.8730 N.am   91  CYS91      -0.1953
     50  CA        14.6730    9.7390  -13.6900 C.3    91  CYS91       0.1843
     51  C         15.7410    8.8580  -13.0610 C.2    91  CYS91       0.2626
     52  O         16.4810    9.2810  -12.1600 O.2    91  CYS91      -0.2714
     53  CB        15.0520   10.1070  -15.1320 C.3    91  CYS91       0.0997
     54  SG        16.6010   11.0450  -15.2360 S.3    91  CYS91      -0.0797
     55  N         15.7810    7.6120  -13.5270 N.am   92  GLY92      -0.1954
     56  CA        16.7880    6.6660  -13.1140 C.3    92  GLY92       0.1869
     57  C         17.8260    6.5210  -14.2030 C.2    92  GLY92       0.2309
     58  O         17.5140    6.0970  -15.3120 O.2    92  GLY92      -0.2863
     59  N          7.7420    1.0000  -13.2270 N.3   159  PHE159     -0.1241
     60  CA         8.7280    1.5320  -12.2950 C.3   159  PHE159      0.1605
     61  C          9.6380    0.4220  -11.7900 C.2   159  PHE159      0.2264
     62  O         10.8600    0.6050  -11.6770 O.2   159  PHE159     -0.2867
     63  CB         8.0210    2.2180  -11.1170 C.3   159  PHE159      0.0534
     64  CG         8.9650    2.8950  -10.1650 C.ar  159  PHE159     -0.0203
     65  CD1        9.4630    4.1610  -10.4410 C.ar  159  PHE159     -0.0042
     66  CD2        9.3480    2.2670   -8.9860 C.ar  159  PHE159     -0.0042
     67  CE1       10.3450    4.7820   -9.5560 C.ar  159  PHE159     -0.0003
     68  CE2       10.2240    2.8690   -8.1060 C.ar  159  PHE159     -0.0003
     69  CZ        10.7250    4.1330   -8.3890 C.ar  159  PHE159     -0.0000
     70  N         15.7900    6.3130  -17.4740 N.3   178  ILE178     -0.1231
     71  CA        14.4330    5.7820  -17.5920 C.3   178  ILE178      0.1692
     72  C         13.5000    6.6710  -16.7820 C.2   178  ILE178      0.2592
     73  O         13.8130    7.0280  -15.6400 O.2   178  ILE178     -0.2718
     74  CB        14.3430    4.3320  -17.0850 C.3   178  ILE178      0.0266
     75  CG1       15.2770    3.4050  -17.8620 C.3   178  ILE178      0.0019
     76  CG2       12.8860    3.8390  -17.1080 C.3   178  ILE178      0.0020
     77  CD1       15.1800    1.9720  -17.3990 C.3   178  ILE178      0.0001
     78  N         12.3670    7.0420  -17.3740 N.am  179  GLU179     -0.1966
     79  CA        11.2720    7.5980  -16.5890 C.3   179  GLU179      0.1733
     80  C          9.9890    6.9630  -17.1120 C.2   179  GLU179      0.2616
     81  O         10.0440    5.8390  -17.6240 O.2   179  GLU179     -0.2715
     82  CB        11.2630    9.1330  -16.6420 C.3   179  GLU179      0.0429
     83  CG        11.5800    9.7380  -18.0000 C.3   179  GLU179      0.1163
     84  CD        10.4070    9.6470  -18.9430 C.2   179  GLU179      0.3649
     85  OE1       10.4590    8.8030  -19.8610 O.co2 179  GLU179     -0.2457
     86  OE2        9.4180   10.3760  -18.7360 O.co2 179  GLU179     -0.2457
     87  N          8.8310    7.6300  -16.9930 N.am  180  MET180     -0.1963
     88  CA         7.5800    6.9220  -17.2760 C.3   180  MET180      0.1736
     89  C          6.5430    7.7210  -18.0560 C.2   180  MET180      0.2616
     90  O          5.3820    7.2810  -18.1450 O.2   180  MET180     -0.2715
     91  CB         6.9380    6.4370  -15.9640 C.3   180  MET180      0.0427
     92  CG         7.7870    5.4010  -15.2440 C.3   180  MET180      0.0599
     93  SD         7.0970    4.7530  -13.7050 S.3   180  MET180     -0.1393
     94  CE         5.6990    3.7800  -14.2890 C.3   180  MET180      0.0692
     95  N          6.8930    8.8820  -18.6090 N.am  181  GLU181     -0.1977
     96  CA         5.8650    9.7300  -19.2100 C.3   181  GLU181      0.1602
     97  C          6.2520   10.3750  -20.5290 C.2   181  GLU181      0.2287
     98  O          5.3440   10.7060  -21.3020 O.2   181  GLU181     -0.2864
     99  CB         5.4480   10.8530  -18.2420 C.3   181  GLU181      0.0415
    100  CG         4.7280   10.3880  -16.9690 C.3   181  GLU181      0.1163
    101  CD         5.6830    9.9960  -15.8760 C.2   181  GLU181      0.3649
    102  OE1        6.8560   10.4190  -15.9160 O.co2 181  GLU181     -0.2457
    103  OE2        5.2820    9.2360  -14.9860 O.co2 181  GLU181     -0.2457
    104  N         17.8890   11.3610  -10.0740 N.3   203  SER203     -0.1202
    105  CA        17.7630   11.2110   -8.6330 C.3   203  SER203      0.2020
    106  C         18.2910    9.8720   -8.1440 C.2   203  SER203      0.2618
    107  O         18.5800    9.7260   -6.9480 O.2   203  SER203     -0.2717
    108  CB        16.2900   11.3420   -8.2180 C.3   203  SER203      0.2103
    109  OG        15.5070   10.2880   -8.7820 O.3   203  SER203     -0.2182
    110  N         18.4150    8.9030   -9.0420 N.am  204  ASP204     -0.1973
    111  CA        18.8340    7.5500   -8.7180 C.3   204  ASP204      0.1709
    112  C         19.6350    7.0080   -9.8900 C.2   204  ASP204      0.2293
    113  O         19.3280    7.3010  -11.0450 O.2   204  ASP204     -0.2864
    114  CB        17.6250    6.6370   -8.4570 C.3   204  ASP204      0.1436
    115  CG        16.8180    7.0640   -7.2480 C.2   204  ASP204      0.3671
    116  OD1       17.1670    6.6240   -6.1330 O.co2 204  ASP204     -0.2456
    117  OD2       15.8340    7.8230   -7.4130 O.co2 204  ASP204     -0.2456
    118  N         20.3620    3.5650  -11.6310 N.3   206  LEU206     -0.1245
    119  CA        19.9140    2.1770  -11.6250 C.3   206  LEU206      0.1561
    120  C         21.0660    1.1860  -11.7900 C.2   206  LEU206      0.2260
    121  O         20.8830    0.0020  -11.4880 O.2   206  LEU206     -0.2867
    122  CB        18.8570    1.9600  -12.7220 C.3   206  LEU206      0.0270
    123  CG        17.6640    2.9230  -12.6460 C.3   206  LEU206      0.0019
    124  CD1       16.6260    2.7330  -13.7560 C.3   206  LEU206      0.0001
    125  CD2       17.0040    2.8720  -11.2620 C.3   206  LEU206      0.0001
@<TRIPOS>BOND
     1    98    97    2
     2    97    96    1
     3    85    84   ar
     4    27    28    1
     5    96    95    1
     6    96    99    1
     7    31    28    1
     8    31    32    1
     9    84    86   ar
    10    84    83    1
    11    95    89   am
    12    28    29    1
    13    30    29    2
    14    99   100    1
    15    90    89    2
    16    89    88    1
    17    33    32    1
    18    33    34    1
    19    83    82    1
    20    36    35    1
    21    75    77    1
    22    75    74    1
    23    81    80    2
    24    71    70    1
    25    71    74    1
    26    71    72    1
    27    78    72   am
    28    78    79    1
    29    88    87    1
    30    88    91    1
    31    80    87   am
    32    80    79    1
    33    76    74    1
    34   100   101    1
    35    34    35    2
    36    35    37    1
    37    72    73    2
    38    82    79    1
    39    12    14   ar
    40    12    10   ar
    41    91    92    1
    42   102   101   ar
    43   101   103   ar
    44    14    13   ar
    45     9    10    1
    46     9     6    1
    47    10    11   ar
    48    58    57    2
    49    13    11   ar
    50    92    93    1
    51    54    53    1
    52    53    50    1
    53     8     7    2
    54     6     7    1
    55     6     5    1
    56    94    93    1
    57    57    56    1
    58    38    39    1
    59    21    22    2
    60    21    20    1
    61     7    15   am
    62   124   123    1
    63    45    44    2
    64    50    51    1
    65    50    49    1
    66    55    56    1
    67    55    51   am
    68    18    17    2
    69    41    40    2
    70    39    40    1
    71    59    60    1
    72    51    52    2
    73    40    42   am
    74    20    19    1
    75    20    23    1
    76    44    49   am
    77    44    43    1
    78    17    19   am
    79    17    16    1
    80   122   123    1
    81   122   119    1
    82   123   125    1
    83    15    16    1
    84    42    43    1
    85     1     2    1
    86    60    61    1
    87    60    63    1
    88    43    46    1
    89     2     3    1
    90    23    24    1
    91    61    62    2
    92   120   119    1
    93   120   121    2
    94   118   119    1
    95    63    64    1
    96   113   112    2
    97    24    25    1
    98     3     4    2
    99    46    47    1
   100    46    48    1
   101    65    64   ar
   102    65    67   ar
   103    64    66   ar
   104   104   105    1
   105   112   111    1
   106    67    69   ar
   107    25    26    1
   108   110   111    1
   109   110   106   am
   110    66    68   ar
   111   109   108    1
   112   111   114    1
   113   105   108    1
   114   105   106    1
   115   114   115    1
   116    69    68   ar
   117   106   107    2
   118   117   115   ar
   119   115   116   ar
