@<TRIPOS>MOLECULE
tmp/6f59C00.pdb
 81 75 0 0 0
SMALL
GASTEIGER

@<TRIPOS>ATOM
      1  N         -4.6820   -9.3940    0.2620 N.3     2  LEU2       -0.1245
      2  CA        -5.2560  -10.3840   -0.6460 C.3     2  LEU2        0.1561
      3  C         -6.3970  -11.1270    0.0460 C.2     2  LEU2        0.2260
      4  O         -6.1800  -11.8190    1.0450 O.2     2  LEU2       -0.2867
      5  CB        -4.1930  -11.3700   -1.1000 C.3     2  LEU2        0.0270
      6  CG        -4.7400  -12.5930   -1.8300 C.3     2  LEU2        0.0019
      7  CD1       -5.2860  -12.1960   -3.2290 C.3     2  LEU2        0.0001
      8  CD2       -3.6450  -13.6250   -1.9800 C.3     2  LEU2        0.0001
      9  N         -7.1550   -7.2870   -3.6950 N.3    41  GLY41      -0.1210
     10  CA        -5.8350   -7.1490   -3.1270 C.3    41  GLY41       0.1956
     11  C         -4.7090   -7.7010   -3.9630 C.2    41  GLY41       0.2611
     12  O         -3.5820   -7.7890   -3.4670 O.2    41  GLY41      -0.2717
     13  N         -4.9780   -8.0980   -5.2060 N.am   42  LEU42      -0.1979
     14  CA        -3.9140   -8.3750   -6.1500 C.3    42  LEU42       0.1596
     15  C         -3.3540   -7.0620   -6.6840 C.2    42  LEU42       0.2287
     16  O         -3.9970   -6.0110   -6.6110 O.2    42  LEU42      -0.2864
     17  CB        -4.4320   -9.2230   -7.3070 C.3    42  LEU42       0.0297
     18  CG        -4.8450  -10.6570   -6.9680 C.3    42  LEU42       0.0022
     19  CD1       -5.4080  -11.3500   -8.2280 C.3    42  LEU42       0.0001
     20  CD2       -3.6720  -11.4130   -6.3930 C.3    42  LEU42       0.0001
     21  N         -0.8320  -13.2300  -13.0500 N.3    48  TYR48      -0.1241
     22  CA        -1.1330  -14.3210  -12.1290 C.3    48  TYR48       0.1605
     23  C         -1.8320  -15.4740  -12.8300 C.2    48  TYR48       0.2264
     24  O         -2.5910  -15.2740  -13.7820 O.2    48  TYR48      -0.2867
     25  CB        -2.0710  -13.8860  -11.0000 C.3    48  TYR48       0.0534
     26  CG        -1.5840  -12.7370  -10.1580 C.ar   48  TYR48      -0.0201
     27  CD1       -0.7670  -12.9470   -9.0570 C.ar   48  TYR48      -0.0009
     28  CD2       -1.9610  -11.4430  -10.4560 C.ar   48  TYR48      -0.0009
     29  CE1       -0.3480  -11.8770   -8.2650 C.ar   48  TYR48       0.0417
     30  CE2       -1.5410  -10.3780   -9.6970 C.ar   48  TYR48       0.0417
     31  CZ        -0.7360  -10.5930   -8.6090 C.ar   48  TYR48       0.1957
     32  OH        -0.3490   -9.5120   -7.8720 O.3    48  TYR48      -0.2866
     33  N         -3.1200  -19.2020   -5.9570 N.3   126  ILE126     -0.1231
     34  CA        -2.7200  -18.0820   -6.8010 C.3   126  ILE126      0.1692
     35  C         -1.2050  -18.0290   -6.8430 C.2   126  ILE126      0.2592
     36  O         -0.5600  -18.1000   -5.7940 O.2   126  ILE126     -0.2718
     37  CB        -3.2550  -16.7430   -6.2710 C.3   126  ILE126      0.0266
     38  CG1       -4.7450  -16.8430   -5.9710 C.3   126  ILE126      0.0019
     39  CG2       -2.9140  -15.6240   -7.2510 C.3   126  ILE126      0.0020
     40  CD1       -5.3550  -15.5340   -5.5660 C.3   126  ILE126      0.0001
     41  N         -0.6360  -17.8920   -8.0480 N.am  127  VAL127     -0.1966
     42  CA         0.8050  -17.7510   -8.2320 C.3   127  VAL127      0.1727
     43  C          1.0490  -16.5810   -9.1700 C.2   127  VAL127      0.2616
     44  O          0.2800  -16.3690  -10.1160 O.2   127  VAL127     -0.2715
     45  CB         1.4660  -19.0280   -8.8050 C.3   127  VAL127      0.0290
     46  CG1        1.1190  -20.2440   -7.9700 C.3   127  VAL127      0.0023
     47  CG2        1.0240  -19.2520  -10.2390 C.3   127  VAL127      0.0023
     48  N          2.1150  -15.8210   -8.9050 N.am  128  ARG128     -0.1977
     49  CA         2.5400  -14.7390   -9.7800 C.3   128  ARG128      0.1597
     50  C          3.4490  -15.3150  -10.8640 C.2   128  ARG128      0.2287
     51  O          4.4380  -15.9940  -10.5550 O.2   128  ARG128     -0.2864
     52  CB         3.2460  -13.6290   -9.0010 C.3   128  ARG128      0.0334
     53  CG         3.3120  -12.2780   -9.7760 C.3   128  ARG128      0.0492
     54  CD         4.0880  -11.1820   -9.0080 C.3   128  ARG128      0.2205
     55  NE         5.5370  -11.3600   -9.1330 N.pl3 128  ARG128     -0.0865
     56  CZ         6.4410  -10.8050   -8.3270 C.cat 128  ARG128      0.5346
     57  NH1        6.0570  -10.0240   -7.3300 N.pl3 128  ARG128      0.1354
     58  NH2        7.7350  -11.0290   -8.5190 N.pl3 128  ARG128      0.1354
     59  N          7.4590  -14.9510  -11.0190 N.3   131  ASP131     -0.1239
     60  CA         7.9390  -14.6870   -9.6610 C.3   131  ASP131      0.1674
     61  C          9.2260  -15.4720   -9.4280 C.2   131  ASP131      0.2266
     62  O          9.2140  -16.7100   -9.4420 O.2   131  ASP131     -0.2867
     63  CB         6.8630  -15.0780   -8.6350 C.3   131  ASP131      0.1410
     64  CG         7.2330  -14.7220   -7.2040 C.2   131  ASP131      0.3668
     65  OD1        8.3330  -14.1820   -6.9780 O.co2 131  ASP131     -0.2456
     66  OD2        6.3970  -14.9920   -6.3060 O.co2 131  ASP131     -0.2456
     67  N          6.4200  -18.8420   -4.8230 N.3   135  MET135     -0.1245
     68  CA         5.4500  -18.3680   -3.8370 C.3   135  MET135      0.1570
     69  C          4.0320  -18.6910   -4.2750 C.2   135  MET135      0.2261
     70  O          3.6440  -18.3980   -5.4080 O.2   135  MET135     -0.2867
     71  CB         5.5580  -16.8710   -3.5910 C.3   135  MET135      0.0387
     72  CG         4.5080  -16.3930   -2.6250 C.3   135  MET135      0.0595
     73  SD         4.9630  -14.8350   -1.8750 S.3   135  MET135     -0.1393
     74  CE         6.7350  -15.1350   -1.6980 C.3   135  MET135      0.0692
     75  N         -0.1830  -18.8910   -2.8300 N.3   137  THR137     -0.1218
     76  CA        -1.1860  -18.7990   -1.7880 C.3   137  THR137      0.1862
     77  C         -2.1850  -19.9280   -1.9790 C.2   137  THR137      0.2287
     78  O         -2.3670  -20.4350   -3.0900 O.2   137  THR137     -0.2866
     79  CB        -1.8980  -17.4770   -1.8430 C.3   137  THR137      0.1770
     80  OG1       -2.7010  -17.4950   -3.0220 O.3   137  THR137     -0.2211
     81  CG2       -0.8820  -16.3490   -1.9220 C.3   137  THR137      0.0375
@<TRIPOS>BOND
     1    24    23    2
     2    21    22    1
     3    23    22    1
     4    22    25    1
     5    59    60    1
     6    25    26    1
     7    50    51    2
     8    50    49    1
     9    28    26   ar
    10    28    30   ar
    11    47    45    1
    12    26    27   ar
    13    44    43    2
    14    49    52    1
    15    49    48    1
    16    53    54    1
    17    53    52    1
    18    30    31   ar
    19    60    61    1
    20    60    63    1
    21    62    61    2
    22    43    48   am
    23    43    42    1
    24    55    54    1
    25    55    56    2
    26    27    29   ar
    27    45    42    1
    28    45    46    1
    29    63    64    1
    30    31    29   ar
    31    31    32    1
    32    58    56    1
    33    56    57    1
    34    42    41    1
    35    19    18    1
    36    41    35   am
    37    17    18    1
    38    17    14    1
    39    39    37    1
    40    64    65   ar
    41    64    66   ar
    42    18    20    1
    43    35    34    1
    44    35    36    2
    45    34    37    1
    46    34    33    1
    47    15    16    2
    48    15    14    1
    49    37    38    1
    50    14    13    1
    51    38    40    1
    52    70    69    2
    53    13    11   am
    54    67    68    1
    55    69    68    1
    56    11    12    2
    57    11    10    1
    58    68    71    1
    59     9    10    1
    60    71    72    1
    61     7     6    1
    62    78    77    2
    63    80    79    1
    64    75    76    1
    65    72    73    1
    66     8     6    1
    67    77    76    1
    68    81    79    1
    69    73    74    1
    70    79    76    1
    71     6     5    1
    72     5     2    1
    73     2     3    1
    74     2     1    1
    75     3     4    2
