@<TRIPOS>MOLECULE
tmp/6f5dF01.pdb
 158 152 0 0 0
SMALL
GASTEIGER

@<TRIPOS>ATOM
      1  N         77.7790   15.7890  138.9580 N.3   158  ALA158     -0.1231
      2  CA        76.3270   15.9150  138.7750 C.3   158  ALA158      0.1694
      3  C         75.9190   15.8580  137.2980 C.2   158  ALA158      0.2593
      4  O         76.3800   16.6590  136.4930 O.2   158  ALA158     -0.2718
      5  CB        75.8150   17.1960  139.4090 C.3   158  ALA158      0.0304
      6  N         75.0570   14.8960  136.9640 N.am  159  GLY159     -0.1942
      7  CA        74.5050   14.7530  135.6260 C.3   159  GLY159      0.2014
      8  C         75.4770   14.2290  134.5890 C.2   159  GLY159      0.2639
      9  O         75.6120   14.8280  133.5190 O.2   159  GLY159     -0.2714
     10  N         76.1600   13.1200  134.9040 N.am  160  VAL160     -0.1963
     11  CA        77.1410   12.5090  133.9910 C.3   160  VAL160      0.1727
     12  C         76.7690   11.0900  133.5100 C.2   160  VAL160      0.2617
     13  O         77.3420   10.6150  132.5210 O.2   160  VAL160     -0.2715
     14  CB        78.5470   12.4940  134.6380 C.3   160  VAL160      0.0290
     15  CG1       78.6120   11.4440  135.7270 C.3   160  VAL160      0.0023
     16  CG2       79.6280   12.2760  133.5910 C.3   160  VAL160      0.0023
     17  N         75.8200   10.4300  134.1850 N.am  161  GLY161     -0.1940
     18  CA        75.3530    9.0940  133.8010 C.3   161  GLY161      0.2014
     19  C         75.5250    7.9830  134.8200 C.2   161  GLY161      0.2639
     20  O         75.7190    6.8270  134.4330 O.2   161  GLY161     -0.2714
     21  N         75.3980    8.3040  136.1080 N.am  162  LYS162     -0.1963
     22  CA        75.4570    7.2920  137.1730 C.3   162  LYS162      0.1728
     23  C         74.1370    6.5210  137.2230 C.2   162  LYS162      0.2617
     24  O         74.1180    5.2980  137.0860 O.2   162  LYS162     -0.2715
     25  CB        75.7530    7.9350  138.5340 C.3   162  LYS162      0.0311
     26  CG        77.0830    8.6820  138.6120 C.3   162  LYS162      0.0038
     27  CD        77.2690    9.4210  139.9340 C.3   162  LYS162      0.0206
     28  CE        76.2920   10.5770  140.1190 C.3   162  LYS162      0.1093
     29  NZ        76.5550   11.7210  139.2140 N.3   162  LYS162     -0.1314
     30  N         73.0390    7.2540  137.4110 N.am  163  THR163     -0.1937
     31  CA        71.6940    6.6630  137.4410 C.3   163  THR163      0.2028
     32  C         71.3290    5.9660  136.1200 C.2   163  THR163      0.2642
     33  O         70.5830    4.9920  136.1240 O.2   163  THR163     -0.2714
     34  CB        70.6160    7.7150  137.7940 C.3   163  THR163      0.1808
     35  OG1       70.9390    8.3330  139.0460 O.3   163  THR163     -0.2208
     36  CG2       69.2340    7.0750  137.9150 C.3   163  THR163      0.0379
     37  N         71.8570    6.4550  135.0010 N.am  164  VAL164     -0.1963
     38  CA        71.6600    5.8050  133.6950 C.3   164  VAL164      0.1727
     39  C         72.3960    4.4560  133.6280 C.2   164  VAL164      0.2616
     40  O         71.8320    3.4700  133.1380 O.2   164  VAL164     -0.2715
     41  CB        72.0710    6.7330  132.5230 C.3   164  VAL164      0.0290
     42  CG1       72.0230    6.0010  131.1820 C.3   164  VAL164      0.0023
     43  CG2       71.1640    7.9620  132.4880 C.3   164  VAL164      0.0023
     44  N         73.6340    4.4140  134.1240 N.am  165  ILE165     -0.1977
     45  CA        74.4400    3.1780  134.1230 C.3   165  ILE165      0.1596
     46  C         73.8810    2.1170  135.0840 C.2   165  ILE165      0.2287
     47  O         73.8930    0.9340  134.7430 O.2   165  ILE165     -0.2864
     48  CB        75.9490    3.4690  134.3840 C.3   165  ILE165      0.0276
     49  CG1       76.5680    4.1010  133.1250 C.3   165  ILE165      0.0022
     50  CG2       76.7300    2.2000  134.7480 C.3   165  ILE165      0.0022
     51  CD1       77.8990    4.7880  133.3580 C.3   165  ILE165      0.0001
     52  N         68.5530   10.0300  147.5020 N.3   188  GLU188     -0.1231
     53  CA        68.3980   10.4210  146.0910 C.3   188  GLU188      0.1699
     54  C         66.9300   10.8120  145.8010 C.2   188  GLU188      0.2592
     55  O         66.1530   11.0190  146.7480 O.2   188  GLU188     -0.2718
     56  CB        69.0310    9.3680  145.1350 C.3   188  GLU188      0.0402
     57  CG        70.5550    9.4330  145.0620 C.3   188  GLU188      0.1161
     58  CD        71.1050   10.6010  144.2420 C.2   188  GLU188      0.3649
     59  OE1       70.4330   11.6380  144.0860 O.co2 188  GLU188     -0.2457
     60  OE2       72.2380   10.4840  143.7450 O.co2 188  GLU188     -0.2457
     61  N         66.6000   11.0180  144.5210 N.am  189  ARG189     -0.1980
     62  CA        65.3270   11.5930  144.1200 C.3   189  ARG189      0.1597
     63  C         64.1530   10.6530  144.3760 C.2   189  ARG189      0.2287
     64  O         64.1560    9.5000  143.9180 O.2   189  ARG189     -0.2864
     65  CB        65.3390   11.9340  142.6190 C.3   189  ARG189      0.0334
     66  CG        66.3240   13.0000  142.1720 C.3   189  ARG189      0.0492
     67  CD        66.1140   13.2060  140.6750 C.3   189  ARG189      0.2205
     68  NE        66.9470   14.2180  140.0400 N.pl3 189  ARG189     -0.0865
     69  CZ        68.2430   14.0880  139.7730 C.cat 189  ARG189      0.5346
     70  NH1       68.9220   12.9780  140.0930 N.pl3 189  ARG189      0.1354
     71  NH2       68.8870   15.0760  139.1530 N.pl3 189  ARG189      0.1354
     72  N         62.6340    9.4270  141.1080 N.3   192  GLU192     -0.1245
     73  CA        63.3730    8.3130  140.4810 C.3   192  GLU192      0.1567
     74  C         62.9950    6.9580  141.0770 C.2   192  GLU192      0.2260
     75  O         63.0600    5.9360  140.3800 O.2   192  GLU192     -0.2867
     76  CB        64.8950    8.5090  140.5770 C.3   192  GLU192      0.0388
     77  CG        65.4350    9.5120  139.5660 C.3   192  GLU192      0.1160
     78  CD        66.9430    9.6510  139.5660 C.2   192  GLU192      0.3649
     79  OE1       67.6080    9.1190  140.4720 O.co2 192  GLU192     -0.2457
     80  OE2       67.4480   10.3380  138.6590 O.co2 192  GLU192     -0.2457
     81  N         72.4720    3.8590  145.5380 N.3   255  ASP255     -0.1239
     82  CA        72.4760    5.1460  144.8460 C.3   255  ASP255      0.1674
     83  C         71.9070    6.1870  145.8210 C.2   255  ASP255      0.2266
     84  O         70.6850    6.2260  146.0000 O.2   255  ASP255     -0.2867
     85  CB        71.6220    5.0550  143.5670 C.3   255  ASP255      0.1410
     86  CG        71.6760    6.3240  142.7180 C.2   255  ASP255      0.3668
     87  OD1       72.6060    7.1420  142.8750 O.co2 255  ASP255     -0.2456
     88  OD2       70.7730    6.5170  141.8810 O.co2 255  ASP255     -0.2456
     89  N         78.8260    8.8340  125.2720 N.3   344  TYR344     -0.1228
     90  CA        78.0390    8.2220  126.3470 C.3   344  TYR344      0.1721
     91  C         78.1270    6.6870  126.2260 C.2   344  TYR344      0.2437
     92  O         77.9730    6.1660  125.1200 O.2   344  TYR344     -0.2733
     93  CB        76.5780    8.6730  126.2800 C.3   344  TYR344      0.0547
     94  CG        76.3080   10.0310  126.9050 C.ar  344  TYR344     -0.0200
     95  CD1       76.5520   10.2590  128.2630 C.ar  344  TYR344     -0.0009
     96  CD2       75.7950   11.0900  126.1440 C.ar  344  TYR344     -0.0009
     97  CE1       76.3130   11.5020  128.8370 C.ar  344  TYR344      0.0417
     98  CE2       75.5490   12.3330  126.7150 C.ar  344  TYR344      0.0417
     99  CZ        75.8070   12.5330  128.0620 C.ar  344  TYR344      0.1957
    100  OH        75.5580   13.7590  128.6360 O.3   344  TYR344     -0.2866
    101  N         78.3670    5.9480  127.3210 N.am  345  PRO345     -0.2729
    102  CA        78.5570    6.4750  128.6750 C.3   345  PRO345      0.1401
    103  C         79.8580    7.2550  128.8110 C.2   345  PRO345      0.2269
    104  O         80.7980    7.0180  128.0560 O.2   345  PRO345     -0.2865
    105  CB        78.6120    5.2040  129.5240 C.3   345  PRO345      0.0296
    106  CG        79.2640    4.2090  128.6210 C.3   345  PRO345      0.0237
    107  CD        78.8680    4.5640  127.2140 C.3   345  PRO345      0.0939
    108  N         78.4850    3.9200  123.4540 N.3   415  GLN415     -0.1245
    109  CA        77.4970    2.8530  123.2890 C.3   415  GLN415      0.1566
    110  C         76.0810    3.3660  123.5700 C.2   415  GLN415      0.2260
    111  O         75.8530    3.9820  124.6150 O.2   415  GLN415     -0.2867
    112  CB        77.8320    1.6900  124.2260 C.3   415  GLN415      0.0367
    113  CG        77.0620    0.4090  123.9490 C.3   415  GLN415      0.0905
    114  CD        77.5670   -0.7730  124.7690 C.2   415  GLN415      0.2608
    115  OE1       78.7550   -0.8850  125.0560 O.2   415  GLN415     -0.2717
    116  NE2       76.6600   -1.6640  125.1440 N.am  415  GLN415     -0.0878
    117  N         72.6120    3.0060  125.0000 N.3   417  PHE417     -0.1241
    118  CA        72.0600    2.1640  126.0610 C.3   417  PHE417      0.1605
    119  C         70.5910    1.8590  125.7760 C.2   417  PHE417      0.2264
    120  O         69.8770    2.6810  125.1830 O.2   417  PHE417     -0.2867
    121  CB        72.2140    2.8580  127.4260 C.3   417  PHE417      0.0534
    122  CG        73.5840    2.7220  128.0550 C.ar  417  PHE417     -0.0203
    123  CD1       74.7320    2.4520  127.2980 C.ar  417  PHE417     -0.0042
    124  CD2       73.7290    2.9130  129.4260 C.ar  417  PHE417     -0.0042
    125  CE1       75.9740    2.3400  127.9080 C.ar  417  PHE417     -0.0003
    126  CE2       74.9710    2.8080  130.0390 C.ar  417  PHE417     -0.0003
    127  CZ        76.0960    2.5250  129.2790 C.ar  417  PHE417     -0.0000
    128  N         68.2970    4.0920  127.7110 N.3   420  ALA420     -0.1245
    129  CA        68.3710    5.4210  127.1030 C.3   420  ALA420      0.1562
    130  C         68.0170    5.3980  125.6060 C.2   420  ALA420      0.2260
    131  O         68.8130    5.8120  124.7580 O.2   420  ALA420     -0.2867
    132  CB        69.7570    6.0180  127.3210 C.3   420  ALA420      0.0290
    133  N         66.6230    9.1860  125.1760 N.3   423  PHE423     -0.1227
    134  CA        67.6890   10.1850  125.0460 C.3   423  PHE423      0.1736
    135  C         68.3730   10.1170  123.6830 C.2   423  PHE423      0.2596
    136  O         68.4250   11.1130  122.9610 O.2   423  PHE423     -0.2718
    137  CB        68.7420   10.0060  126.1480 C.3   423  PHE423      0.0547
    138  CG        68.2040   10.1930  127.5380 C.ar  423  PHE423     -0.0202
    139  CD1       68.0000   11.4690  128.0490 C.ar  423  PHE423     -0.0042
    140  CD2       67.9090    9.0950  128.3430 C.ar  423  PHE423     -0.0042
    141  CE1       67.5080   11.6490  129.3340 C.ar  423  PHE423     -0.0003
    142  CE2       67.4150    9.2660  129.6270 C.ar  423  PHE423     -0.0003
    143  CZ        67.2140   10.5460  130.1250 C.ar  423  PHE423     -0.0000
    144  N         68.8940    8.9380  123.3460 N.am  424  THR424     -0.1953
    145  CA        69.6780    8.7420  122.1180 C.3   424  THR424      0.1897
    146  C         68.8260    8.7290  120.8450 C.2   424  THR424      0.2313
    147  O         69.3060    9.1130  119.7760 O.2   424  THR424     -0.2863
    148  CB        70.5010    7.4340  122.1600 C.3   424  THR424      0.1794
    149  OG1       69.6260    6.3050  122.2750 O.3   424  THR424     -0.2208
    150  CG2       71.4810    7.4380  123.3280 C.3   424  THR424      0.0378
    151  N         78.6870    5.6050  118.6240 N.3   458  MET458     -0.1245
    152  CA        77.3620    5.2010  119.1130 C.3   458  MET458      0.1570
    153  C         76.7790    4.0060  118.3550 C.2   458  MET458      0.2261
    154  O         75.7490    4.1010  117.6830 O.2   458  MET458     -0.2867
    155  CB        76.3920    6.3970  119.1310 C.3   458  MET458      0.0387
    156  CG        76.7170    7.4240  120.2010 C.3   458  MET458      0.0595
    157  SD        76.1680    6.9120  121.8370 S.3   458  MET458     -0.1393
    158  CE        74.6150    7.7840  121.8860 C.3   458  MET458      0.0692
@<TRIPOS>BOND
     1   154   153    2
     2   153   152    1
     3   151   152    1
     4   152   155    1
     5   155   156    1
     6   147   146    2
     7   156   157    1
     8   146   145    1
     9   157   158    1
    10   145   148    1
    11   145   144    1
    12   148   149    1
    13   148   150    1
    14   136   135    2
    15   109   108    1
    16   109   110    1
    17   109   112    1
    18   144   135   am
    19   110   111    2
    20   135   134    1
    21   113   112    1
    22   113   114    1
    23   131   130    2
    24   114   115    2
    25   114   116   am
    26   117   118    1
    27   134   133    1
    28   134   137    1
    29    92    91    2
    30   120   119    2
    31    89    90    1
    32   130   129    1
    33   119   118    1
    34   118   121    1
    35    96    98   ar
    36    96    94   ar
    37   137   138    1
    38    91    90    1
    39    91   101   am
    40    93    90    1
    41    93    94    1
    42    98    99   ar
    43    94    95   ar
    44   129   132    1
    45   129   128    1
    46   107   101    1
    47   107   106    1
    48   123   125   ar
    49   123   122   ar
    50   101   102    1
    51   121   122    1
    52   138   139   ar
    53   138   140   ar
    54   125   127   ar
    55   139   141   ar
    56   122   124   ar
    57   104   103    2
    58    99   100    1
    59    99    97   ar
    60    95    97   ar
    61   140   142   ar
    62   106   105    1
    63   102   103    1
    64   102   105    1
    65   127   126   ar
    66   141   143   ar
    67   124   126   ar
    68   142   143   ar
    69    42    41    1
    70    43    41    1
    71    13    12    2
    72    41    38    1
    73    49    51    1
    74    49    48    1
    75    40    39    2
    76    12    11    1
    77    12    17   am
    78     9     8    2
    79    16    14    1
    80    39    38    1
    81    39    44   am
    82    38    37    1
    83    18    17    1
    84    18    19    1
    85    11    14    1
    86    11    10    1
    87    45    44    1
    88    45    48    1
    89    45    46    1
    90    48    50    1
    91    20    19    2
    92     8    10   am
    93     8     7    1
    94    14    15    1
    95    47    46    2
    96    19    21   am
    97    37    32   am
    98     7     6    1
    99    21    22    1
   100    32    33    2
   101    32    31    1
   102     4     3    2
   103     6     3   am
   104    24    23    2
   105    22    23    1
   106    22    25    1
   107    23    30   am
   108     3     2    1
   109    30    31    1
   110    31    34    1
   111    34    36    1
   112    34    35    1
   113    25    26    1
   114    26    27    1
   115    80    78   ar
   116     2     1    1
   117     2     5    1
   118    71    69    1
   119    29    28    1
   120    77    78    1
   121    77    76    1
   122    78    79   ar
   123    69    68    2
   124    69    70    1
   125    27    28    1
   126    68    67    1
   127    75    74    2
   128    73    76    1
   129    73    74    1
   130    73    72    1
   131    67    66    1
   132    88    86   ar
   133    66    65    1
   134    65    62    1
   135    86    87   ar
   136    86    85    1
   137    85    82    1
   138    60    58   ar
   139    64    63    2
   140    59    58   ar
   141    62    63    1
   142    62    61    1
   143    58    57    1
   144    61    54   am
   145    82    81    1
   146    82    83    1
   147    57    56    1
   148    56    53    1
   149    54    53    1
   150    54    55    2
   151    83    84    2
   152    53    52    1
