@<TRIPOS>MOLECULE
tmp/6f5dB00.pdb
 143 139 0 0 0
SMALL
GASTEIGER

@<TRIPOS>ATOM
      1  N         58.2960   28.9910  123.9670 N.3   133  PHE133     -0.1241
      2  CA        59.5170   29.1920  123.1930 C.3   133  PHE133      0.1605
      3  C         59.7600   27.9780  122.3110 C.2   133  PHE133      0.2264
      4  O         59.7330   26.8360  122.7880 O.2   133  PHE133     -0.2867
      5  CB        60.7130   29.4040  124.1190 C.3   133  PHE133      0.0534
      6  CG        60.6730   30.7050  124.8530 C.ar  133  PHE133     -0.0203
      7  CD1       61.1710   31.8640  124.2700 C.ar  133  PHE133     -0.0042
      8  CD2       60.1240   30.7860  126.1230 C.ar  133  PHE133     -0.0042
      9  CE1       61.1290   33.0790  124.9510 C.ar  133  PHE133     -0.0003
     10  CE2       60.0740   31.9930  126.7900 C.ar  133  PHE133     -0.0003
     11  CZ        60.5890   33.1400  126.2040 C.ar  133  PHE133     -0.0000
     12  N         74.8980   32.8840  133.2450 N.3   153  ASP153     -0.1225
     13  CA        75.4860   34.0810  133.8590 C.3   153  ASP153      0.1805
     14  C         74.4540   35.1820  134.0740 C.2   153  ASP153      0.2598
     15  O         73.3050   35.0670  133.6470 O.2   153  ASP153     -0.2718
     16  CB        76.6330   34.6200  132.9980 C.3   153  ASP153      0.1424
     17  CG        77.7750   33.6180  132.8420 C.2   153  ASP153      0.3668
     18  OD1       77.6700   32.4810  133.3580 O.co2 153  ASP153     -0.2456
     19  OD2       78.7820   33.9710  132.1940 O.co2 153  ASP153     -0.2456
     20  N         74.8710   36.2380  134.7690 N.am  154  ARG154     -0.1966
     21  CA        74.0590   37.4500  134.9190 C.3   154  ARG154      0.1729
     22  C         73.7440   38.0760  133.5580 C.2   154  ARG154      0.2616
     23  O         74.5770   38.0490  132.6470 O.2   154  ARG154     -0.2715
     24  CB        74.7710   38.4710  135.8250 C.3   154  ARG154      0.0348
     25  CG        76.0520   39.0510  135.2490 C.3   154  ARG154      0.0492
     26  CD        76.9650   39.6010  136.3340 C.3   154  ARG154      0.2205
     27  NE        78.1530   40.2160  135.7480 N.pl3 154  ARG154     -0.0865
     28  CZ        79.2080   39.5550  135.2540 C.cat 154  ARG154      0.5346
     29  NH1       79.2640   38.2210  135.2500 N.pl3 154  ARG154      0.1354
     30  NH2       80.2290   40.2440  134.7460 N.pl3 154  ARG154      0.1354
     31  N         72.5350   38.6200  133.4350 N.am  155  GLN155     -0.1963
     32  CA        72.0370   39.2240  132.1890 C.3   155  GLN155      0.1733
     33  C         72.1060   38.2760  130.9660 C.2   155  GLN155      0.2617
     34  O         72.5140   38.6910  129.8820 O.2   155  GLN155     -0.2715
     35  CB        72.7270   40.5640  131.8950 C.3   155  GLN155      0.0408
     36  CG        72.5230   41.6190  132.9790 C.3   155  GLN155      0.0908
     37  CD        73.7520   42.4790  133.2160 C.2   155  GLN155      0.2608
     38  OE1       74.7770   41.9760  133.6750 O.2   155  GLN155     -0.2717
     39  NE2       73.6500   43.7730  132.9250 N.am  155  GLN155     -0.0878
     40  N         71.7120   37.0160  131.1590 N.am  156  THR156     -0.1937
     41  CA        71.5640   36.0510  130.0540 C.3   156  THR156      0.2028
     42  C         70.1040   35.6920  129.7280 C.2   156  THR156      0.2643
     43  O         69.8510   34.9320  128.7890 O.2   156  THR156     -0.2714
     44  CB        72.3370   34.7460  130.3420 C.3   156  THR156      0.1808
     45  OG1       71.8900   34.1880  131.5830 O.3   156  THR156     -0.2208
     46  CG2       73.8350   35.0210  130.4030 C.3   156  THR156      0.0379
     47  N         69.1540   36.2360  130.4900 N.am  157  GLY157     -0.1939
     48  CA        67.7210   36.0000  130.2620 C.3   157  GLY157      0.2014
     49  C         67.1300   34.8840  131.1090 C.2   157  GLY157      0.2639
     50  O         66.2510   34.1490  130.6450 O.2   157  GLY157     -0.2714
     51  N         67.6070   34.7550  132.3490 N.am  158  LYS158     -0.1963
     52  CA        67.1270   33.7270  133.2780 C.3   158  LYS158      0.1728
     53  C         65.7480   34.0780  133.8470 C.2   158  LYS158      0.2617
     54  O         64.8820   33.2080  133.9520 O.2   158  LYS158     -0.2715
     55  CB        68.1170   33.5290  134.4310 C.3   158  LYS158      0.0311
     56  CG        69.5160   33.1140  134.0080 C.3   158  LYS158      0.0038
     57  CD        70.3320   32.4980  135.1400 C.3   158  LYS158      0.0206
     58  CE        70.5450   33.4450  136.3080 C.3   158  LYS158      0.1093
     59  NZ        71.2870   34.6730  135.9290 N.3   158  LYS158     -0.1314
     60  N         65.5620   35.3380  134.2340 N.am  159  THR159     -0.1937
     61  CA        64.2790   35.8200  134.7410 C.3   159  THR159      0.2028
     62  C         63.2390   35.9210  133.6370 C.2   159  THR159      0.2643
     63  O         62.1120   35.4500  133.8060 O.2   159  THR159     -0.2714
     64  CB        64.4210   37.1970  135.4340 C.3   159  THR159      0.1808
     65  OG1       65.3310   37.0900  136.5330 O.3   159  THR159     -0.2208
     66  CG2       63.0800   37.6950  135.9620 C.3   159  THR159      0.0379
     67  N         63.6190   36.5350  132.5140 N.am  160  SER160     -0.1935
     68  CA        62.6910   36.7870  131.4040 C.3   160  SER160      0.2055
     69  C         62.0530   35.5040  130.8780 C.2   160  SER160      0.2642
     70  O         60.8350   35.4570  130.6850 O.2   160  SER160     -0.2714
     71  CB        63.4000   37.5280  130.2700 C.3   160  SER160      0.2130
     72  OG        63.8040   38.8180  130.7000 O.3   160  SER160     -0.2179
     73  N         62.8680   34.4670  130.6650 N.am  161  ILE161     -0.1977
     74  CA        62.3620   33.1590  130.2180 C.3   161  ILE161      0.1596
     75  C         61.4430   32.4840  131.2570 C.2   161  ILE161      0.2287
     76  O         60.5290   31.7490  130.8940 O.2   161  ILE161     -0.2864
     77  CB        63.5150   32.2060  129.7960 C.3   161  ILE161      0.0276
     78  CG1       62.9920   31.0400  128.9540 C.3   161  ILE161      0.0022
     79  CG2       64.2800   31.6690  130.9990 C.3   161  ILE161      0.0022
     80  CD1       64.0950   30.2160  128.3240 C.3   161  ILE161      0.0001
     81  N         63.1280   45.6660  140.6030 N.3   195  ASN195     -0.1240
     82  CA        62.9620   44.5120  139.7060 C.3   195  ASN195      0.1653
     83  C         61.6490   43.7750  139.9700 C.2   195  ASN195      0.2266
     84  O         61.0230   43.2740  139.0330 O.2   195  ASN195     -0.2867
     85  CB        64.1420   43.5330  139.8340 C.3   195  ASN195      0.1155
     86  CG        64.4720   42.8310  138.5240 C.2   195  ASN195      0.2627
     87  OD1       64.9760   43.4510  137.5850 O.2   195  ASN195     -0.2716
     88  ND2       64.2110   41.5310  138.4630 N.am  195  ASN195     -0.0877
     89  N         63.6380   32.6130  142.0260 N.3   252  ASP252     -0.1239
     90  CA        64.5860   33.5290  141.3920 C.3   252  ASP252      0.1674
     91  C         65.2950   34.3540  142.4780 C.2   252  ASP252      0.2266
     92  O         64.8310   35.4370  142.8290 O.2   252  ASP252     -0.2867
     93  CB        63.8460   34.4360  140.3970 C.3   252  ASP252      0.1410
     94  CG        64.7860   35.2190  139.4790 C.2   252  ASP252      0.3668
     95  OD1       66.0150   35.0020  139.5050 O.co2 252  ASP252     -0.2456
     96  OD2       64.2830   36.0720  138.7310 O.co2 252  ASP252     -0.2456
     97  N         73.9560   35.0710  123.8520 N.3   340  PHE340     -0.1241
     98  CA        73.1990   36.2870  124.1890 C.3   340  PHE340      0.1605
     99  C         73.7190   37.4940  123.4050 C.2   340  PHE340      0.2264
    100  O         72.9520   38.1810  122.7260 O.2   340  PHE340     -0.2867
    101  CB        73.2730   36.5760  125.6940 C.3   340  PHE340      0.0534
    102  CG        72.4360   37.7550  126.1330 C.ar  340  PHE340     -0.0203
    103  CD1       72.9470   39.0570  126.0660 C.ar  340  PHE340     -0.0042
    104  CD2       71.1480   37.5710  126.6120 C.ar  340  PHE340     -0.0042
    105  CE1       72.1860   40.1410  126.4680 C.ar  340  PHE340     -0.0003
    106  CE2       70.3780   38.6560  127.0200 C.ar  340  PHE340     -0.0003
    107  CZ        70.8980   39.9450  126.9460 C.ar  340  PHE340     -0.0000
    108  N         68.3740   35.1890  121.2310 N.3   345  ARG345     -0.1231
    109  CA        67.6680   35.5050  122.4710 C.3   345  ARG345      0.1679
    110  C         66.2430   34.9200  122.4100 C.2   345  ARG345      0.2434
    111  O         65.4670   35.3370  121.5460 O.2   345  ARG345     -0.2733
    112  CB        67.6120   37.0150  122.6650 C.3   345  ARG345      0.0321
    113  CG        68.9680   37.6400  122.9550 C.3   345  ARG345      0.0489
    114  CD        68.8520   39.1370  123.1610 C.3   345  ARG345      0.2205
    115  NE        70.1620   39.7620  123.3260 N.pl3 345  ARG345     -0.0865
    116  CZ        70.3650   41.0590  123.5660 C.cat 345  ARG345      0.5346
    117  NH1       69.3420   41.9120  123.6710 N.pl3 345  ARG345      0.1354
    118  NH2       71.6090   41.5120  123.7030 N.pl3 345  ARG345      0.1354
    119  N         65.8690   33.9900  123.2980 N.am  346  PRO346     -0.2729
    120  CA        66.6610   33.5440  124.4410 C.3   346  PRO346      0.1401
    121  C         67.8900   32.7270  124.0430 C.2   346  PRO346      0.2269
    122  O         67.8400   31.9520  123.0840 O.2   346  PRO346     -0.2865
    123  CB        65.6720   32.6630  125.2020 C.3   346  PRO346      0.0296
    124  CG        64.8450   32.0450  124.1250 C.3   346  PRO346      0.0237
    125  CD        64.8060   33.0210  122.9780 C.3   346  PRO346      0.0939
    126  N         63.2610   35.2010  119.8820 N.3   404  GLN404     -0.1231
    127  CA        61.9690   35.8090  120.2350 C.3   404  GLN404      0.1698
    128  C         62.0310   36.4810  121.6050 C.2   404  GLN404      0.2592
    129  O         62.6920   35.9750  122.5190 O.2   404  GLN404     -0.2718
    130  CB        60.8520   34.7550  120.2250 C.3   404  GLN404      0.0381
    131  CG        61.1280   33.5120  121.0420 C.3   404  GLN404      0.0905
    132  CD        60.0020   32.4900  120.9660 C.2   404  GLN404      0.2608
    133  OE1       60.2010   31.3430  120.5460 O.2   404  GLN404     -0.2717
    134  NE2       58.8070   32.9030  121.3800 N.am  404  GLN404     -0.0878
    135  N         61.3340   37.6140  121.7470 N.am  405  LYS405     -0.1980
    136  CA        61.2770   38.3380  123.0210 C.3   405  LYS405      0.1596
    137  C         60.1520   37.7670  123.8900 C.2   405  LYS405      0.2287
    138  O         60.4170   37.1610  124.9270 O.2   405  LYS405     -0.2864
    139  CB        61.1110   39.8500  122.7790 C.3   405  LYS405      0.0298
    140  CG        61.0310   40.7420  124.0200 C.3   405  LYS405      0.0038
    141  CD        62.2540   40.6990  124.9210 C.3   405  LYS405      0.0206
    142  CE        61.9720   41.3200  126.2790 C.3   405  LYS405      0.1093
    143  NZ        61.7210   42.7870  126.2010 N.3   405  LYS405     -0.1314
@<TRIPOS>BOND
     1   126   127    1
     2   130   127    1
     3   130   131    1
     4   127   128    1
     5   133   132    2
     6   132   131    1
     7   132   134   am
     8   108   109    1
     9   111   110    2
    10   128   135   am
    11   128   129    2
    12   135   136    1
    13     3     4    2
    14     3     2    1
    15   110   109    1
    16   110   119   am
    17   109   112    1
    18   112   113    1
    19   100    99    2
    20   139   136    1
    21   139   140    1
    22   113   114    1
    23   125   119    1
    24   125   124    1
    25   136   137    1
    26   122   121    2
    27   114   115    1
    28     2     1    1
    29     2     5    1
    30   119   120    1
    31   115   116    2
    32    99    98    1
    33   116   117    1
    34   116   118    1
    35    97    98    1
    36   137   138    2
    37   140   141    1
    38   121   120    1
    39     5     6    1
    40   124   123    1
    41    98   101    1
    42     7     6   ar
    43     7     9   ar
    44   120   123    1
    45     6     8   ar
    46   141   142    1
    47     9    11   ar
    48   101   102    1
    49   103   102   ar
    50   103   105   ar
    51     8    10   ar
    52   102   104   ar
    53   143   142    1
    54    11    10   ar
    55   105   107   ar
    56   104   106   ar
    57   107   106   ar
    58    80    78    1
    59    43    42    2
    60    78    77    1
    61    42    41    1
    62    42    47   am
    63    77    74    1
    64    77    79    1
    65    34    33    2
    66    41    44    1
    67    41    40    1
    68    74    73    1
    69    74    75    1
    70    48    47    1
    71    48    49    1
    72    71    72    1
    73    71    68    1
    74    44    46    1
    75    44    45    1
    76    50    49    2
    77    73    69   am
    78    70    69    2
    79    69    68    1
    80    76    75    2
    81    33    40   am
    82    33    32    1
    83    49    51   am
    84    68    67    1
    85    35    32    1
    86    35    36    1
    87    32    31    1
    88    19    17   ar
    89    51    52    1
    90    67    62   am
    91    23    22    2
    92    17    16    1
    93    17    18   ar
    94    39    37   am
    95    36    37    1
    96    16    13    1
    97    37    38    2
    98    12    13    1
    99    52    53    1
   100    52    55    1
   101    31    22   am
   102    22    21    1
   103    62    63    2
   104    62    61    1
   105    15    14    2
   106    53    54    2
   107    53    60   am
   108    13    14    1
   109    56    55    1
   110    56    57    1
   111    14    20   am
   112    60    61    1
   113    61    64    1
   114    30    28    1
   115    20    21    1
   116    21    24    1
   117    57    58    1
   118    25    24    1
   119    25    26    1
   120    29    28    1
   121    28    27    2
   122    64    66    1
   123    64    65    1
   124    27    26    1
   125    59    58    1
   126    87    86    2
   127    88    86   am
   128    86    85    1
   129    96    94   ar
   130    84    83    2
   131    94    95   ar
   132    94    93    1
   133    82    85    1
   134    82    83    1
   135    82    81    1
   136    93    90    1
   137    90    89    1
   138    90    91    1
   139    91    92    2
