@<TRIPOS>MOLECULE
tmp/6f5hB00.pdb
 217 215 0 0 0
SMALL
GASTEIGER

@<TRIPOS>ATOM
      1  N          3.0050   12.4490   47.7960 N.3    17  TYR17      -0.1241
      2  CA         2.7200   11.8350   46.4760 C.3    17  TYR17       0.1605
      3  C          3.6250   12.4200   45.3900 C.2    17  TYR17       0.2264
      4  O          3.5050   12.0480   44.2180 O.2    17  TYR17      -0.2867
      5  CB         1.2430   12.0380   46.0200 C.3    17  TYR17       0.0534
      6  CG         0.6840   13.4040   46.3010 C.ar   17  TYR17      -0.0201
      7  CD1        0.9640   14.5000   45.4860 C.ar   17  TYR17      -0.0009
      8  CD2       -0.0690   13.6200   47.4730 C.ar   17  TYR17      -0.0009
      9  CE1        0.4600   15.7740   45.7980 C.ar   17  TYR17       0.0417
     10  CE2       -0.5840   14.8630   47.7880 C.ar   17  TYR17       0.0417
     11  CZ        -0.3200   15.9460   46.9930 C.ar   17  TYR17       0.1957
     12  OH        -0.8550   17.1610   47.3750 O.3    17  TYR17      -0.2866
     13  N         -3.2380   19.4590   51.7360 N.3    86  GLN86      -0.1231
     14  CA        -4.4380   20.1860   51.2990 C.3    86  GLN86       0.1698
     15  C         -4.7040   20.1410   49.7780 C.2    86  GLN86       0.2592
     16  O         -5.6330   20.7840   49.2980 O.2    86  GLN86      -0.2718
     17  CB        -4.4360   21.6150   51.8640 C.3    86  GLN86       0.0381
     18  CG        -3.6370   22.6470   51.0930 C.3    86  GLN86       0.0905
     19  CD        -4.1750   24.0450   51.3170 C.2    86  GLN86       0.2608
     20  OE1       -4.4890   24.4250   52.4490 O.2    86  GLN86      -0.2717
     21  NE2       -4.3020   24.8160   50.2310 N.am   86  GLN86      -0.0878
     22  N         -3.9300   19.3500   49.0460 N.am   87  HIS87      -0.1962
     23  CA        -4.0910   19.2330   47.5950 C.3    87  HIS87       0.1787
     24  C         -4.1590   17.7780   47.1820 C.2    87  HIS87       0.2620
     25  O         -3.3200   16.9650   47.5810 O.2    87  HIS87      -0.2715
     26  CB        -2.9230   19.9130   46.8870 C.3    87  HIS87       0.0785
     27  CG        -2.9810   21.4100   46.9220 C.ar   87  HIS87       0.0821
     28  ND1       -2.4920   22.3030   47.8100 N.ar   87  HIS87      -0.2267
     29  CD2       -3.5870   22.1520   45.9340 C.ar   87  HIS87       0.1154
     30  CE1       -2.8220   23.5540   47.3580 C.ar   87  HIS87       0.1986
     31  NE2       -3.4760   23.4360   46.2180 N.ar   87  HIS87      -0.2212
     32  N         -5.1680   17.4430   46.3860 N.am   88  ASP88      -0.1957
     33  CA        -5.1690   16.1650   45.6700 C.3    88  ASP88       0.1840
     34  C         -3.9870   16.1520   44.6800 C.2    88  ASP88       0.2622
     35  O         -3.4980   17.1870   44.2980 O.2    88  ASP88      -0.2715
     36  CB        -6.4940   15.9450   44.9430 C.3    88  ASP88       0.1450
     37  CG        -7.6390   15.6870   45.8940 C.2    88  ASP88       0.3671
     38  OD1       -7.5220   14.7840   46.7500 O.co2  88  ASP88      -0.2456
     39  OD2       -8.6660   16.3850   45.7810 O.co2  88  ASP88      -0.2456
     40  N         -3.4920   14.9670   44.3820 N.am   89  VAL89      -0.1963
     41  CA        -2.3920   14.7280   43.4060 C.3    89  VAL89       0.1727
     42  C         -2.5510   15.4180   42.0420 C.2    89  VAL89       0.2616
     43  O         -1.5730   15.8600   41.4500 O.2    89  VAL89      -0.2715
     44  CB        -2.1890   13.2010   43.2070 C.3    89  VAL89       0.0290
     45  CG1       -3.4260   12.5490   42.5840 C.3    89  VAL89       0.0023
     46  CG2       -0.9310   12.8940   42.3990 C.3    89  VAL89       0.0023
     47  N         -3.7730   15.5030   41.5420 N.am   90  GLN90      -0.1963
     48  CA        -4.0270   16.1050   40.2300 C.3    90  GLN90       0.1733
     49  C         -3.8220   17.6140   40.2790 C.2    90  GLN90       0.2616
     50  O         -3.4760   18.2080   39.2680 O.2    90  GLN90      -0.2715
     51  CB        -5.4160   15.7670   39.6820 C.3    90  GLN90       0.0408
     52  CG        -6.6120   16.2770   40.5220 C.3    90  GLN90       0.0908
     53  CD        -7.2290   15.2450   41.4540 C.2    90  GLN90       0.2608
     54  OE1       -6.4410   14.2730   41.8720 O.2    90  GLN90      -0.2717
     55  NE2       -8.4240   15.3310   41.8000 N.am   90  GLN90      -0.0878
     56  N         -4.0190   18.2200   41.4580 N.am   91  GLU91      -0.1977
     57  CA        -3.7910   19.6460   41.6400 C.3    91  GLU91       0.1602
     58  C         -2.3120   19.9760   41.6030 C.2    91  GLU91       0.2287
     59  O         -1.9320   21.0200   41.0870 O.2    91  GLU91      -0.2864
     60  CB        -4.3920   20.1700   42.9620 C.3    91  GLU91       0.0415
     61  CG        -5.8900   19.9510   43.1120 C.3    91  GLU91       0.1163
     62  CD        -6.4000   20.4290   44.4590 C.2    91  GLU91       0.3649
     63  OE1       -6.6430   21.6500   44.6000 O.co2  91  GLU91      -0.2457
     64  OE2       -6.5360   19.5910   45.3710 O.co2  91  GLU91      -0.2457
     65  N        -11.3600   12.1110   37.2370 N.3   144  GLN144     -0.1245
     66  CA       -11.5180   11.5970   38.5930 C.3   144  GLN144      0.1566
     67  C        -12.6080   10.5360   38.5740 C.2   144  GLN144      0.2260
     68  O        -13.7730   10.8570   38.3490 O.2   144  GLN144     -0.2867
     69  CB       -11.8570   12.7300   39.5540 C.3   144  GLN144      0.0367
     70  CG       -10.6990   13.6540   39.8530 C.3   144  GLN144      0.0905
     71  CD       -10.2900   14.4920   38.6540 C.2   144  GLN144      0.2608
     72  OE1      -11.1600   15.4040   38.2400 O.2   144  GLN144     -0.2717
     73  NE2       -9.2020   14.3080   38.0990 N.am  144  GLN144     -0.0878
     74  N         -7.3830    9.5410   38.1760 N.3   198  GLN198     -0.1231
     75  CA        -7.3330    9.4700   39.6420 C.3   198  GLN198      0.1698
     76  C         -8.5260    8.6620   40.1580 C.2   198  GLN198      0.2592
     77  O         -9.6660    8.8520   39.7160 O.2   198  GLN198     -0.2718
     78  CB        -7.2750   10.8550   40.2670 C.3   198  GLN198      0.0381
     79  CG        -5.9390   11.5650   40.0230 C.3   198  GLN198      0.0905
     80  CD        -5.8880   12.3530   38.7210 C.2   198  GLN198      0.2608
     81  OE1       -7.0060   12.9650   38.3290 O.2   198  GLN198     -0.2717
     82  NE2       -4.8360   12.4230   38.0850 N.am  198  GLN198     -0.0878
     83  N         -8.2310    7.7400   41.0700 N.am  199  LEU199     -0.1966
     84  CA        -9.2110    6.9050   41.7080 C.3   199  LEU199      0.1728
     85  C         -9.5780    7.5890   43.0330 C.2   199  LEU199      0.2616
     86  O         -8.7180    7.8280   43.8900 O.2   199  LEU199     -0.2715
     87  CB        -8.6360    5.5070   41.9380 C.3   199  LEU199      0.0311
     88  CG        -7.9740    4.8660   40.7170 C.3   199  LEU199      0.0022
     89  CD1       -7.3950    3.5010   41.0550 C.3   199  LEU199      0.0001
     90  CD2       -8.9390    4.7680   39.5400 C.3   199  LEU199      0.0001
     91  N        -10.8540    7.9110   43.1890 N.am  200  MET200     -0.1963
     92  CA       -11.2810    8.7670   44.2660 C.3   200  MET200      0.1736
     93  C        -11.4870    7.9780   45.5470 C.2   200  MET200      0.2616
     94  O        -12.6260    7.6910   45.9730 O.2   200  MET200     -0.2715
     95  CB       -12.5190    9.5410   43.8590 C.3   200  MET200      0.0427
     96  CG       -12.1950   10.5670   42.7990 C.3   200  MET200      0.0599
     97  SD       -13.4940   11.7640   42.5690 S.3   200  MET200     -0.1393
     98  CE       -14.8750   10.6710   42.2150 C.3   200  MET200      0.0692
     99  N        -10.3550    7.6290   46.1500 N.am  201  ARG201     -0.1963
    100  CA       -10.3460    6.8690   47.3820 C.3   201  ARG201      0.1729
    101  C        -10.5690    7.7520   48.6330 C.2   201  ARG201      0.2616
    102  O        -11.1220    7.3010   49.6450 O.2   201  ARG201     -0.2715
    103  CB        -9.0450    6.0830   47.4640 C.3   201  ARG201      0.0348
    104  CG        -8.9920    4.9500   46.4600 C.3   201  ARG201      0.0492
    105  CD        -7.8630    3.9880   46.7720 C.3   201  ARG201      0.2205
    106  NE        -7.8900    2.7550   45.9740 N.pl3 201  ARG201     -0.0865
    107  CZ        -8.6170    1.6660   46.2290 C.cat 201  ARG201      0.5346
    108  NH1       -9.4570    1.6290   47.2650 N.pl3 201  ARG201      0.1354
    109  NH2       -8.5210    0.5990   45.4240 N.pl3 201  ARG201      0.1354
    110  N        -10.1770    9.0150   48.5290 N.am  202  PHE202     -0.1960
    111  CA       -10.2720    9.9800   49.6030 C.3   202  PHE202      0.1771
    112  C        -11.6290   10.6380   49.4540 C.2   202  PHE202      0.2619
    113  O        -11.8660   11.3480   48.4900 O.2   202  PHE202     -0.2715
    114  CB        -9.1230   11.0010   49.4740 C.3   202  PHE202      0.0574
    115  CG        -8.5860   11.5290   50.7870 C.ar  202  PHE202     -0.0200
    116  CD1       -8.4390   10.7100   51.9090 C.ar  202  PHE202     -0.0042
    117  CD2       -8.1500   12.8500   50.8730 C.ar  202  PHE202     -0.0042
    118  CE1       -7.9100   11.2090   53.0850 C.ar  202  PHE202     -0.0003
    119  CE2       -7.6280   13.3520   52.0480 C.ar  202  PHE202     -0.0003
    120  CZ        -7.5040   12.5270   53.1570 C.ar  202  PHE202     -0.0000
    121  N        -12.5320   10.3680   50.3890 N.am  203  MET203     -0.1963
    122  CA       -13.9090   10.8800   50.3200 C.3   203  MET203      0.1736
    123  C        -14.2970   11.5350   51.6270 C.2   203  MET203      0.2616
    124  O        -13.8740   11.0880   52.6880 O.2   203  MET203     -0.2715
    125  CB       -14.8860    9.7410   50.0090 C.3   203  MET203      0.0427
    126  CG       -14.6100    9.0400   48.6820 C.3   203  MET203      0.0599
    127  SD       -14.7260   10.1610   47.2740 S.3   203  MET203     -0.1393
    128  CE       -16.5070   10.3260   47.1320 C.3   203  MET203      0.0692
    129  N        -15.1010   12.5920   51.5380 N.am  204  TYR204     -0.1974
    130  CA       -15.6380   13.2600   52.7240 C.3   204  TYR204      0.1639
    131  C        -16.5770   12.3180   53.5040 C.2   204  TYR204      0.2290
    132  O        -17.3750   11.5810   52.9180 O.2   204  TYR204     -0.2864
    133  CB       -16.3540   14.5660   52.3470 C.3   204  TYR204      0.0560
    134  CG       -16.8400   15.3770   53.5440 C.ar  204  TYR204     -0.0198
    135  CD1      -16.0010   16.2950   54.1860 C.ar  204  TYR204     -0.0009
    136  CD2      -18.1390   15.2250   54.0330 C.ar  204  TYR204     -0.0009
    137  CE1      -16.4450   17.0360   55.2740 C.ar  204  TYR204      0.0417
    138  CE2      -18.5940   15.9580   55.1240 C.ar  204  TYR204      0.0417
    139  CZ       -17.7440   16.8620   55.7410 C.ar  204  TYR204      0.1957
    140  OH       -18.1980   17.5890   56.8150 O.3   204  TYR204     -0.2866
    141  N        -12.0760   13.8360   55.5320 N.3   211  ASN211     -0.1240
    142  CA       -11.7970   12.9140   54.4530 C.3   211  ASN211      0.1653
    143  C        -11.2490   11.6060   55.0750 C.2   211  ASN211      0.2266
    144  O        -10.4970   11.6330   56.0590 O.2   211  ASN211     -0.2867
    145  CB       -10.8520   13.5630   53.4450 C.3   211  ASN211      0.1155
    146  CG       -11.3450   14.9300   52.9940 C.2   211  ASN211      0.2627
    147  OD1      -12.6290   15.0210   52.6810 O.2   211  ASN211     -0.2716
    148  ND2      -10.5890   15.8980   52.9700 N.am  211  ASN211     -0.0877
    149  N         -9.7610    7.6160   53.6730 N.3   213  LYS213     -0.1245
    150  CA        -9.3990    6.7650   52.5680 C.3   213  LYS213      0.1561
    151  C        -10.2580    5.4860   52.5470 C.2   213  LYS213      0.2260
    152  O        -10.2960    4.7430   53.5170 O.2   213  LYS213     -0.2867
    153  CB        -7.9110    6.4200   52.6340 C.3   213  LYS213      0.0271
    154  CG        -7.4450    5.5760   51.4720 C.3   213  LYS213      0.0035
    155  CD        -5.9360    5.5190   51.4340 C.3   213  LYS213      0.0206
    156  CE        -5.4520    4.5540   50.3730 C.3   213  LYS213      0.1093
    157  NZ        -4.3760    3.6420   50.8510 N.3   213  LYS213     -0.1314
    158  N         -0.5350    3.9210   47.4030 N.3   249  HIS249     -0.1241
    159  CA        -0.4330    4.3750   48.7770 C.3   249  HIS249      0.1621
    160  C         -0.7930    3.2100   49.7170 C.2   249  HIS249      0.2264
    161  O         -1.6720    2.3910   49.4110 O.2   249  HIS249     -0.2867
    162  CB        -1.3300    5.6070   48.9680 C.3   249  HIS249      0.0745
    163  CG        -1.3640    6.1290   50.3750 C.ar  249  HIS249      0.0817
    164  ND1       -2.2860    5.7030   51.3050 N.ar  249  HIS249     -0.2268
    165  CD2       -0.5910    7.0440   51.0050 C.ar  249  HIS249      0.1154
    166  CE1       -2.0730    6.3270   52.4510 C.ar  249  HIS249      0.1986
    167  NE2       -1.0510    7.1470   52.2950 N.ar  249  HIS249     -0.2212
    168  N         -3.7970    4.9030   55.6600 N.3   252  ASP252     -0.1225
    169  CA        -5.0320    5.6790   55.5280 C.3   252  ASP252      0.1805
    170  C         -4.8350    7.1740   55.6940 C.2   252  ASP252      0.2598
    171  O         -5.8190    7.9280   55.7310 O.2   252  ASP252     -0.2718
    172  CB        -6.1170    5.1310   56.4820 C.3   252  ASP252      0.1424
    173  CG        -5.6370    5.0060   57.9170 C.2   252  ASP252      0.3668
    174  OD1       -4.4260    5.2030   58.1590 O.co2 252  ASP252     -0.2456
    175  OD2       -6.4820    4.6930   58.8100 O.co2 252  ASP252     -0.2456
    176  N         -3.5700    7.6080   55.7270 N.am  253  ASN253     -0.1960
    177  CA        -3.2220    9.0120   55.9460 C.3   253  ASN253      0.1819
    178  C         -1.9550    9.3960   55.1870 C.2   253  ASN253      0.2621
    179  O         -1.2480    8.5330   54.6850 O.2   253  ASN253     -0.2715
    180  CB        -3.0790    9.3100   57.4550 C.3   253  ASN253      0.1195
    181  CG        -2.0250    8.4520   58.1410 C.2   253  ASN253      0.2630
    182  OD1       -0.9000    8.2760   57.6350 O.2   253  ASN253     -0.2716
    183  ND2       -2.3620    7.9520   59.3350 N.am  253  ASN253     -0.0877
    184  N         -1.6920   10.6990   55.1510 N.am  254  HIS254     -0.1973
    185  CA        -0.5300   11.3060   54.4990 C.3   254  HIS254      0.1656
    186  C          0.8520   10.8560   55.0150 C.2   254  HIS254      0.2291
    187  O          1.8670   11.1620   54.4020 O.2   254  HIS254     -0.2864
    188  CB        -0.6380   12.8370   54.5890 C.3   254  HIS254      0.0771
    189  CG        -1.7070   13.4110   53.7170 C.ar  254  HIS254      0.0820
    190  ND1       -2.9680   13.7200   54.1770 N.ar  254  HIS254     -0.2267
    191  CD2       -1.7000   13.7240   52.3980 C.ar  254  HIS254      0.1154
    192  CE1       -3.6920   14.2080   53.1860 C.ar  254  HIS254      0.1986
    193  NE2       -2.9490   14.2070   52.0880 N.ar  254  HIS254     -0.2212
    194  N          4.1230    5.9780   50.0520 N.3   258  TYR258     -0.1241
    195  CA         3.8930    6.3600   48.6800 C.3   258  TYR258      0.1605
    196  C          4.9690    5.7360   47.8010 C.2   258  TYR258      0.2264
    197  O          6.1560    5.9980   47.9780 O.2   258  TYR258     -0.2867
    198  CB         3.9570    7.8760   48.5250 C.3   258  TYR258      0.0534
    199  CG         2.8510    8.6360   49.2090 C.ar  258  TYR258     -0.0201
    200  CD1        2.9330    8.9770   50.5750 C.ar  258  TYR258     -0.0009
    201  CD2        1.7290    9.0310   48.5050 C.ar  258  TYR258     -0.0009
    202  CE1        1.9180    9.6910   51.1830 C.ar  258  TYR258      0.0417
    203  CE2        0.7340    9.7590   49.0940 C.ar  258  TYR258      0.0417
    204  CZ         0.8190   10.0820   50.4420 C.ar  258  TYR258      0.1957
    205  OH        -0.2170   10.7960   51.0120 O.3   258  TYR258     -0.2866
    206  N         -4.1470    4.8060   43.7040 N.3   300  TYR300     -0.1241
    207  CA        -4.9660    6.0300   43.7390 C.3   300  TYR300      0.1605
    208  C         -4.8640    6.8590   42.4700 C.2   300  TYR300      0.2264
    209  O         -5.6240    7.8170   42.3080 O.2   300  TYR300     -0.2867
    210  CB        -4.5880    6.9000   44.9270 C.3   300  TYR300      0.0534
    211  CG        -3.2040    7.4730   44.8580 C.ar  300  TYR300     -0.0201
    212  CD1       -2.9390    8.6110   44.0890 C.ar  300  TYR300     -0.0009
    213  CD2       -2.1530    6.8850   45.5600 C.ar  300  TYR300     -0.0009
    214  CE1       -1.6560    9.1490   44.0260 C.ar  300  TYR300      0.0417
    215  CE2       -0.8690    7.4220   45.5030 C.ar  300  TYR300      0.0417
    216  CZ        -0.6210    8.5400   44.7220 C.ar  300  TYR300      0.1957
    217  OH         0.6420    9.0800   44.6500 O.3   300  TYR300     -0.2866
@<TRIPOS>BOND
     1    65    66    1
     2    82    80   am
     3    73    71   am
     4    74    75    1
     5    72    71    2
     6    81    80    2
     7    68    67    2
     8    67    66    1
     9    66    69    1
    10    71    70    1
    11    80    79    1
    12    50    49    2
    13    90    88    1
    14    69    70    1
    15    75    76    1
    16    75    78    1
    17    51    48    1
    18    51    52    1
    19    77    76    2
    20    79    78    1
    21    76    83   am
    22    48    49    1
    23    48    47    1
    24    49    56   am
    25    52    53    1
    26    88    89    1
    27    88    87    1
    28    83    84    1
    29    59    58    2
    30    43    42    2
    31    53    55   am
    32    53    54    2
    33    56    57    1
    34    47    42   am
    35    58    57    1
    36    57    60    1
    37    84    87    1
    38    84    85    1
    39    42    41    1
    40    98    97    1
    41   209   208    2
    42    46    44    1
    43   208   207    1
    44    97    96    1
    45    45    44    1
    46    96    95    1
    47    60    61    1
    48    85    91   am
    49    85    86    2
    50    61    62    1
    51    91    92    1
    52    44    41    1
    53    41    40    1
    54   206   207    1
    55   207   210    1
    56    95    92    1
    57   214   212   ar
    58   214   216   ar
    59   212   211   ar
    60     4     3    2
    61    92    93    1
    62    35    34    2
    63    40    34   am
    64    62    63   ar
    65    62    64   ar
    66   217   216    1
    67    34    33    1
    68   216   215   ar
    69   211   210    1
    70   211   213   ar
    71    36    33    1
    72    36    37    1
    73     3     2    1
    74   109   107    1
    75     7     9   ar
    76     7     6   ar
    77   215   213   ar
    78    93    94    2
    79    93    99   am
    80    33    32    1
    81    39    37   ar
    82     9    11   ar
    83    37    38   ar
    84    29    31   ar
    85    29    27   ar
    86   106   107    2
    87   106   105    1
    88     5     6    1
    89     5     2    1
    90    99   100    1
    91    31    30   ar
    92   107   108    1
    93     6     8   ar
    94    32    24   am
    95   104   105    1
    96   104   103    1
    97     2     1    1
    98    26    27    1
    99    26    23    1
   100    27    28   ar
   101    11    12    1
   102    11    10   ar
   103   128   127    1
   104    24    25    2
   105    24    23    1
   106   127   126    1
   107    30    28   ar
   108   100   103    1
   109   100   101    1
   110   158   159    1
   111     8    10   ar
   112    23    22    1
   113   196   197    2
   114   196   195    1
   115   113   112    2
   116   201   203   ar
   117   201   199   ar
   118   198   195    1
   119   198   199    1
   120   110   101   am
   121   110   111    1
   122   101   102    2
   123   195   194    1
   124   126   125    1
   125   159   162    1
   126   159   160    1
   127   162   163    1
   128    22    15   am
   129   203   204   ar
   130   199   200   ar
   131    16    15    2
   132   161   160    2
   133   112   111    1
   134   112   121   am
   135   114   111    1
   136   114   115    1
   137    15    14    1
   138   125   122    1
   139    21    19   am
   140   122   121    1
   141   122   123    1
   142   156   157    1
   143   156   155    1
   144   163   165   ar
   145   163   164   ar
   146   204   205    1
   147   204   202   ar
   148   200   202   ar
   149   115   117   ar
   150   115   116   ar
   151   117   119   ar
   152   165   167   ar
   153    18    19    1
   154    18    17    1
   155    14    13    1
   156    14    17    1
   157   164   166   ar
   158    19    20    2
   159   155   154    1
   160   154   153    1
   161   129   123   am
   162   129   130    1
   163   123   124    2
   164   116   118   ar
   165   119   120   ar
   166   193   191   ar
   167   193   192   ar
   168   167   166   ar
   169   133   130    1
   170   133   134    1
   171   191   189   ar
   172   151   150    1
   173   151   152    2
   174   150   153    1
   175   150   149    1
   176   147   146    2
   177   130   131    1
   178   132   131    2
   179   148   146   am
   180   146   145    1
   181   118   120   ar
   182   192   190   ar
   183   145   142    1
   184   134   136   ar
   185   134   135   ar
   186   189   190   ar
   187   189   188    1
   188   136   138   ar
   189   135   137   ar
   190   187   186    2
   191   142   143    1
   192   142   141    1
   193   185   188    1
   194   185   186    1
   195   185   184    1
   196   179   178    2
   197   143   144    2
   198   138   139   ar
   199   184   178   am
   200   178   177    1
   201   137   139   ar
   202   169   168    1
   203   169   170    1
   204   169   172    1
   205   170   176   am
   206   170   171    2
   207   176   177    1
   208   139   140    1
   209   177   180    1
   210   172   173    1
   211   180   181    1
   212   182   181    2
   213   173   174   ar
   214   173   175   ar
   215   181   183   am
