@<TRIPOS>MOLECULE
tmp/6f5kA07.pdb
 144 139 0 0 0
SMALL
GASTEIGER

@<TRIPOS>ATOM
      1  N         32.0800   30.5240  -23.4130 N.3    41  GLU41      -0.1245
      2  CA        31.7930   30.8730  -24.7930 C.3    41  GLU41       0.1567
      3  C         32.7040   30.0230  -25.6600 C.2    41  GLU41       0.2260
      4  O         33.9100   29.9730  -25.4100 O.2    41  GLU41      -0.2867
      5  CB        32.0620   32.3600  -24.9900 C.3    41  GLU41       0.0388
      6  CG        31.5200   32.9580  -26.2370 C.3    41  GLU41       0.1160
      7  CD        31.4140   34.4650  -26.1240 C.2    41  GLU41       0.3649
      8  OE1       31.2500   34.9690  -24.9900 O.co2  41  GLU41      -0.2457
      9  OE2       31.4960   35.1430  -27.1690 O.co2  41  GLU41      -0.2457
     10  N         29.0700   29.8640  -32.8040 N.3    55  LYS55      -0.1245
     11  CA        29.2860   30.2200  -31.4140 C.3    55  LYS55       0.1561
     12  C         28.1740   29.6350  -30.5610 C.2    55  LYS55       0.2260
     13  O         26.9990   29.6930  -30.9330 O.2    55  LYS55      -0.2867
     14  CB        29.3430   31.7410  -31.2260 C.3    55  LYS55       0.0271
     15  CG        29.8970   32.1520  -29.8580 C.3    55  LYS55       0.0035
     16  CD        29.7310   33.6320  -29.6200 C.3    55  LYS55       0.0206
     17  CE        30.7600   34.4340  -30.3920 C.3    55  LYS55       0.1093
     18  NZ        32.1050   34.3320  -29.7770 N.3    55  LYS55      -0.1314
     19  N         27.1600   29.1490  -26.1150 N.3    57  MET57      -0.1245
     20  CA        27.4040   29.6270  -24.7620 C.3    57  MET57       0.1570
     21  C         26.8860   28.5280  -23.8540 C.2    57  MET57       0.2261
     22  O         25.6920   28.2110  -23.8930 O.2    57  MET57      -0.2867
     23  CB        26.7070   30.9600  -24.5050 C.3    57  MET57       0.0387
     24  CG        27.1690   32.0710  -25.4510 C.3    57  MET57       0.0595
     25  SD        26.4360   33.6740  -25.1080 S.3    57  MET57      -0.1393
     26  CE        27.2530   34.6910  -26.3350 C.3    57  MET57       0.0692
     27  N         31.9330   38.7430  -23.5970 N.3    86  THR86      -0.1203
     28  CA        31.3730   40.0910  -23.5460 C.3    86  THR86       0.1994
     29  C         30.0370   40.1680  -22.8230 C.2    86  THR86       0.2617
     30  O         29.7670   41.1730  -22.1580 O.2    86  THR86      -0.2717
     31  CB        31.1660   40.6730  -24.9610 C.3    86  THR86       0.1784
     32  OG1       30.2090   39.8730  -25.6720 O.3    86  THR86      -0.2211
     33  CG2       32.4780   40.7350  -25.7200 C.3    86  THR86       0.0376
     34  N         29.1790   39.1540  -22.9720 N.am   87  ASN87      -0.1974
     35  CA        27.8230   39.2370  -22.4550 C.3    87  ASN87       0.1688
     36  C         27.8290   39.2320  -20.9330 C.2    87  ASN87       0.2292
     37  O         28.5380   38.4400  -20.3040 O.2    87  ASN87      -0.2864
     38  CB        26.9470   38.0430  -22.8660 C.3    87  ASN87       0.1181
     39  CG        26.5120   38.0330  -24.3260 C.2    87  ASN87       0.2629
     40  OD1       25.6920   37.1800  -24.6910 O.2    87  ASN87      -0.2716
     41  ND2       27.0400   38.9310  -25.1660 N.am   87  ASN87      -0.0877
     42  N         19.2600   37.1780  -20.1870 N.3   139  PHE139     -0.1241
     43  CA        20.0150   38.2640  -20.8260 C.3   139  PHE139      0.1605
     44  C         19.6750   38.2790  -22.3160 C.2   139  PHE139      0.2264
     45  O         20.2590   37.5540  -23.1220 O.2   139  PHE139     -0.2867
     46  CB        21.5050   38.0600  -20.5750 C.3   139  PHE139      0.0534
     47  CG        22.3750   39.2060  -21.0010 C.ar  139  PHE139     -0.0203
     48  CD1       22.6290   40.2630  -20.1350 C.ar  139  PHE139     -0.0042
     49  CD2       22.9820   39.2040  -22.2390 C.ar  139  PHE139     -0.0042
     50  CE1       23.4550   41.3070  -20.5030 C.ar  139  PHE139     -0.0003
     51  CE2       23.7970   40.2500  -22.6170 C.ar  139  PHE139     -0.0003
     52  CZ        24.0320   41.3070  -21.7450 C.ar  139  PHE139     -0.0000
     53  N         21.5880   30.3020  -26.9880 N.3   145  ASN145     -0.1240
     54  CA        22.9390   29.8600  -27.3150 C.3   145  ASN145      0.1653
     55  C         23.3750   28.6430  -26.5170 C.2   145  ASN145      0.2266
     56  O         24.4250   28.0610  -26.8220 O.2   145  ASN145     -0.2867
     57  CB        23.9480   30.9900  -27.0990 C.3   145  ASN145      0.1155
     58  CG        23.8680   32.0320  -28.1790 C.2   145  ASN145      0.2627
     59  OD1       23.5060   31.7290  -29.3210 O.2   145  ASN145     -0.2716
     60  ND2       24.1960   33.2720  -27.8360 N.am  145  ASN145     -0.0877
     61  N         23.2010   31.8500  -34.2960 N.3   177  SER177     -0.1217
     62  CA        23.2390   32.2490  -32.9000 C.3   177  SER177      0.1889
     63  C         21.9450   32.9510  -32.4800 C.2   177  SER177      0.2288
     64  O         21.1500   33.4040  -33.3080 O.2   177  SER177     -0.2866
     65  CB        24.4170   33.1900  -32.6570 C.3   177  SER177      0.2089
     66  OG        24.1410   34.4640  -33.2110 O.3   177  SER177     -0.2183
     67  N         21.7240   35.9200  -31.0600 N.3   179  ASP179     -0.1239
     68  CA        21.7540   37.3180  -31.4890 C.3   179  ASP179      0.1674
     69  C         21.4500   37.4470  -32.9760 C.2   179  ASP179      0.2266
     70  O         20.7630   38.3850  -33.3980 O.2   179  ASP179     -0.2867
     71  CB        23.1050   37.9430  -31.1510 C.3   179  ASP179      0.1410
     72  CG        23.2280   38.2670  -29.6770 C.2   179  ASP179      0.3668
     73  OD1       22.7420   39.3410  -29.2400 O.co2 179  ASP179     -0.2456
     74  OD2       23.7660   37.4150  -28.9440 O.co2 179  ASP179     -0.2456
     75  N         19.4960   47.4690  -18.1190 N.3   382  TRP382     -0.1241
     76  CA        20.1670   46.4560  -17.3200 C.3   382  TRP382      0.1605
     77  C         20.8390   47.0340  -16.0810 C.2   382  TRP382      0.2264
     78  O         21.0340   46.3150  -15.0940 O.2   382  TRP382     -0.2867
     79  CB        21.2240   45.7510  -18.1680 C.3   382  TRP382      0.0550
     80  CG        20.7210   44.7470  -19.1450 C.ar  382  TRP382      0.0003
     81  CD1       19.6750   43.8880  -18.9740 C.ar  382  TRP382      0.0946
     82  CD2       21.2580   44.4770  -20.4480 C.ar  382  TRP382      0.0152
     83  NE1       19.5240   43.1020  -20.0910 N.ar  382  TRP382     -0.2442
     84  CE2       20.4840   43.4410  -21.0080 C.ar  382  TRP382      0.0810
     85  CE3       22.3190   45.0070  -21.1930 C.ar  382  TRP382      0.0012
     86  CZ2       20.7350   42.9270  -22.2770 C.ar  382  TRP382      0.0191
     87  CZ3       22.5650   44.4940  -22.4500 C.ar  382  TRP382      0.0001
     88  CH2       21.7720   43.4690  -22.9830 C.ar  382  TRP382      0.0015
     89  N         29.8500   48.1020  -18.2730 N.3   545  TRP545     -0.1241
     90  CA        29.0560   48.2670  -19.4840 C.3   545  TRP545      0.1605
     91  C         29.6780   49.2140  -20.5000 C.2   545  TRP545      0.2264
     92  O         29.6670   48.8770  -21.6960 O.2   545  TRP545     -0.2867
     93  CB        27.6400   48.7260  -19.1110 C.3   545  TRP545      0.0550
     94  CG        26.7360   48.9720  -20.2820 C.ar  545  TRP545      0.0003
     95  CD1       26.0880   50.1330  -20.5870 C.ar  545  TRP545      0.0946
     96  CD2       26.3810   48.0350  -21.3090 C.ar  545  TRP545      0.0152
     97  NE1       25.3430   49.9760  -21.7330 N.ar  545  TRP545     -0.2442
     98  CE2       25.5070   48.6970  -22.1970 C.ar  545  TRP545      0.0810
     99  CE3       26.7110   46.6990  -21.5570 C.ar  545  TRP545      0.0012
    100  CZ2       24.9750   48.0730  -23.3210 C.ar  545  TRP545      0.0191
    101  CZ3       26.1800   46.0830  -22.6620 C.ar  545  TRP545      0.0001
    102  CH2       25.3260   46.7700  -23.5370 C.ar  545  TRP545      0.0015
    103  N         31.8810   47.5780  -23.0460 N.3   548  ASN548     -0.1240
    104  CA        31.3740   46.5000  -23.8810 C.3   548  ASN548      0.1653
    105  C         31.4260   46.9010  -25.3520 C.2   548  ASN548      0.2266
    106  O         31.0330   48.0160  -25.7050 O.2   548  ASN548     -0.2867
    107  CB        29.9410   46.1510  -23.4980 C.3   548  ASN548      0.1155
    108  CG        29.5090   44.8290  -24.0720 C.2   548  ASN548      0.2627
    109  OD1       30.0880   43.7940  -23.7500 O.2   548  ASN548     -0.2716
    110  ND2       28.4940   44.8480  -24.9280 N.am  548  ASN548     -0.0877
    111  N         29.5620   45.8810  -27.7830 N.3   550  TYR550     -0.1228
    112  CA        28.3000   45.7230  -28.4810 C.3   550  TYR550      0.1721
    113  C         27.1800   46.4890  -27.7900 C.2   550  TYR550      0.2437
    114  O         27.1600   46.6060  -26.5610 O.2   550  TYR550     -0.2733
    115  CB        27.8970   44.2420  -28.5620 C.3   550  TYR550      0.0547
    116  CG        28.9280   43.3340  -29.1940 C.ar  550  TYR550     -0.0200
    117  CD1       29.2900   43.4850  -30.5210 C.ar  550  TYR550     -0.0009
    118  CD2       29.5190   42.3080  -28.4660 C.ar  550  TYR550     -0.0009
    119  CE1       30.2240   42.6560  -31.0990 C.ar  550  TYR550      0.0417
    120  CE2       30.4500   41.4720  -29.0370 C.ar  550  TYR550      0.0417
    121  CZ        30.7930   41.6460  -30.3530 C.ar  550  TYR550      0.1957
    122  OH        31.7210   40.8090  -30.9210 O.3   550  TYR550     -0.2866
    123  N         26.2180   46.9940  -28.5520 N.am  551  PRO551     -0.2718
    124  CA        25.0650   47.6550  -27.9390 C.3   551  PRO551      0.1535
    125  C         24.0610   46.6420  -27.4140 C.2   551  PRO551      0.2598
    126  O         24.0870   45.4570  -27.7490 O.2   551  PRO551     -0.2715
    127  CB        24.4770   48.4740  -29.0940 C.3   551  PRO551      0.0310
    128  CG        24.7940   47.6620  -30.2950 C.3   551  PRO551      0.0237
    129  CD        26.1550   47.0450  -30.0280 C.3   551  PRO551      0.0939
    130  N         23.1880   47.1300  -26.5420 N.am  552  LYS552     -0.1964
    131  CA        21.9920   46.3850  -26.1780 C.3   552  LYS552      0.1728
    132  C         21.0650   46.3850  -27.3840 C.2   552  LYS552      0.2616
    133  O         20.7410   47.4500  -27.9180 O.2   552  LYS552     -0.2715
    134  CB        21.3300   47.0240  -24.9690 C.3   552  LYS552      0.0311
    135  CG        20.0270   46.3840  -24.5490 C.3   552  LYS552      0.0038
    136  CD        19.6850   46.8470  -23.1530 C.3   552  LYS552      0.0206
    137  CE        18.2800   46.5000  -22.7750 C.3   552  LYS552      0.1093
    138  NZ        17.3100   47.4150  -23.4250 N.3   552  LYS552     -0.1314
    139  N         20.6630   45.2040  -27.8440 N.am  553  SER553     -0.1950
    140  CA        20.0120   45.0840  -29.1400 C.3   553  SER553      0.1924
    141  C         18.4910   45.0790  -29.0690 C.2   553  SER553      0.2314
    142  O         17.8380   45.1530  -30.1190 O.2   553  SER553     -0.2863
    143  CB        20.4760   43.7960  -29.8380 C.3   553  SER553      0.2116
    144  OG        20.0650   42.6570  -29.0970 O.3   553  SER553     -0.2180
@<TRIPOS>BOND
     1    61    62    1
     2    70    69    2
     3    64    63    2
     4    66    65    1
     5    69    68    1
     6    62    65    1
     7    62    63    1
     8    10    11    1
     9    68    71    1
    10    68    67    1
    11    11    14    1
    12    11    12    1
    13    14    15    1
    14    71    72    1
    15   119   117   ar
    16   119   121   ar
    17    13    12    2
    18   122   121    1
    19   117   116   ar
    20    17    18    1
    21    17    16    1
    22   121   120   ar
    23   128   129    1
    24   128   127    1
    25   142   141    2
    26   129   123    1
    27    15    16    1
    28   143   140    1
    29   143   144    1
    30    72    73   ar
    31    72    74   ar
    32    59    58    2
    33   116   115    1
    34   116   118   ar
    35   140   141    1
    36   140   139    1
    37   127   124    1
    38   120   118   ar
    39   115   112    1
    40   123   124    1
    41   123   113   am
    42   112   113    1
    43   112   111    1
    44    58    60   am
    45    58    57    1
    46   124   125    1
    47   133   132    2
    48   139   132   am
    49   113   114    2
    50   126   125    2
    51   125   130   am
    52   132   131    1
    53    54    57    1
    54    54    53    1
    55    54    55    1
    56     9     7   ar
    57    56    55    2
    58   130   131    1
    59    26    25    1
    60     6     7    1
    61     6     5    1
    62   131   134    1
    63     7     8   ar
    64    19    20    1
    65    33    31    1
    66   106   105    2
    67    32    31    1
    68     3     4    2
    69     3     2    1
    70    24    25    1
    71    24    23    1
    72   105   104    1
    73    41    39   am
    74     5     2    1
    75   134   135    1
    76    31    28    1
    77   110   108   am
    78     2     1    1
    79    20    23    1
    80    20    21    1
    81    40    39    2
    82   135   136    1
    83    39    38    1
    84   108   109    2
    85   108   107    1
    86    22    21    2
    87   104   107    1
    88   104   103    1
    89    27    28    1
    90    28    29    1
    91   102   100   ar
    92   102   101   ar
    93   138   137    1
    94   100    98   ar
    95   136   137    1
    96    45    44    2
    97    88    87   ar
    98    88    86   ar
    99    34    29   am
   100    34    35    1
   101    38    35    1
   102    29    30    2
   103   101    99   ar
   104    51    49   ar
   105    51    52   ar
   106    35    36    1
   107    87    85   ar
   108    44    43    1
   109    86    84   ar
   110    49    47   ar
   111    98    97   ar
   112    98    96   ar
   113    52    50   ar
   114    97    95   ar
   115    92    91    2
   116    99    96   ar
   117    96    94   ar
   118    85    82   ar
   119    84    82   ar
   120    84    83   ar
   121    47    46    1
   122    47    48   ar
   123    36    37    2
   124    43    46    1
   125    43    42    1
   126    95    94   ar
   127    50    48   ar
   128    91    90    1
   129    82    80   ar
   130    94    93    1
   131    83    81   ar
   132    90    93    1
   133    90    89    1
   134    80    81   ar
   135    80    79    1
   136    79    76    1
   137    75    76    1
   138    76    77    1
   139    77    78    2
