@<TRIPOS>MOLECULE
tmp/6f5kA00.pdb
 112 109 0 0 0
SMALL
GASTEIGER

@<TRIPOS>ATOM
      1  N         20.2330    9.3280  -31.6210 N.3   212  TYR212     -0.1241
      2  CA        18.9830    9.5280  -30.9040 C.3   212  TYR212      0.1605
      3  C         19.2320    9.4330  -29.4050 C.2   212  TYR212      0.2264
      4  O         20.0240    8.6060  -28.9400 O.2   212  TYR212     -0.2867
      5  CB        17.9300    8.4850  -31.2900 C.3   212  TYR212      0.0534
      6  CG        17.5990    8.4250  -32.7600 C.ar  212  TYR212     -0.0201
      7  CD1       16.8870    9.4460  -33.3830 C.ar  212  TYR212     -0.0009
      8  CD2       17.9910    7.3400  -33.5260 C.ar  212  TYR212     -0.0009
      9  CE1       16.5930    9.3810  -34.7370 C.ar  212  TYR212      0.0417
     10  CE2       17.6950    7.2640  -34.8650 C.ar  212  TYR212      0.0417
     11  CZ        17.0010    8.2820  -35.4680 C.ar  212  TYR212      0.1957
     12  OH        16.7280    8.1890  -36.8120 O.3   212  TYR212     -0.2866
     13  N          4.6000   12.3100  -28.3560 N.3   239  SER239     -0.1217
     14  CA         3.8640   11.0600  -28.3020 C.3   239  SER239      0.1889
     15  C          4.8660    9.9170  -28.3300 C.2   239  SER239      0.2288
     16  O          5.8940   10.0060  -29.0060 O.2   239  SER239     -0.2866
     17  CB         2.8800   10.9410  -29.4720 C.3   239  SER239      0.2089
     18  OG         3.5400   11.0770  -30.7210 O.3   239  SER239     -0.2183
     19  N          5.1310    6.0340  -29.4190 N.3   241  VAL241     -0.1245
     20  CA         4.4160    5.0410  -30.2130 C.3   241  VAL241      0.1561
     21  C          3.9190    3.9190  -29.3130 C.2   241  VAL241      0.2260
     22  O          4.6720    3.3640  -28.5040 O.2   241  VAL241     -0.2867
     23  CB         5.3160    4.4900  -31.3330 C.3   241  VAL241      0.0252
     24  CG1        4.6140    3.3610  -32.0920 C.3   241  VAL241      0.0019
     25  CG2        5.6920    5.5780  -32.2880 C.3   241  VAL241      0.0019
     26  N          9.5470    4.7850  -30.9660 N.3   285  TRP285     -0.1241
     27  CA         9.8730    6.1820  -31.1880 C.3   285  TRP285      0.1605
     28  C          9.1440    7.0620  -30.1810 C.2   285  TRP285      0.2264
     29  O          7.9570    6.8700  -29.9030 O.2   285  TRP285     -0.2867
     30  CB         9.4730    6.6600  -32.5780 C.3   285  TRP285      0.0550
     31  CG        10.1650    6.0660  -33.7290 C.ar  285  TRP285      0.0003
     32  CD1        9.5890    5.3360  -34.7180 C.ar  285  TRP285      0.0946
     33  CD2       11.5580    6.1580  -34.0500 C.ar  285  TRP285      0.0152
     34  NE1       10.5300    4.9680  -35.6440 N.ar  285  TRP285     -0.2442
     35  CE2       11.7500    5.4550  -35.2530 C.ar  285  TRP285      0.0810
     36  CE3       12.6610    6.7640  -33.4380 C.ar  285  TRP285      0.0012
     37  CZ2       12.9980    5.3340  -35.8550 C.ar  285  TRP285      0.0191
     38  CZ3       13.9010    6.6450  -34.0410 C.ar  285  TRP285      0.0001
     39  CH2       14.0580    5.9380  -35.2380 C.ar  285  TRP285      0.0015
     40  N          8.2050   10.7500  -30.4880 N.3   287  ASN287     -0.1225
     41  CA         8.1390   11.6940  -31.5880 C.3   287  ASN287      0.1785
     42  C          7.7480   13.0960  -31.1470 C.2   287  ASN287      0.2597
     43  O          6.8690   13.2760  -30.2990 O.2   287  ASN287     -0.2718
     44  CB         7.0950   11.2560  -32.6110 C.3   287  ASN287      0.1169
     45  CG         7.4720   10.0250  -33.3850 C.2   287  ASN287      0.2627
     46  OD1        7.0800    8.9070  -33.0450 O.2   287  ASN287     -0.2716
     47  ND2        8.2170   10.2320  -34.4660 N.am  287  ASN287     -0.0877
     48  N          8.3530   14.0830  -31.8000 N.am  288  VAL288     -0.1966
     49  CA         7.8680   15.4550  -31.8140 C.3   288  VAL288      0.1727
     50  C          7.1630   15.6940  -33.1410 C.2   288  VAL288      0.2616
     51  O          7.6840   15.3500  -34.2130 O.2   288  VAL288     -0.2715
     52  CB         9.0240   16.4490  -31.6040 C.3   288  VAL288      0.0290
     53  CG1        8.7010   17.8210  -32.1650 C.3   288  VAL288      0.0023
     54  CG2        9.3640   16.5490  -30.1070 C.3   288  VAL288      0.0023
     55  N          5.9700   16.2740  -33.0580 N.am  289  THR289     -0.1951
     56  CA         5.2340   16.7670  -34.2040 C.3   289  THR289      0.1897
     57  C          4.7470   18.1790  -33.9020 C.2   289  THR289      0.2313
     58  O          4.7610   18.6470  -32.7590 O.2   289  THR289     -0.2863
     59  CB         4.0580   15.8490  -34.5630 C.3   289  THR289      0.1794
     60  OG1        3.1960   15.6770  -33.4320 O.3   289  THR289     -0.2208
     61  CG2        4.5630   14.4910  -35.0010 C.3   289  THR289      0.0378
     62  N         10.9630   14.6670  -38.8710 N.3   303  TYR303     -0.1241
     63  CA        10.5610   13.6250  -37.9250 C.3   303  TYR303      0.1605
     64  C         11.5370   13.5970  -36.7570 C.2   303  TYR303      0.2264
     65  O         12.2710   12.6220  -36.5550 O.2   303  TYR303     -0.2867
     66  CB        10.4870   12.2600  -38.6170 C.3   303  TYR303      0.0534
     67  CG         9.5380   12.2180  -39.7910 C.ar  303  TYR303     -0.0201
     68  CD1        8.1640   12.1950  -39.5960 C.ar  303  TYR303     -0.0009
     69  CD2       10.0160   12.1980  -41.0930 C.ar  303  TYR303     -0.0009
     70  CE1        7.2930   12.1610  -40.6630 C.ar  303  TYR303      0.0417
     71  CE2        9.1550   12.1640  -42.1650 C.ar  303  TYR303      0.0417
     72  CZ         7.7930   12.1500  -41.9440 C.ar  303  TYR303      0.1957
     73  OH         6.9270   12.1130  -43.0110 O.3   303  TYR303     -0.2866
     74  N         12.8920   12.8690  -33.1860 N.3   305  ALA305     -0.1245
     75  CA        12.5040   11.7430  -32.3520 C.3   305  ALA305      0.1562
     76  C         13.6370   11.3160  -31.4350 C.2   305  ALA305      0.2260
     77  O         14.8130   11.5910  -31.6860 O.2   305  ALA305     -0.2867
     78  CB        12.0630   10.5490  -33.2110 C.3   305  ALA305      0.0290
     79  N          6.6240    3.2060  -37.2950 N.3   321  GLU321     -0.1231
     80  CA         6.6410    4.6610  -37.3870 C.3   321  GLU321      0.1699
     81  C          5.4750    5.3070  -36.6510 C.2   321  GLU321      0.2593
     82  O          5.5250    6.5110  -36.3750 O.2   321  GLU321     -0.2718
     83  CB         6.6370    5.0900  -38.8570 C.3   321  GLU321      0.0402
     84  CG         7.9270    4.7560  -39.5720 C.3   321  GLU321      0.1161
     85  CD         7.9320    5.1620  -41.0340 C.2   321  GLU321      0.3649
     86  OE1        6.9170    5.6890  -41.5370 O.co2 321  GLU321     -0.2457
     87  OE2        8.9700    4.9490  -41.6900 O.co2 321  GLU321     -0.2457
     88  N          4.4350    4.5420  -36.3360 N.am  322  GLY322     -0.1942
     89  CA         3.2990    5.0650  -35.6040 C.3   322  GLY322      0.2014
     90  C          2.4710    6.0160  -36.4470 C.2   322  GLY322      0.2639
     91  O          2.7120    6.2290  -37.6340 O.2   322  GLY322     -0.2714
     92  N          1.4720    6.6020  -35.7990 N.am  323  LYS323     -0.1963
     93  CA         0.5750    7.5410  -36.4470 C.3   323  LYS323      0.1728
     94  C          0.7380    8.9290  -35.8440 C.2   323  LYS323      0.2616
     95  O          1.0760    9.0830  -34.6650 O.2   323  LYS323     -0.2715
     96  CB        -0.8840    7.0960  -36.3160 C.3   323  LYS323      0.0311
     97  CG        -1.1110    5.6180  -36.5800 C.3   323  LYS323      0.0038
     98  CD        -2.5870    5.3040  -36.7730 C.3   323  LYS323      0.0206
     99  CE        -2.9100    5.0420  -38.2380 C.3   323  LYS323      0.1093
    100  NZ        -4.3190    4.5950  -38.4300 N.3   323  LYS323     -0.1314
    101  N          0.4910    9.9370  -36.6690 N.am  324  ALA324     -0.1964
    102  CA         0.5540   11.3000  -36.1810 C.3   324  ALA324      0.1713
    103  C         -0.5120   11.4960  -35.1100 C.2   324  ALA324      0.2458
    104  O         -1.6170   10.9440  -35.2200 O.2   324  ALA324     -0.2730
    105  CB         0.3490   12.3040  -37.3140 C.3   324  ALA324      0.0333
    106  N         -0.2130   12.2510  -34.0600 N.am  325  PRO325     -0.2727
    107  CA        -1.2330   12.5660  -33.0610 C.3   325  PRO325      0.1402
    108  C         -2.2310   13.5770  -33.5970 C.2   325  PRO325      0.2269
    109  O         -2.0780   14.1540  -34.6770 O.2   325  PRO325     -0.2865
    110  CB        -0.4240   13.1410  -31.8940 C.3   325  PRO325      0.0296
    111  CG         0.7800   13.7360  -32.5470 C.3   325  PRO325      0.0237
    112  CD         1.1020   12.8180  -33.7030 C.3   325  PRO325      0.0939
@<TRIPOS>BOND
     1    73    72    1
     2    71    72   ar
     3    71    69   ar
     4    72    70   ar
     5    87    85   ar
     6    86    85   ar
     7    69    67   ar
     8    85    84    1
     9    70    68   ar
    10    67    68   ar
    11    67    66    1
    12    84    83    1
    13    62    63    1
    14    83    80    1
    15    66    63    1
    16   100    99    1
    17    99    98    1
    18    63    64    1
    19    91    90    2
    20    80    79    1
    21    80    81    1
    22   105   102    1
    23    12    11    1
    24    98    97    1
    25    64    65    2
    26   101   102    1
    27   101    94   am
    28    81    82    2
    29    81    88   am
    30    97    96    1
    31    90    92   am
    32    90    89    1
    33    93    96    1
    34    93    94    1
    35    93    92    1
    36    88    89    1
    37   102   103    1
    38    37    35   ar
    39    37    39   ar
    40    94    95    2
    41    34    35   ar
    42    34    32   ar
    43    11    10   ar
    44    11     9   ar
    45    35    33   ar
    46    39    38   ar
    47   104   103    2
    48   103   106   am
    49    61    59    1
    50    10     8   ar
    51     9     7   ar
    52    32    31   ar
    53   109   108    2
    54    59    56    1
    55    59    60    1
    56    47    45   am
    57    51    50    2
    58    56    57    1
    59    56    55    1
    60   106   112    1
    61   106   107    1
    62    33    31   ar
    63    33    36   ar
    64    38    36   ar
    65    57    58    2
    66    31    30    1
    67   112   111    1
    68   108   107    1
    69     8     6   ar
    70    45    46    2
    71    45    44    1
    72     7     6   ar
    73    78    75    1
    74    74    75    1
    75    50    55   am
    76    50    49    1
    77   107   110    1
    78     6     5    1
    79    44    41    1
    80    30    27    1
    81   111   110    1
    82    75    76    1
    83    25    23    1
    84    53    52    1
    85    24    23    1
    86    49    48    1
    87    49    52    1
    88    48    42   am
    89    77    76    2
    90     1     2    1
    91    52    54    1
    92    41    42    1
    93    41    40    1
    94    23    20    1
    95     5     2    1
    96    27    26    1
    97    27    28    1
    98    42    43    2
    99     2     3    1
   100    18    17    1
   101    20    19    1
   102    20    21    1
   103    28    29    2
   104    17    14    1
   105     3     4    2
   106    21    22    2
   107    16    15    2
   108    13    14    1
   109    15    14    1
