@<TRIPOS>MOLECULE
tmp/6f5kA13.pdb
 82 77 0 0 0
SMALL
GASTEIGER

@<TRIPOS>ATOM
      1  N         23.1810   10.9900  -32.7890 N.3   211  GLU211     -0.1231
      2  CA        22.5420    9.8480  -32.1500 C.3   211  GLU211      0.1699
      3  C         21.1900   10.2570  -31.5770 C.2   211  GLU211      0.2592
      4  O         21.0190   11.3800  -31.0910 O.2   211  GLU211     -0.2718
      5  CB        23.4020    9.2680  -31.0090 C.3   211  GLU211      0.0402
      6  CG        24.7830    8.7820  -31.4170 C.3   211  GLU211      0.1161
      7  CD        24.7300    7.5940  -32.3560 C.2   211  GLU211      0.3649
      8  OE1       23.6760    6.9240  -32.4080 O.co2 211  GLU211     -0.2457
      9  OE2       25.7410    7.3330  -33.0450 O.co2 211  GLU211     -0.2457
     10  N         20.2330    9.3280  -31.6210 N.am  212  TYR212     -0.1976
     11  CA        18.9830    9.5280  -30.9040 C.3   212  TYR212      0.1639
     12  C         19.2320    9.4330  -29.4050 C.2   212  TYR212      0.2290
     13  O         20.0240    8.6060  -28.9400 O.2   212  TYR212     -0.2864
     14  CB        17.9300    8.4850  -31.2900 C.3   212  TYR212      0.0560
     15  CG        17.5990    8.4250  -32.7600 C.ar  212  TYR212     -0.0198
     16  CD1       16.8870    9.4460  -33.3830 C.ar  212  TYR212     -0.0009
     17  CD2       17.9910    7.3400  -33.5260 C.ar  212  TYR212     -0.0009
     18  CE1       16.5930    9.3810  -34.7370 C.ar  212  TYR212      0.0417
     19  CE2       17.6950    7.2640  -34.8650 C.ar  212  TYR212      0.0417
     20  CZ        17.0010    8.2820  -35.4680 C.ar  212  TYR212      0.1957
     21  OH        16.7280    8.1890  -36.8120 O.3   212  TYR212     -0.2866
     22  N         18.2400    7.9410  -25.9720 N.3   214  ASN214     -0.1240
     23  CA        17.9400    6.5240  -25.7730 C.3   214  ASN214      0.1653
     24  C         17.5530    6.3430  -24.3120 C.2   214  ASN214      0.2266
     25  O         18.4100    6.3680  -23.4250 O.2   214  ASN214     -0.2867
     26  CB        19.1440    5.6830  -26.1680 C.3   214  ASN214      0.1155
     27  CG        18.9060    4.2080  -26.0350 C.2   214  ASN214      0.2627
     28  OD1       17.8280    3.7560  -25.6460 O.2   214  ASN214     -0.2716
     29  ND2       19.9250    3.4380  -26.3760 N.am  214  ASN214     -0.0877
     30  N         15.7830    4.0460  -21.4130 N.3   216  THR216     -0.1218
     31  CA        15.5650    2.6280  -21.1620 C.3   216  THR216      0.1862
     32  C         14.3940    2.4250  -20.2060 C.2   216  THR216      0.2287
     33  O         14.3480    3.0140  -19.1190 O.2   216  THR216     -0.2866
     34  CB        16.8260    1.9520  -20.6160 C.3   216  THR216      0.1770
     35  OG1       17.8410    1.9580  -21.6280 O.3   216  THR216     -0.2211
     36  CG2       16.5270    0.5000  -20.2270 C.3   216  THR216      0.0375
     37  N         11.6300   -1.4730  -29.2880 N.3   283  ASN283     -0.1240
     38  CA        12.0850   -0.0970  -29.3930 C.3   283  ASN283      0.1653
     39  C         10.9630    0.7380  -29.9770 C.2   283  ASN283      0.2266
     40  O         10.3470    0.3480  -30.9740 O.2   283  ASN283     -0.2867
     41  CB        13.3330   -0.0080  -30.2540 C.3   283  ASN283      0.1155
     42  CG        14.4790   -0.7600  -29.6550 C.2   283  ASN283      0.2627
     43  OD1       14.9640   -0.4050  -28.5830 O.2   283  ASN283     -0.2716
     44  ND2       14.9210   -1.8120  -30.3330 N.am  283  ASN283     -0.0877
     45  N         14.4320    7.5320  -28.8570 N.3   307  ILE307     -0.1245
     46  CA        14.1320    6.1060  -28.8030 C.3   307  ILE307      0.1561
     47  C         13.9030    5.7140  -27.3540 C.2   307  ILE307      0.2260
     48  O         14.6980    6.0650  -26.4720 O.2   307  ILE307     -0.2867
     49  CB        15.2510    5.2380  -29.4110 C.3   307  ILE307      0.0252
     50  CG1       15.4340    5.5340  -30.9000 C.3   307  ILE307      0.0019
     51  CG2       14.9380    3.7520  -29.1790 C.3   307  ILE307      0.0019
     52  CD1       16.6300    4.8160  -31.5430 C.3   307  ILE307      0.0001
     53  N         13.6430    2.2700  -25.2540 N.3   309  HIS309     -0.1241
     54  CA        14.1140    0.9010  -25.4160 C.3   309  HIS309      0.1621
     55  C         13.7340    0.0910  -24.1860 C.2   309  HIS309      0.2264
     56  O         14.0750    0.4750  -23.0620 O.2   309  HIS309     -0.2867
     57  CB        15.6310    0.8960  -25.6120 C.3   309  HIS309      0.0745
     58  CG        16.2560   -0.4540  -25.4730 C.ar  309  HIS309      0.0817
     59  ND1       16.2130   -1.3970  -26.4750 N.ar  309  HIS309     -0.2268
     60  CD2       16.9390   -1.0220  -24.4510 C.ar  309  HIS309      0.1154
     61  CE1       16.8390   -2.4900  -26.0770 C.ar  309  HIS309      0.1986
     62  NE2       17.2940   -2.2880  -24.8540 N.ar  309  HIS309     -0.2212
     63  N         15.3460   -6.0910  -24.7560 N.3   313  ALA313     -0.1245
     64  CA        14.9590   -6.1640  -26.1510 C.3   313  ALA313      0.1562
     65  C         16.1820   -5.9500  -27.0360 C.2   313  ALA313      0.2260
     66  O         17.2470   -5.5420  -26.5650 O.2   313  ALA313     -0.2867
     67  CB        13.8830   -5.1260  -26.4610 C.3   313  ALA313      0.0290
     68  N         18.6760   -4.1890  -29.8760 N.3   315  GLY315     -0.1210
     69  CA        19.0830   -2.8360  -30.1740 C.3   315  GLY315      0.1956
     70  C         18.5350   -2.3710  -31.5110 C.2   315  GLY315      0.2612
     71  O         17.6320   -2.9650  -32.0960 O.2   315  GLY315     -0.2717
     72  N         19.1050   -1.2710  -31.9990 N.am  316  GLY316     -0.1942
     73  CA        18.7100   -0.7190  -33.2720 C.3   316  GLY316      0.1998
     74  C         17.5220    0.2090  -33.1370 C.2   316  GLY316      0.2480
     75  O         17.0120    0.4470  -32.0400 O.2   316  GLY316     -0.2729
     76  N         17.0620    0.7600  -34.2530 N.am  317  PRO317     -0.2726
     77  CA        15.9860    1.7520  -34.1970 C.3   317  PRO317      0.1402
     78  C         14.6200    1.0930  -34.1800 C.2   317  PRO317      0.2269
     79  O         14.4590   -0.0440  -34.6500 O.2   317  PRO317     -0.2865
     80  CB        16.2040    2.5720  -35.4780 C.3   317  PRO317      0.0296
     81  CG        16.8200    1.6030  -36.4270 C.3   317  PRO317      0.0237
     82  CD        17.6770    0.6790  -35.5930 C.3   317  PRO317      0.0939
@<TRIPOS>BOND
     1    21    20    1
     2    81    82    1
     3    81    80    1
     4    82    76    1
     5    80    77    1
     6    20    19   ar
     7    20    18   ar
     8    19    17   ar
     9    18    16   ar
    10    79    78    2
    11    76    77    1
    12    76    74   am
    13    77    78    1
    14    17    15   ar
    15    16    15   ar
    16    73    74    1
    17    73    72    1
    18    74    75    2
    19     9     7   ar
    20     1     2    1
    21    15    14    1
    22     8     7   ar
    23     7     6    1
    24     2     3    1
    25     2     5    1
    26    71    70    2
    27    72    70   am
    28    10     3   am
    29    10    11    1
    30     3     4    2
    31    52    50    1
    32    70    69    1
    33     6     5    1
    34    14    11    1
    35    40    39    2
    36    11    12    1
    37    50    49    1
    38    44    42   am
    39    41    42    1
    40    41    38    1
    41    69    68    1
    42    39    38    1
    43    42    43    2
    44    49    51    1
    45    49    46    1
    46    12    13    2
    47    38    37    1
    48    45    46    1
    49    46    47    1
    50    47    48    2
    51    65    66    2
    52    65    64    1
    53    59    61   ar
    54    59    58   ar
    55    67    64    1
    56    29    27   am
    57    26    27    1
    58    26    23    1
    59    64    63    1
    60    61    62   ar
    61    27    28    2
    62    22    23    1
    63    23    24    1
    64    57    58    1
    65    57    54    1
    66    58    60   ar
    67    54    53    1
    68    54    55    1
    69    62    60   ar
    70    24    25    2
    71    55    56    2
    72    35    34    1
    73    30    31    1
    74    31    34    1
    75    31    32    1
    76    34    36    1
    77    32    33    2
