@<TRIPOS>MOLECULE
tmp/6f5kA09.pdb
 79 75 0 0 0
SMALL
GASTEIGER

@<TRIPOS>ATOM
      1  N         21.9190   19.4420  -13.7270 N.3    67  THR67      -0.1218
      2  CA        20.6130   19.5300  -13.0810 C.3    67  THR67       0.1862
      3  C         20.7630   19.9660  -11.6270 C.2    67  THR67       0.2287
      4  O         21.6110   19.4430  -10.8950 O.2    67  THR67      -0.2866
      5  CB        19.8810   18.1880  -13.1590 C.3    67  THR67       0.1770
      6  OG1       19.6290   17.8840  -14.5370 O.3    67  THR67      -0.2211
      7  CG2       18.5550   18.2170  -12.3870 C.3    67  THR67       0.0375
      8  N         19.5430   19.4360   -8.3190 N.3    69  PHE69      -0.1241
      9  CA        18.7900   18.4770   -7.5240 C.3    69  PHE69       0.1605
     10  C         18.5930   19.0020   -6.1030 C.2    69  PHE69       0.2264
     11  O         19.5310   19.5200   -5.4880 O.2    69  PHE69      -0.2867
     12  CB        19.5040   17.1220   -7.4340 C.3    69  PHE69       0.0534
     13  CG        19.5150   16.3150   -8.7110 C.ar   69  PHE69      -0.0203
     14  CD1       18.4460   15.4950   -9.0380 C.ar   69  PHE69      -0.0042
     15  CD2       20.6180   16.3230   -9.5490 C.ar   69  PHE69      -0.0042
     16  CE1       18.4650   14.7300  -10.1920 C.ar   69  PHE69      -0.0003
     17  CE2       20.6370   15.5530  -10.6970 C.ar   69  PHE69      -0.0003
     18  CZ        19.5600   14.7570  -11.0140 C.ar   69  PHE69      -0.0000
     19  N         12.8510    8.3150  -14.2560 N.3   165  LEU165     -0.1231
     20  CA        13.8190    8.3680  -15.3440 C.3   165  LEU165      0.1693
     21  C         14.5590    9.6940  -15.3970 C.2   165  LEU165      0.2593
     22  O         15.5670    9.8010  -16.1040 O.2   165  LEU165     -0.2718
     23  CB        13.1190    8.1320  -16.6780 C.3   165  LEU165      0.0284
     24  CG        12.4340    6.7770  -16.8450 C.3   165  LEU165      0.0019
     25  CD1       11.5510    6.8150  -18.0830 C.3   165  LEU165      0.0001
     26  CD2       13.4470    5.6450  -16.9430 C.3   165  LEU165      0.0001
     27  N         14.0620   10.7030  -14.7030 N.am  166  GLY166     -0.1942
     28  CA        14.7410   11.9710  -14.6260 C.3   166  GLY166      0.2014
     29  C         14.2580   12.9500  -15.6720 C.2   166  GLY166      0.2639
     30  O         13.2790   12.7360  -16.3940 O.2   166  GLY166     -0.2714
     31  N         14.9860   14.0620  -15.7480 N.am  167  VAL167     -0.1963
     32  CA        14.5770   15.1510  -16.6160 C.3   167  VAL167      0.1727
     33  C         14.7920   14.7600  -18.0740 C.2   167  VAL167      0.2616
     34  O         15.7500   14.0620  -18.4260 O.2   167  VAL167     -0.2715
     35  CB        15.3490   16.4400  -16.2720 C.3   167  VAL167      0.0290
     36  CG1       15.0120   16.8620  -14.8550 C.3   167  VAL167      0.0023
     37  CG2       16.8370   16.2410  -16.4360 C.3   167  VAL167      0.0023
     38  N         13.8980   15.2390  -18.9360 N.am  168  PHE168     -0.1974
     39  CA        13.9620   14.9740  -20.3750 C.3   168  PHE168      0.1639
     40  C         13.6360   16.2750  -21.0870 C.2   168  PHE168      0.2290
     41  O         12.5200   16.4760  -21.5850 O.2   168  PHE168     -0.2864
     42  CB        12.9980   13.8580  -20.7730 C.3   168  PHE168      0.0560
     43  CG        13.3310   13.1820  -22.0780 C.ar  168  PHE168     -0.0200
     44  CD1       14.5980   12.6580  -22.3140 C.ar  168  PHE168     -0.0042
     45  CD2       12.3540   13.0300  -23.0490 C.ar  168  PHE168     -0.0042
     46  CE1       14.8850   12.0060  -23.5030 C.ar  168  PHE168     -0.0003
     47  CE2       12.6320   12.3940  -24.2390 C.ar  168  PHE168     -0.0003
     48  CZ        13.9010   11.8750  -24.4670 C.ar  168  PHE168     -0.0000
     49  N         17.1200   15.7760  -24.7160 N.3   199  ASN199     -0.1240
     50  CA        18.1980   15.6570  -23.7350 C.3   199  ASN199      0.1653
     51  C         19.5520   15.9310  -24.3840 C.2   199  ASN199      0.2266
     52  O         20.5380   15.2300  -24.1450 O.2   199  ASN199     -0.2867
     53  CB        18.1920   14.2770  -23.0900 C.3   199  ASN199      0.1155
     54  CG        18.5190   14.3240  -21.6210 C.2   199  ASN199      0.2627
     55  OD1       18.7200   15.3970  -21.0460 O.2   199  ASN199     -0.2716
     56  ND2       18.5590   13.1520  -20.9940 N.am  199  ASN199     -0.0877
     57  N         18.2400    7.9410  -25.9720 N.3   214  ASN214     -0.1225
     58  CA        17.9400    6.5240  -25.7730 C.3   214  ASN214      0.1785
     59  C         17.5530    6.3430  -24.3120 C.2   214  ASN214      0.2597
     60  O         18.4100    6.3680  -23.4250 O.2   214  ASN214     -0.2718
     61  CB        19.1440    5.6830  -26.1680 C.3   214  ASN214      0.1169
     62  CG        18.9060    4.2080  -26.0350 C.2   214  ASN214      0.2627
     63  OD1       17.8280    3.7560  -25.6460 O.2   214  ASN214     -0.2716
     64  ND2       19.9250    3.4380  -26.3760 N.am  214  ASN214     -0.0877
     65  N         16.2560    6.1860  -24.0740 N.am  215  VAL215     -0.1980
     66  CA        15.6920    6.0840  -22.7350 C.3   215  VAL215      0.1595
     67  C         15.3030    4.6320  -22.5060 C.2   215  VAL215      0.2287
     68  O         14.5680    4.0500  -23.3120 O.2   215  VAL215     -0.2864
     69  CB        14.4770    7.0140  -22.5720 C.3   215  VAL215      0.0276
     70  CG1       13.9500    6.9300  -21.1610 C.3   215  VAL215      0.0022
     71  CG2       14.8400    8.4460  -22.9380 C.3   215  VAL215      0.0022
     72  N          8.6580   10.3360  -16.1000 N.3   225  LEU225     -0.1245
     73  CA         9.4370   11.0600  -17.0950 C.3   225  LEU225      0.1561
     74  C          9.1270   12.5410  -16.9390 C.2   225  LEU225      0.2260
     75  O          7.9550   12.9330  -16.9320 O.2   225  LEU225     -0.2867
     76  CB         9.1000   10.5800  -18.5040 C.3   225  LEU225      0.0270
     77  CG         9.8570   11.2250  -19.6670 C.3   225  LEU225      0.0019
     78  CD1       11.3100   10.7630  -19.6840 C.3   225  LEU225      0.0001
     79  CD2        9.1360   10.9120  -20.9820 C.3   225  LEU225      0.0001
@<TRIPOS>BOND
     1    64    62   am
     2    61    62    1
     3    61    58    1
     4    62    63    2
     5    57    58    1
     6    58    59    1
     7    49    50    1
     8    48    47   ar
     9    48    46   ar
    10    51    52    2
    11    51    50    1
    12    59    65   am
    13    59    60    2
    14    47    45   ar
    15    65    66    1
    16    50    53    1
    17    46    44   ar
    18    68    67    2
    19    53    54    1
    20    45    43   ar
    21    71    69    1
    22    66    69    1
    23    66    67    1
    24    69    70    1
    25    44    43   ar
    26    43    42    1
    27    54    55    2
    28    54    56   am
    29    41    40    2
    30    40    39    1
    31    79    77    1
    32    42    39    1
    33    39    38    1
    34    78    77    1
    35    77    76    1
    36    38    33   am
    37    76    73    1
    38    34    33    2
    39    25    24    1
    40    33    32    1
    41    73    74    1
    42    73    72    1
    43    26    24    1
    44    74    75    2
    45    24    23    1
    46    23    20    1
    47    32    35    1
    48    32    31    1
    49    37    35    1
    50    30    29    2
    51    35    36    1
    52    22    21    2
    53    31    29   am
    54    29    28    1
    55    21    20    1
    56    21    27   am
    57    20    19    1
    58    27    28    1
    59     6     5    1
    60     1     2    1
    61     5     2    1
    62     5     7    1
    63     2     3    1
    64     3     4    2
    65    18    17   ar
    66    18    16   ar
    67    17    15   ar
    68    16    14   ar
    69    15    13   ar
    70    14    13   ar
    71    13    12    1
    72     8     9    1
    73     9    12    1
    74     9    10    1
    75    10    11    2
