@<TRIPOS>MOLECULE
tmp/6f5lA07.pdb
 231 223 0 0 0
SMALL
GASTEIGER

@<TRIPOS>ATOM
      1  N         21.6490   50.2680   35.8510 N.3   155  PHE155     -0.1227
      2  CA        20.5380   49.3400   35.7850 C.3   155  PHE155      0.1736
      3  C         20.1910   48.8920   34.3740 C.2   155  PHE155      0.2595
      4  O         20.1600   49.6980   33.4170 O.2   155  PHE155     -0.2718
      5  CB        19.3150   50.0750   36.4060 C.3   155  PHE155      0.0547
      6  CG        18.0120   49.3110   36.2860 C.ar  155  PHE155     -0.0202
      7  CD1       17.8530   48.0710   36.9110 C.ar  155  PHE155     -0.0042
      8  CD2       16.9030   49.8950   35.6310 C.ar  155  PHE155     -0.0042
      9  CE1       16.6330   47.3600   36.8340 C.ar  155  PHE155     -0.0003
     10  CE2       15.6870   49.1750   35.5630 C.ar  155  PHE155     -0.0003
     11  CZ        15.5710   47.9010   36.1290 C.ar  155  PHE155     -0.0000
     12  N         19.9290   47.5890   34.2310 N.am  156  ARG156     -0.1980
     13  CA        19.7630   47.0080   32.8740 C.3   156  ARG156      0.1597
     14  C         18.5480   47.5820   32.1380 C.2   156  ARG156      0.2287
     15  O         18.5390   47.6420   30.9320 O.2   156  ARG156     -0.2864
     16  CB        19.6820   45.4800   32.9770 C.3   156  ARG156      0.0334
     17  CG        18.3990   44.9700   33.6420 C.3   156  ARG156      0.0492
     18  CD        18.3990   43.4220   33.8620 C.3   156  ARG156      0.2205
     19  NE        19.1960   43.0240   35.0760 N.pl3 156  ARG156     -0.0865
     20  CZ        18.7980   43.2240   36.3390 C.cat 156  ARG156      0.5346
     21  NH1       17.6430   43.8620   36.6130 N.pl3 156  ARG156      0.1354
     22  NH2       19.5660   42.8040   37.3660 N.pl3 156  ARG156      0.1354
     23  N         16.9840   39.2490   35.4880 N.3   202  GLY202     -0.1210
     24  CA        16.5500   40.5690   36.0360 C.3   202  GLY202      0.1956
     25  C         15.5630   41.2510   35.1150 C.2   202  GLY202      0.2611
     26  O         15.5750   41.0690   33.8910 O.2   202  GLY202     -0.2717
     27  N         14.6630   42.0270   35.7280 N.am  203  ASN203     -0.1974
     28  CA        13.6660   42.7030   34.8880 C.3   203  ASN203      0.1688
     29  C         14.3140   43.8890   34.1500 C.2   203  ASN203      0.2292
     30  O         15.3560   44.4250   34.5550 O.2   203  ASN203     -0.2864
     31  CB        12.4570   43.1600   35.7540 C.3   203  ASN203      0.1181
     32  CG        12.6900   44.5130   36.4390 C.2   203  ASN203      0.2629
     33  OD1       12.6680   45.5870   35.7950 O.2   203  ASN203     -0.2716
     34  ND2       12.9070   44.4780   37.7630 N.am  203  ASN203     -0.0877
     35  N         20.4360   37.4780   47.7840 N.3   333  ASP333     -0.1239
     36  CA        19.3430   38.4090   47.3980 C.3   333  ASP333      0.1674
     37  C         18.0080   37.6050   47.2520 C.2   333  ASP333      0.2266
     38  O         17.8400   36.8770   46.2860 O.2   333  ASP333     -0.2867
     39  CB        19.7940   39.0470   46.0630 C.3   333  ASP333      0.1410
     40  CG        18.8450   40.0520   45.5660 C.2   333  ASP333      0.3668
     41  OD1       17.8830   40.2630   46.3430 O.co2 333  ASP333     -0.2456
     42  OD2       19.0080   40.4900   44.3820 O.co2 333  ASP333     -0.2456
     43  N          9.5780   42.0580   44.4410 N.3   370  GLU370     -0.1231
     44  CA        10.5550   43.1470   44.3420 C.3   370  GLU370      0.1699
     45  C         11.2870   42.9380   43.0280 C.2   370  GLU370      0.2592
     46  O         11.6220   43.9240   42.3070 O.2   370  GLU370     -0.2718
     47  CB        11.5250   43.1630   45.5580 C.3   370  GLU370      0.0402
     48  CG        12.4690   44.3720   45.4970 C.3   370  GLU370      0.1161
     49  CD        13.7690   44.2010   44.7160 C.2   370  GLU370      0.3649
     50  OE1       14.0710   43.1170   44.1580 O.co2 370  GLU370     -0.2457
     51  OE2       14.5080   45.2310   44.6040 O.co2 370  GLU370     -0.2457
     52  N         11.5860   41.6710   42.6960 N.am  371  GLU371     -0.1979
     53  CA        12.4270   41.4360   41.5130 C.3   371  GLU371      0.1602
     54  C         11.7380   41.8220   40.2210 C.2   371  GLU371      0.2287
     55  O         12.4120   41.9560   39.1920 O.2   371  GLU371     -0.2864
     56  CB        12.8710   39.9560   41.4240 C.3   371  GLU371      0.0415
     57  CG        13.7910   39.5040   42.6020 C.3   371  GLU371      0.1163
     58  CD        15.1770   40.1510   42.6490 C.2   371  GLU371      0.3649
     59  OE1       15.5180   41.1100   41.9200 O.co2 371  GLU371     -0.2457
     60  OE2       15.9590   39.7540   43.5100 O.co2 371  GLU371     -0.2457
     61  N         10.0490   44.5980   39.8230 N.3   373  GLY373     -0.1210
     62  CA         9.8540   46.0600   39.7550 C.3   373  GLY373      0.1956
     63  C          9.3120   46.7170   40.9930 C.2   373  GLY373      0.2611
     64  O          8.5800   47.7110   40.8900 O.2   373  GLY373     -0.2717
     65  N          9.6810   46.1730   42.1540 N.am  374  LEU374     -0.1979
     66  CA         9.2940   46.7730   43.4740 C.3   374  LEU374      0.1596
     67  C          7.7490   46.7300   43.5560 C.2   374  LEU374      0.2287
     68  O          7.1480   47.6110   44.1240 O.2   374  LEU374     -0.2864
     69  CB         9.7930   48.2430   43.6080 C.3   374  LEU374      0.0297
     70  CG        11.2120   48.5210   43.0320 C.3   374  LEU374      0.0022
     71  CD1       11.6160   49.9930   43.2660 C.3   374  LEU374      0.0001
     72  CD2       12.2590   47.6080   43.6790 C.3   374  LEU374      0.0001
     73  N         16.9930   44.4280   52.2500 N.3   399  ASP399     -0.1225
     74  CA        17.3310   43.4540   51.2370 C.3   399  ASP399      0.1805
     75  C         18.7030   42.9020   51.6420 C.2   399  ASP399      0.2598
     76  O         19.0300   42.9400   52.8340 O.2   399  ASP399     -0.2718
     77  CB        17.2740   44.0560   49.8330 C.3   399  ASP399      0.1424
     78  CG        17.2230   43.0280   48.7300 C.2   399  ASP399      0.3668
     79  OD1       17.2860   41.8240   49.0360 O.co2 399  ASP399     -0.2456
     80  OD2       17.1780   43.4390   47.5400 O.co2 399  ASP399     -0.2456
     81  N         19.4300   42.3430   50.6970 N.am  400  SER400     -0.1952
     82  CA        20.7060   41.6140   50.9740 C.3   400  SER400      0.1924
     83  C         21.5320   42.2540   52.0910 C.2   400  SER400      0.2314
     84  O         21.7940   43.4800   52.0740 O.2   400  SER400     -0.2863
     85  CB        21.5050   41.5980   49.7030 C.3   400  SER400      0.2116
     86  OG        20.7040   41.0880   48.6710 O.3   400  SER400     -0.2180
     87  N         27.1080   42.1310   50.4350 N.3   403  GLU403     -0.1245
     88  CA        27.4550   42.0510   49.0060 C.3   403  GLU403      0.1567
     89  C         28.9730   41.9650   48.9480 C.2   403  GLU403      0.2260
     90  O         29.5670   42.0520   47.8950 O.2   403  GLU403     -0.2867
     91  CB        26.8780   43.2490   48.2110 C.3   403  GLU403      0.0388
     92  CG        27.3800   44.6250   48.6860 C.3   403  GLU403      0.1160
     93  CD        26.6880   45.8400   48.0150 C.2   403  GLU403      0.3649
     94  OE1       25.7230   45.6900   47.2180 O.co2 403  GLU403     -0.2457
     95  OE2       27.1190   46.9980   48.3140 O.co2 403  GLU403     -0.2457
     96  N         28.2120   49.5420   54.5380 N.3   409  ARG409     -0.1245
     97  CA        27.7090   50.5210   53.5630 C.3   409  ARG409      0.1563
     98  C         26.3980   51.0510   54.1190 C.2   409  ARG409      0.2260
     99  O         25.5740   50.2600   54.5610 O.2   409  ARG409     -0.2867
    100  CB        27.4670   49.8470   52.2070 C.3   409  ARG409      0.0307
    101  CG        26.5520   50.6670   51.3020 C.3   409  ARG409      0.0489
    102  CD        26.3120   49.9460   50.0020 C.3   409  ARG409      0.2205
    103  NE        25.2740   50.6590   49.2140 N.pl3 409  ARG409     -0.0865
    104  CZ        24.8080   50.2150   48.0470 C.cat 409  ARG409      0.5346
    105  NH1       25.2770   49.0680   47.5350 N.pl3 409  ARG409      0.1354
    106  NH2       23.8680   50.9180   47.3830 N.pl3 409  ARG409      0.1354
    107  N         17.8700   53.9530   43.8340 N.3   463  SER463     -0.1202
    108  CA        16.6370   53.1640   43.7500 C.3   463  SER463      0.2020
    109  C         17.0240   51.7410   43.3690 C.2   463  SER463      0.2619
    110  O         18.1870   51.3380   43.6300 O.2   463  SER463     -0.2717
    111  CB        15.6820   53.7860   42.7650 C.3   463  SER463      0.2103
    112  OG        14.5210   52.9940   42.7370 O.3   463  SER463     -0.2182
    113  N         16.0960   50.9520   42.8170 N.am  464  GLY464     -0.1942
    114  CA        16.3830   49.5240   42.6420 C.3   464  GLY464      0.2014
    115  C         16.1310   48.7600   43.9180 C.2   464  GLY464      0.2638
    116  O         16.6110   47.6300   44.0580 O.2   464  GLY464     -0.2714
    117  N         15.3190   49.3210   44.8360 N.am  465  ASN465     -0.1972
    118  CA        14.8830   48.5440   45.9860 C.3   465  ASN465      0.1688
    119  C         13.6540   49.1250   46.6050 C.2   465  ASN465      0.2292
    120  O         13.2070   50.1990   46.1700 O.2   465  ASN465     -0.2864
    121  CB        16.0120   48.3210   47.0280 C.3   465  ASN465      0.1181
    122  CG        16.0360   46.8770   47.4760 C.2   465  ASN465      0.2629
    123  OD1       15.0770   46.3990   48.1160 O.2   465  ASN465     -0.2716
    124  ND2       17.0400   46.1180   47.0000 N.am  465  ASN465     -0.0877
    125  N         19.1560   52.4430   54.4020 N.3   480  ARG480     -0.1245
    126  CA        19.4850   51.0250   54.1610 C.3   480  ARG480      0.1563
    127  C         20.9510   50.8540   54.6050 C.2   480  ARG480      0.2260
    128  O         21.6900   51.8310   54.6360 O.2   480  ARG480     -0.2867
    129  CB        19.3390   50.6620   52.6880 C.3   480  ARG480      0.0307
    130  CG        20.3590   51.3970   51.7770 C.3   480  ARG480      0.0489
    131  CD        20.0820   51.2170   50.2670 C.3   480  ARG480      0.2205
    132  NE        19.9470   49.7970   49.8400 N.pl3 480  ARG480     -0.0865
    133  CZ        19.9070   49.3890   48.5750 C.cat 480  ARG480      0.5346
    134  NH1       19.6830   48.0910   48.3130 N.pl3 480  ARG480      0.1354
    135  NH2       20.0380   50.2660   47.5740 N.pl3 480  ARG480      0.1354
    136  N         24.2430   47.6280   54.6760 N.3   482  ARG482     -0.1245
    137  CA        24.6510   46.2320   54.4110 C.3   482  ARG482      0.1563
    138  C         26.1500   46.1850   54.5080 C.2   482  ARG482      0.2260
    139  O         26.7980   47.2160   54.4890 O.2   482  ARG482     -0.2867
    140  CB        24.2200   45.6890   53.0040 C.3   482  ARG482      0.0307
    141  CG        24.6080   46.5660   51.8220 C.3   482  ARG482      0.0489
    142  CD        24.3820   45.8330   50.5120 C.3   482  ARG482      0.2205
    143  NE        22.9440   45.5520   50.3180 N.pl3 482  ARG482     -0.0865
    144  CZ        22.3210   45.4690   49.1500 C.cat 482  ARG482      0.5346
    145  NH1       22.9630   45.7160   48.0040 N.pl3 482  ARG482      0.1354
    146  NH2       21.0110   45.1650   49.1460 N.pl3 482  ARG482      0.1354
    147  N         29.8090   49.4450   42.6330 N.3   488  LYS488     -0.1231
    148  CA        28.6310   49.0540   43.4580 C.3   488  LYS488      0.1693
    149  C         27.3780   48.7060   42.6530 C.2   488  LYS488      0.2592
    150  O         26.5940   47.8340   43.0570 O.2   488  LYS488     -0.2718
    151  CB        28.2950   50.1520   44.4970 C.3   488  LYS488      0.0285
    152  CG        27.8430   51.4820   43.9110 C.3   488  LYS488      0.0035
    153  CD        27.9540   52.6580   44.8870 C.3   488  LYS488      0.0206
    154  CE        26.7150   52.7700   45.7530 C.3   488  LYS488      0.1093
    155  NZ        26.6310   54.0940   46.4110 N.3   488  LYS488     -0.1314
    156  N         27.2210   49.3310   41.4890 N.am  489  PHE489     -0.1962
    157  CA        25.9710   49.1100   40.7290 C.3   489  PHE489      0.1771
    158  C         25.9500   47.8570   39.8800 C.2   489  PHE489      0.2620
    159  O         24.9170   47.4940   39.3380 O.2   489  PHE489     -0.2715
    160  CB        25.6900   50.3050   39.8380 C.3   489  PHE489      0.0574
    161  CG        25.5940   51.6020   40.5970 C.ar  489  PHE489     -0.0200
    162  CD1       24.7570   51.7090   41.7060 C.ar  489  PHE489     -0.0042
    163  CD2       26.3590   52.7300   40.1950 C.ar  489  PHE489     -0.0042
    164  CE1       24.6220   52.9350   42.3820 C.ar  489  PHE489     -0.0003
    165  CE2       26.2180   53.9400   40.8710 C.ar  489  PHE489     -0.0003
    166  CZ        25.3710   54.0210   41.9810 C.ar  489  PHE489     -0.0000
    167  N         27.0730   47.1980   39.7380 N.am  490  SER490     -0.1936
    168  CA        27.0960   46.0050   38.8690 C.3   490  SER490      0.2055
    169  C         26.5960   44.7690   39.5610 C.2   490  SER490      0.2644
    170  O         26.1640   43.8430   38.8710 O.2   490  SER490     -0.2714
    171  CB        28.5300   45.7510   38.3530 C.3   490  SER490      0.2130
    172  OG        29.0220   46.9270   37.7220 O.3   490  SER490     -0.2179
    173  N         26.5860   44.7620   40.9130 N.am  491  GLY491     -0.1939
    174  CA        26.2420   43.5530   41.6320 C.3   491  GLY491      0.2014
    175  C         27.5090   42.7240   41.8930 C.2   491  GLY491      0.2638
    176  O         28.5460   42.9080   41.2360 O.2   491  GLY491     -0.2714
    177  N         27.4230   41.8140   42.8340 N.am  492  TYR492     -0.1973
    178  CA        28.5250   40.8650   43.1480 C.3   492  TYR492      0.1639
    179  C         28.5220   39.7660   42.0480 C.2   492  TYR492      0.2290
    180  O         27.5700   39.6700   41.2410 O.2   492  TYR492     -0.2864
    181  CB        28.3100   40.3030   44.5710 C.3   492  TYR492      0.0560
    182  CG        26.8590   39.8880   44.8000 C.ar  492  TYR492     -0.0198
    183  CD1       25.9370   40.8450   45.2300 C.ar  492  TYR492     -0.0009
    184  CD2       26.4110   38.5800   44.5480 C.ar  492  TYR492     -0.0009
    185  CE1       24.6250   40.4950   45.3870 C.ar  492  TYR492      0.0417
    186  CE2       25.0480   38.2200   44.7330 C.ar  492  TYR492      0.0417
    187  CZ        24.1910   39.2090   45.1490 C.ar  492  TYR492      0.1957
    188  OH        22.8390   38.9600   45.2870 O.3   492  TYR492     -0.2866
    189  N         25.3720   37.4960   41.4630 N.3   495  TYR495     -0.1227
    190  CA        24.0710   38.2050   41.5070 C.3   495  TYR495      0.1736
    191  C         23.0420   37.6780   40.5080 C.2   495  TYR495      0.2595
    192  O         23.2790   37.6640   39.3040 O.2   495  TYR495     -0.2718
    193  CB        24.4210   39.6820   41.3160 C.3   495  TYR495      0.0548
    194  CG        23.2560   40.6350   41.1230 C.ar  495  TYR495     -0.0200
    195  CD1       22.3650   40.9090   42.1620 C.ar  495  TYR495     -0.0009
    196  CD2       23.1020   41.2760   39.8770 C.ar  495  TYR495     -0.0009
    197  CE1       21.2800   41.8110   41.9510 C.ar  495  TYR495      0.0417
    198  CE2       22.1120   42.2210   39.6940 C.ar  495  TYR495      0.0417
    199  CZ        21.1990   42.4530   40.6960 C.ar  495  TYR495      0.1957
    200  OH        20.1940   43.3890   40.3890 O.3   495  TYR495     -0.2866
    201  N         21.8730   37.2760   41.0220 N.am  496  HIS496     -0.1975
    202  CA        20.7210   36.8400   40.2160 C.3   496  HIS496      0.1656
    203  C         20.9410   35.5740   39.3790 C.2   496  HIS496      0.2291
    204  O         20.2170   35.3100   38.4190 O.2   496  HIS496     -0.2864
    205  CB        20.2490   37.9920   39.3400 C.3   496  HIS496      0.0771
    206  CG        19.5110   39.0670   40.1070 C.ar  496  HIS496      0.0820
    207  ND1       18.8780   40.0990   39.4520 N.ar  496  HIS496     -0.2267
    208  CD2       19.2830   39.2560   41.4350 C.ar  496  HIS496      0.1154
    209  CE1       18.2900   40.8910   40.3340 C.ar  496  HIS496      0.1986
    210  NE2       18.5020   40.3860   41.5470 N.ar  496  HIS496     -0.2212
    211  N         18.8500   53.9360   37.1400 N.3   642  LYS642     -0.1231
    212  CA        17.9100   53.8420   38.2600 C.3   642  LYS642      0.1693
    213  C         18.5910   53.5710   39.6100 C.2   642  LYS642      0.2592
    214  O         18.0810   53.9620   40.6610 O.2   642  LYS642     -0.2718
    215  CB        16.8940   52.7200   37.9420 C.3   642  LYS642      0.0285
    216  CG        15.7640   52.6310   38.9630 C.3   642  LYS642      0.0035
    217  CD        14.8130   51.5230   38.5470 C.3   642  LYS642      0.0206
    218  CE        13.5660   51.6740   39.4320 C.3   642  LYS642      0.1093
    219  NZ        12.5940   50.5610   39.0750 N.3   642  LYS642     -0.1314
    220  N         19.7290   52.8550   39.6200 N.am  643  TYR643     -0.1976
    221  CA        20.3120   52.5320   40.9310 C.3   643  TYR643      0.1639
    222  C         20.9050   53.7200   41.6240 C.2   643  TYR643      0.2290
    223  O         21.0240   53.6950   42.8410 O.2   643  TYR643     -0.2864
    224  CB        21.4610   51.5240   40.7530 C.3   643  TYR643      0.0560
    225  CG        21.0540   50.1340   40.2990 C.ar  643  TYR643     -0.0198
    226  CD1       19.9140   49.4820   40.8340 C.ar  643  TYR643     -0.0009
    227  CD2       21.8210   49.4520   39.3470 C.ar  643  TYR643     -0.0009
    228  CE1       19.5800   48.1820   40.4090 C.ar  643  TYR643      0.0417
    229  CE2       21.5090   48.1320   38.9430 C.ar  643  TYR643      0.0417
    230  CZ        20.3930   47.5020   39.5030 C.ar  643  TYR643      0.1957
    231  OH        20.1020   46.2120   39.0270 O.3   643  TYR643     -0.2866
@<TRIPOS>BOND
     1    15    14    2
     2    14    13    1
     3    13    16    1
     4    13    12    1
     5    16    17    1
     6     4     3    2
     7    17    18    1
     8    18    19    1
     9    26    25    2
    10    29    30    2
    11    29    28    1
    12    12     3   am
    13     3     2    1
    14    28    27    1
    15    28    31    1
    16    19    20    2
    17    25    27   am
    18    25    24    1
    19    23    24    1
    20    10     8   ar
    21    10    11   ar
    22     8     6   ar
    23    31    32    1
    24     2     1    1
    25     2     5    1
    26    33    32    2
    27    11     9   ar
    28     6     5    1
    29     6     7   ar
    30    20    21    1
    31    20    22    1
    32    32    34   am
    33     9     7   ar
    34   211   212    1
    35   172   171    1
    36   215   212    1
    37   215   216    1
    38   212   213    1
    39   171   168    1
    40   204   203    2
    41   217   216    1
    42   217   218    1
    43   168   169    1
    44   168   167    1
    45   170   169    2
    46   229   227   ar
    47   229   230   ar
    48   231   230    1
    49   219   218    1
    50    55    54    2
    51   192   191    2
    52   159   158    2
    53   205   206    1
    54   205   202    1
    55   227   225   ar
    56   203   202    1
    57   207   206   ar
    58   207   209   ar
    59   230   228   ar
    60   169   173   am
    61   213   220   am
    62   213   214    2
    63   220   221    1
    64   198   196   ar
    65   198   199   ar
    66   167   158   am
    67    62    61    1
    68    62    63    1
    69   160   161    1
    70   160   157    1
    71   196   194   ar
    72   158   157    1
    73   206   208   ar
    74   163   161   ar
    75   163   165   ar
    76   202   201    1
    77    54    53    1
    78   225   224    1
    79   225   226   ar
    80   209   210   ar
    81   200   199    1
    82   228   226   ar
    83   191   201   am
    84   191   190    1
    85   161   162   ar
    86   199   197   ar
    87   157   156    1
    88   224   221    1
    89   165   166   ar
    90    64    63    2
    91   173   174    1
    92   221   222    1
    93    63    65   am
    94   194   193    1
    95   194   195   ar
    96   176   175    2
    97   180   179    2
    98   193   190    1
    99    56    53    1
   100    56    57    1
   101   208   210   ar
   102   189   190    1
   103   156   149   am
   104    53    52    1
   105   222   223    2
   106   174   175    1
   107   162   164   ar
   108   175   177   am
   109    59    58   ar
   110   197   195   ar
   111   166   164   ar
   112   179   178    1
   113    65    66    1
   114    46    45    2
   115    57    58    1
   116   147   148    1
   117   114   113    1
   118   114   115    1
   119    58    60   ar
   120   149   150    2
   121   149   148    1
   122    52    45   am
   123   112   111    1
   124   111   108    1
   125   113   109   am
   126   177   178    1
   127    45    44    1
   128    70    71    1
   129    70    69    1
   130    70    72    1
   131   178   181    1
   132   109   110    2
   133   109   108    1
   134   148   151    1
   135    66    67    1
   136    66    69    1
   137    67    68    2
   138   108   107    1
   139   152   151    1
   140   152   153    1
   141   115   116    2
   142   115   117   am
   143    50    49   ar
   144    44    43    1
   145    44    47    1
   146    42    40   ar
   147   184   186   ar
   148   184   182   ar
   149   181   182    1
   150    51    49   ar
   151    49    48    1
   152   186   187   ar
   153   182   183   ar
   154   117   118    1
   155   153   154    1
   156   187   188    1
   157   187   185   ar
   158   183   185   ar
   159    48    47    1
   160    40    39    1
   161    40    41   ar
   162   154   155    1
   163   118   119    1
   164   118   121    1
   165    39    36    1
   166   120   119    2
   167    38    37    2
   168   124   122   am
   169   121   122    1
   170    94    93   ar
   171    37    36    1
   172   106   104    1
   173    36    35    1
   174   122   123    2
   175   105   104    1
   176    80    78   ar
   177   135   133    1
   178    90    89    2
   179   145   144    1
   180    93    95   ar
   181    93    92    1
   182   104   103    2
   183    91    92    1
   184    91    88    1
   185   134   133    1
   186   133   132    2
   187    86    85    1
   188    78    79   ar
   189    78    77    1
   190    89    88    1
   191    88    87    1
   192   146   144    1
   193   144   143    2
   194   103   102    1
   195    85    82    1
   196    77    74    1
   197   132   131    1
   198   102   101    1
   199   131   130    1
   200   143   142    1
   201   142   141    1
   202    81    82    1
   203    81    75   am
   204    82    83    1
   205    74    75    1
   206    74    73    1
   207   101   100    1
   208    75    76    2
   209   130   129    1
   210   141   140    1
   211    84    83    2
   212   100    97    1
   213   129   126    1
   214   140   137    1
   215    97    98    1
   216    97    96    1
   217    98    99    2
   218   126   125    1
   219   126   127    1
   220   137   138    1
   221   137   136    1
   222   139   138    2
   223   127   128    2
