@<TRIPOS>MOLECULE
tmp/6f5mA05.pdb
 131 131 0 0 0
SMALL
GASTEIGER

@<TRIPOS>ATOM
      1  N         45.6000   18.0450   33.0940 N.3    20  LEU20      -0.1231
      2  CA        45.9220   17.6440   34.4620 C.3    20  LEU20       0.1693
      3  C         46.4340   16.2090   34.4040 C.2    20  LEU20       0.2592
      4  O         45.6450   15.2690   34.2660 O.2    20  LEU20      -0.2718
      5  CB        44.7050   17.7610   35.3770 C.3    20  LEU20       0.0284
      6  CG        44.2520   19.1580   35.7990 C.3    20  LEU20       0.0019
      7  CD1       42.9170   19.0770   36.5180 C.3    20  LEU20       0.0001
      8  CD2       45.3000   19.8100   36.6880 C.3    20  LEU20       0.0001
      9  N         47.7530   16.0510   34.5110 N.am   21  ARG21      -0.1966
     10  CA        48.4110   14.7480   34.4290 C.3    21  ARG21       0.1729
     11  C         48.0030   14.0130   33.1530 C.2    21  ARG21       0.2617
     12  O         47.5290   12.8760   33.1810 O.2    21  ARG21      -0.2715
     13  CB        48.1190   13.9040   35.6710 C.3    21  ARG21       0.0348
     14  CG        48.4850   14.5850   36.9790 C.3    21  ARG21       0.0492
     15  CD        48.7970   13.5720   38.0640 C.3    21  ARG21       0.2205
     16  NE        50.0000   12.8070   37.7530 N.pl3  21  ARG21      -0.0865
     17  CZ        50.3510   11.6820   38.3660 C.cat  21  ARG21       0.5346
     18  NH1       49.5910   11.1830   39.3310 N.pl3  21  ARG21       0.1354
     19  NH2       51.4650   11.0570   38.0140 N.pl3  21  ARG21       0.1354
     20  N         48.1930   14.6860   32.0170 N.am   22  GLY22      -0.1940
     21  CA        47.9140   14.1090   30.7200 C.3    22  GLY22       0.2014
     22  C         46.4700   14.1650   30.2710 C.2    22  GLY22       0.2639
     23  O         46.1910   13.8520   29.1060 O.2    22  GLY22      -0.2714
     24  N         45.5420   14.5530   31.1440 N.am   23  GLY23      -0.1939
     25  CA        44.1340   14.5610   30.8200 C.3    23  GLY23       0.2014
     26  C         43.6380   15.9510   30.4800 C.2    23  GLY23       0.2639
     27  O         43.7100   16.8670   31.3010 O.2    23  GLY23      -0.2714
     28  N         43.1170   16.0960   29.2660 N.am   24  HIS24      -0.1959
     29  CA        42.5870   17.3750   28.8180 C.3    24  HIS24       0.1787
     30  C         41.3390   17.7440   29.6120 C.2    24  HIS24       0.2620
     31  O         40.5180   16.8850   29.9420 O.2    24  HIS24      -0.2715
     32  CB        42.2680   17.3080   27.3260 C.3    24  HIS24       0.0785
     33  CG        41.5920   18.5310   26.7960 C.ar   24  HIS24       0.0821
     34  ND1       42.2890   19.5800   26.2360 N.ar   24  HIS24      -0.2267
     35  CD2       40.2840   18.8730   26.7390 C.ar   24  HIS24       0.1154
     36  CE1       41.4380   20.5150   25.8540 C.ar   24  HIS24       0.1986
     37  NE2       40.2150   20.1130   26.1500 N.ar   24  HIS24      -0.2212
     38  N         41.1990   19.0350   29.9240 N.am   25  PHE25      -0.1974
     39  CA        39.9990   19.5260   30.5970 C.3    25  PHE25       0.1639
     40  C         39.5080   20.8790   30.1000 C.2    25  PHE25       0.2290
     41  O         38.3080   21.1500   30.2140 O.2    25  PHE25      -0.2864
     42  CB        40.2220   19.5990   32.1170 C.3    25  PHE25       0.0560
     43  CG        41.1680   20.6860   32.5510 C.ar   25  PHE25      -0.0200
     44  CD1       42.5340   20.4580   32.5930 C.ar   25  PHE25      -0.0042
     45  CD2       40.6900   21.9290   32.9360 C.ar   25  PHE25      -0.0042
     46  CE1       43.4050   21.4540   32.9980 C.ar   25  PHE25      -0.0003
     47  CE2       41.5570   22.9280   33.3390 C.ar   25  PHE25      -0.0003
     48  CZ        42.9150   22.6900   33.3710 C.ar   25  PHE25      -0.0000
     49  N         38.9890   20.6960   21.8840 N.3   127  TRP127     -0.1241
     50  CA        39.1430   19.2600   22.0920 C.3   127  TRP127      0.1605
     51  C         38.0930   18.6990   23.0460 C.2   127  TRP127      0.2264
     52  O         38.3620   17.7260   23.7590 O.2   127  TRP127     -0.2867
     53  CB        40.5420   18.9370   22.6190 C.3   127  TRP127      0.0550
     54  CG        41.6240   18.8990   21.5750 C.ar  127  TRP127      0.0003
     55  CD1       41.8060   17.9420   20.6200 C.ar  127  TRP127      0.0946
     56  CD2       42.6960   19.8380   21.4110 C.ar  127  TRP127      0.0152
     57  NE1       42.9120   18.2360   19.8590 N.ar  127  TRP127     -0.2442
     58  CE2       43.4760   19.3950   20.3240 C.ar  127  TRP127      0.0810
     59  CE3       43.0650   21.0140   22.0700 C.ar  127  TRP127      0.0012
     60  CZ2       44.6030   20.0860   19.8830 C.ar  127  TRP127      0.0191
     61  CZ3       44.1840   21.6980   21.6310 C.ar  127  TRP127      0.0001
     62  CH2       44.9390   21.2330   20.5470 C.ar  127  TRP127      0.0015
     63  N         34.0050   17.4610   24.3250 N.3   129  LEU129     -0.1245
     64  CA        33.1370   16.3280   24.0450 C.3   129  LEU129      0.1561
     65  C         32.4720   16.4840   22.6820 C.2   129  LEU129      0.2260
     66  O         32.2980   17.5930   22.1710 O.2   129  LEU129     -0.2867
     67  CB        32.0760   16.1870   25.1350 C.3   129  LEU129      0.0270
     68  CG        32.5900   16.0390   26.5680 C.3   129  LEU129      0.0019
     69  CD1       31.4390   15.7730   27.5240 C.3   129  LEU129      0.0001
     70  CD2       33.6290   14.9320   26.6550 C.3   129  LEU129      0.0001
     71  N         29.3680   15.1080   21.8640 N.3   131  GLY131     -0.1210
     72  CA        27.9250   15.0050   21.9310 C.3   131  GLY131      0.1956
     73  C         27.4830   13.7640   22.6810 C.2   131  GLY131      0.2612
     74  O         28.2900   12.9690   23.1620 O.2   131  GLY131     -0.2717
     75  N         26.1610   13.6180   22.7810 N.am  132  ARG132     -0.1965
     76  CA        25.5750   12.5080   23.5230 C.3   132  ARG132      0.1729
     77  C         26.0240   11.1780   22.9330 C.2   132  ARG132      0.2616
     78  O         25.7340   10.8760   21.7710 O.2   132  ARG132     -0.2715
     79  CB        24.0500   12.5950   23.5050 C.3   132  ARG132      0.0348
     80  CG        23.3900   11.6480   24.4960 C.3   132  ARG132      0.0492
     81  CD        21.9210   11.4170   24.1860 C.3   132  ARG132      0.2205
     82  NE        21.7530   10.6600   22.9490 N.pl3 132  ARG132     -0.0865
     83  CZ        20.6600    9.9710   22.6340 C.cat 132  ARG132      0.5346
     84  NH1       19.6300    9.9390   23.4680 N.pl3 132  ARG132      0.1354
     85  NH2       20.5990    9.3100   21.4860 N.pl3 132  ARG132      0.1354
     86  N         26.7330   10.3860   23.7400 N.am  133  ASN133     -0.1958
     87  CA        27.2330    9.0730   23.3320 C.3   133  ASN133      0.1819
     88  C         28.1230    9.1620   22.0950 C.2   133  ASN133      0.2621
     89  O         28.1980    8.2210   21.3020 O.2   133  ASN133     -0.2715
     90  CB        26.0830    8.0900   23.0940 C.3   133  ASN133      0.1195
     91  CG        25.2850    7.8100   24.3540 C.2   133  ASN133      0.2630
     92  OD1       25.7800    7.9840   25.4680 O.2   133  ASN133     -0.2716
     93  ND2       24.0420    7.3720   24.1840 N.am  133  ASN133     -0.0877
     94  N         28.8050   10.2930   21.9190 N.am  134  ARG134     -0.1963
     95  CA        29.7560   10.4630   20.8320 C.3   134  ARG134      0.1729
     96  C         31.2010   10.4530   21.3110 C.2   134  ARG134      0.2617
     97  O         32.1170   10.5060   20.4830 O.2   134  ARG134     -0.2715
     98  CB        29.4640   11.7620   20.0720 C.3   134  ARG134      0.0348
     99  CG        28.1410   11.7440   19.3230 C.3   134  ARG134      0.0492
    100  CD        28.1150   10.6640   18.2530 C.3   134  ARG134      0.2205
    101  NE        26.8360   10.6260   17.5480 N.pl3 134  ARG134     -0.0865
    102  CZ        26.4690    9.6610   16.7110 C.cat 134  ARG134      0.5346
    103  NH1       27.2840    8.6420   16.4670 N.pl3 134  ARG134      0.1354
    104  NH2       25.2850    9.7140   16.1160 N.pl3 134  ARG134      0.1354
    105  N         31.4280   10.3860   22.6210 N.am  135  GLY135     -0.1940
    106  CA        32.7700   10.3490   23.1640 C.3   135  GLY135      0.2014
    107  C         33.4170   11.7210   23.2250 C.2   135  GLY135      0.2638
    108  O         32.7560   12.7640   23.1910 O.2   135  GLY135     -0.2714
    109  N         34.7450   11.7080   23.3200 N.am  136  ILE136     -0.1977
    110  CA        35.5450   12.9250   23.3610 C.3   136  ILE136      0.1596
    111  C         36.4360   12.9610   22.1270 C.2   136  ILE136      0.2287
    112  O         36.7820   11.9220   21.5540 O.2   136  ILE136     -0.2864
    113  CB        36.3820   13.0210   24.6590 C.3   136  ILE136      0.0276
    114  CG1       36.9250   14.4390   24.8530 C.3   136  ILE136      0.0022
    115  CG2       37.5180   12.0060   24.6480 C.3   136  ILE136      0.0022
    116  CD1       37.7770   14.6030   26.0920 C.3   136  ILE136      0.0001
    117  N         31.4330   20.4990   26.9470 N.3   170  PHE170     -0.1227
    118  CA        32.4000   20.4110   28.0330 C.3   170  PHE170      0.1736
    119  C         33.7730   20.0330   27.4930 C.2   170  PHE170      0.2596
    120  O         33.9010   19.1730   26.6180 O.2   170  PHE170     -0.2718
    121  CB        31.9380   19.3920   29.0760 C.3   170  PHE170      0.0547
    122  CG        30.6940   19.8000   29.8120 C.ar  170  PHE170     -0.0202
    123  CD1       30.4570   21.1320   30.1130 C.ar  170  PHE170     -0.0042
    124  CD2       29.7620   18.8540   30.2050 C.ar  170  PHE170     -0.0042
    125  CE1       29.3140   21.5130   30.7910 C.ar  170  PHE170     -0.0003
    126  CE2       28.6160   19.2280   30.8830 C.ar  170  PHE170     -0.0003
    127  CZ        28.3930   20.5590   31.1760 C.ar  170  PHE170     -0.0000
    128  N         34.8040   20.6830   28.0260 N.am  171  GLY171     -0.1957
    129  CA        36.1470   20.5520   27.5170 C.3   171  GLY171      0.1869
    130  C         36.5130   21.5620   26.4530 C.2   171  GLY171      0.2309
    131  O         37.7040   21.7470   26.1760 O.2   171  GLY171     -0.2863
@<TRIPOS>BOND
     1   104   102    1
     2   103   102    1
     3   102   101    2
     4   101   100    1
     5   100    99    1
     6    99    98    1
     7    57    58   ar
     8    57    55   ar
     9    60    58   ar
    10    60    62   ar
    11    98    95    1
    12    58    56   ar
    13    97    96    2
    14    62    61   ar
    15    55    54   ar
    16    95    96    1
    17    95    94    1
    18    89    88    2
    19    96   105   am
    20    56    54   ar
    21    56    59   ar
    22    85    83    1
    23   112   111    2
    24    54    53    1
    25    61    59   ar
    26    78    77    2
    27    71    72    1
    28    49    50    1
    29    94    88   am
    30    72    73    1
    31    50    53    1
    32    50    51    1
    33    88    87    1
    34   111   110    1
    35    66    65    2
    36   105   106    1
    37    83    82    2
    38    83    84    1
    39    73    75   am
    40    73    74    2
    41    65    64    1
    42    75    76    1
    43    77    76    1
    44    77    86   am
    45    82    81    1
    46    51    52    2
    47    90    87    1
    48    90    91    1
    49   106   107    1
    50   108   107    2
    51   107   109   am
    52   109   110    1
    53    87    86    1
    54   110   113    1
    55    79    76    1
    56    79    80    1
    57    64    63    1
    58    64    67    1
    59    93    91   am
    60    81    80    1
    61    91    92    2
    62   115   113    1
    63   113   114    1
    64   114   116    1
    65    67    68    1
    66    36    37   ar
    67    36    34   ar
    68    37    35   ar
    69   131   130    2
    70    34    33   ar
    71   130   129    1
    72    68    70    1
    73    68    69    1
    74   120   119    2
    75    35    33   ar
    76    33    32    1
    77   117   118    1
    78    32    29    1
    79   119   128   am
    80   119   118    1
    81   129   128    1
    82   118   121    1
    83    29    28    1
    84    29    30    1
    85   121   122    1
    86    23    22    2
    87    28    26   am
    88    30    38   am
    89    30    31    2
    90   122   123   ar
    91   122   124   ar
    92    38    39    1
    93    40    41    2
    94    40    39    1
    95   123   125   ar
    96   124   126   ar
    97    22    21    1
    98    22    24   am
    99    26    25    1
   100    26    27    2
   101    39    42    1
   102    21    20    1
   103   125   127   ar
   104    25    24    1
   105   126   127   ar
   106    20    11   am
   107    42    43    1
   108    43    44   ar
   109    43    45   ar
   110    44    46   ar
   111    45    47   ar
   112    46    48   ar
   113     1     2    1
   114    11    12    2
   115    11    10    1
   116    47    48   ar
   117     4     3    2
   118     3     2    1
   119     3     9   am
   120    10     9    1
   121    10    13    1
   122     2     5    1
   123     5     6    1
   124    13    14    1
   125     6     7    1
   126     6     8    1
   127    14    15    1
   128    16    15    1
   129    16    17    2
   130    19    17    1
   131    17    18    1
