@<TRIPOS>MOLECULE
tmp/6f5mA04.pdb
 85 81 0 0 0
SMALL
GASTEIGER

@<TRIPOS>ATOM
      1  N         45.6000   18.0450   33.0940 N.3    20  LEU20      -0.1231
      2  CA        45.9220   17.6440   34.4620 C.3    20  LEU20       0.1693
      3  C         46.4340   16.2090   34.4040 C.2    20  LEU20       0.2591
      4  O         45.6450   15.2690   34.2660 O.2    20  LEU20      -0.2718
      5  CB        44.7050   17.7610   35.3770 C.3    20  LEU20       0.0284
      6  CG        44.2520   19.1580   35.7990 C.3    20  LEU20       0.0019
      7  CD1       42.9170   19.0770   36.5180 C.3    20  LEU20       0.0001
      8  CD2       45.3000   19.8100   36.6880 C.3    20  LEU20       0.0001
      9  N         47.7530   16.0510   34.5110 N.am   21  ARG21      -0.1980
     10  CA        48.4110   14.7480   34.4290 C.3    21  ARG21       0.1597
     11  C         48.0030   14.0130   33.1530 C.2    21  ARG21       0.2287
     12  O         47.5290   12.8760   33.1810 O.2    21  ARG21      -0.2864
     13  CB        48.1190   13.9040   35.6710 C.3    21  ARG21       0.0334
     14  CG        48.4850   14.5850   36.9790 C.3    21  ARG21       0.0492
     15  CD        48.7970   13.5720   38.0640 C.3    21  ARG21       0.2205
     16  NE        50.0000   12.8070   37.7530 N.pl3  21  ARG21      -0.0865
     17  CZ        50.3510   11.6820   38.3660 C.cat  21  ARG21       0.5346
     18  NH1       49.5910   11.1830   39.3310 N.pl3  21  ARG21       0.1354
     19  NH2       51.4650   11.0570   38.0140 N.pl3  21  ARG21       0.1354
     20  N         41.1990   19.0350   29.9240 N.3    25  PHE25      -0.1241
     21  CA        39.9990   19.5260   30.5970 C.3    25  PHE25       0.1605
     22  C         39.5080   20.8790   30.1000 C.2    25  PHE25       0.2264
     23  O         38.3080   21.1500   30.2140 O.2    25  PHE25      -0.2867
     24  CB        40.2220   19.5990   32.1170 C.3    25  PHE25       0.0534
     25  CG        41.1680   20.6860   32.5510 C.ar   25  PHE25      -0.0203
     26  CD1       42.5340   20.4580   32.5930 C.ar   25  PHE25      -0.0042
     27  CD2       40.6900   21.9290   32.9360 C.ar   25  PHE25      -0.0042
     28  CE1       43.4050   21.4540   32.9980 C.ar   25  PHE25      -0.0003
     29  CE2       41.5570   22.9280   33.3390 C.ar   25  PHE25      -0.0003
     30  CZ        42.9150   22.6900   33.3710 C.ar   25  PHE25      -0.0000
     31  N         40.3260   27.3290   35.6450 N.3    43  VAL43      -0.1231
     32  CA        41.3760   27.2600   36.6590 C.3    43  VAL43       0.1692
     33  C         40.8650   27.5420   38.0650 C.2    43  VAL43       0.2592
     34  O         41.5940   27.2880   39.0380 O.2    43  VAL43      -0.2718
     35  CB        42.5290   28.2340   36.3330 C.3    43  VAL43       0.0266
     36  CG1       42.9400   28.0950   34.8780 C.3    43  VAL43       0.0020
     37  CG2       42.1190   29.6620   36.6470 C.3    43  VAL43       0.0020
     38  N         39.6400   28.0540   38.2080 N.am   44  ALA44      -0.1966
     39  CA        39.1270   28.4090   39.5250 C.3    44  ALA44       0.1728
     40  C         38.8410   27.1870   40.3880 C.2    44  ALA44       0.2616
     41  O         38.7830   27.3130   41.6150 O.2    44  ALA44      -0.2715
     42  CB        37.8570   29.2500   39.3900 C.3    44  ALA44       0.0334
     43  N         38.6580   26.0160   39.7830 N.am   45  ASN45      -0.1958
     44  CA        38.2650   24.8290   40.5260 C.3    45  ASN45       0.1819
     45  C         39.2470   23.6730   40.3990 C.2    45  ASN45       0.2621
     46  O         38.9590   22.5850   40.9130 O.2    45  ASN45      -0.2715
     47  CB        36.8730   24.3610   40.0800 C.3    45  ASN45       0.1195
     48  CG        35.8290   25.4440   40.2050 C.2    45  ASN45       0.2630
     49  OD1       35.2790   25.6700   41.2820 O.2    45  ASN45      -0.2716
     50  ND2       35.5420   26.1190   39.0980 N.am   45  ASN45      -0.0877
     51  N         40.3830   23.8650   39.7390 N.am   46  VAL46      -0.1963
     52  CA        41.3880   22.8190   39.6050 C.3    46  VAL46       0.1727
     53  C         42.6310   23.2090   40.3950 C.2    46  VAL46       0.2616
     54  O         42.8240   24.3660   40.7820 O.2    46  VAL46      -0.2715
     55  CB        41.7520   22.5510   38.1300 C.3    46  VAL46       0.0290
     56  CG1       40.5080   22.2070   37.3270 C.3    46  VAL46       0.0023
     57  CG2       42.4670   23.7520   37.5350 C.3    46  VAL46       0.0023
     58  N         43.4850   22.2150   40.6350 N.am   47  ASN47      -0.1958
     59  CA        44.7810   22.4450   41.2660 C.3    47  ASN47       0.1819
     60  C         45.7200   23.0820   40.2480 C.2    47  ASN47       0.2621
     61  O         46.1800   22.4180   39.3150 O.2    47  ASN47      -0.2715
     62  CB        45.3510   21.1330   41.7990 C.3    47  ASN47       0.1195
     63  CG        46.7280   21.2980   42.4160 C.2    47  ASN47       0.2630
     64  OD1       47.1560   22.4090   42.7290 O.2    47  ASN47      -0.2716
     65  ND2       47.4270   20.1850   42.6000 N.am   47  ASN47      -0.0877
     66  N         46.0020   24.3750   40.4240 N.am   48  VAL48      -0.1977
     67  CA        46.7920   25.1060   39.4400 C.3    48  VAL48       0.1596
     68  C         48.2270   24.5940   39.3830 C.2    48  VAL48       0.2287
     69  O         48.8580   24.6200   38.3190 O.2    48  VAL48      -0.2864
     70  CB        46.7400   26.6130   39.7480 C.3    48  VAL48       0.0276
     71  CG1       47.4490   27.4090   38.6610 C.3    48  VAL48       0.0022
     72  CG2       45.2950   27.0650   39.9030 C.3    48  VAL48       0.0022
     73  N         49.2390   21.6710   39.3080 N.3    50  ALA50      -0.1245
     74  CA        49.3030   20.4920   38.4570 C.3    50  ALA50       0.1562
     75  C         48.8780   20.7740   37.0230 C.2    50  ALA50       0.2260
     76  O         48.9440   19.8720   36.1820 O.2    50  ALA50      -0.2867
     77  CB        48.4340   19.3720   39.0390 C.3    50  ALA50       0.0290
     78  N         48.5610   33.8710   37.9470 N.3    75  ILE75      -0.1245
     79  CA        47.1790   33.9460   37.4890 C.3    75  ILE75       0.1561
     80  C         46.7150   35.3940   37.5560 C.2    75  ILE75       0.2260
     81  O         46.9920   36.0990   38.5320 O.2    75  ILE75      -0.2867
     82  CB        46.2630   33.0380   38.3360 C.3    75  ILE75       0.0252
     83  CG1       46.6610   31.5720   38.1660 C.3    75  ILE75       0.0019
     84  CG2       44.8040   33.2390   37.9660 C.3    75  ILE75       0.0019
     85  CD1       45.8030   30.6230   38.9700 C.3    75  ILE75       0.0001
@<TRIPOS>BOND
     1    20    21    1
     2    22    23    2
     3    22    21    1
     4    21    24    1
     5    24    25    1
     6    25    26   ar
     7    25    27   ar
     8    26    28   ar
     9    27    29   ar
    10    28    30   ar
    11     1     2    1
    12    11    12    2
    13    11    10    1
    14    29    30   ar
    15     4     3    2
    16     3     2    1
    17     3     9   am
    18    10     9    1
    19    10    13    1
    20     2     5    1
    21    36    35    1
    22     5     6    1
    23    31    32    1
    24    13    14    1
    25     6     7    1
    26     6     8    1
    27    76    75    2
    28    35    37    1
    29    35    32    1
    30    32    33    1
    31    14    15    1
    32    75    74    1
    33    56    55    1
    34    79    80    1
    35    79    78    1
    36    79    82    1
    37    57    55    1
    38    80    81    2
    39    16    15    1
    40    16    17    2
    41    84    82    1
    42    19    17    1
    43    33    38   am
    44    33    34    2
    45    55    52    1
    46    83    82    1
    47    83    85    1
    48    38    39    1
    49    69    68    2
    50    17    18    1
    51    74    77    1
    52    74    73    1
    53    71    70    1
    54    50    48   am
    55    61    60    2
    56    68    67    1
    57    42    39    1
    58    67    70    1
    59    67    66    1
    60    39    40    1
    61    52    51    1
    62    52    53    1
    63    51    45   am
    64    70    72    1
    65    43    40   am
    66    43    44    1
    67    47    48    1
    68    47    44    1
    69    48    49    2
    70    60    66   am
    71    60    59    1
    72    40    41    2
    73    53    58   am
    74    53    54    2
    75    45    44    1
    76    45    46    2
    77    58    59    1
    78    59    62    1
    79    62    63    1
    80    63    65   am
    81    63    64    2
