@<TRIPOS>MOLECULE
tmp/6f5qA00.pdb
 168 160 0 0 0
SMALL
GASTEIGER

@<TRIPOS>ATOM
      1  N         -6.2060  -24.0790  -17.9020 N.3    67  GLN67      -0.1245
      2  CA        -6.9970  -23.3160  -18.8790 C.3    67  GLN67       0.1566
      3  C         -7.4340  -24.2170  -20.0390 C.2    67  GLN67       0.2260
      4  O         -6.6710  -24.4520  -20.9850 O.2    67  GLN67      -0.2867
      5  CB        -6.1860  -22.1280  -19.3820 C.3    67  GLN67       0.0367
      6  CG        -5.6320  -21.2260  -18.2660 C.3    67  GLN67       0.0905
      7  CD        -5.0110  -19.9610  -18.8330 C.2    67  GLN67       0.2608
      8  OE1       -3.9540  -20.0030  -19.4650 O.2    67  GLN67      -0.2717
      9  NE2       -5.6770  -18.8230  -18.6210 N.am   67  GLN67      -0.0878
     10  N        -12.1500  -20.2840  -22.9960 N.3    78  GLN78      -0.1245
     11  CA       -11.4280  -21.1080  -22.0370 C.3    78  GLN78       0.1566
     12  C        -12.0930  -21.0320  -20.6720 C.2    78  GLN78       0.2260
     13  O        -12.6160  -19.9840  -20.2820 O.2    78  GLN78      -0.2867
     14  CB        -9.9480  -20.7380  -21.9730 C.3    78  GLN78       0.0367
     15  CG        -9.6710  -19.3310  -21.5380 C.3    78  GLN78       0.0905
     16  CD        -8.1800  -18.9530  -21.5780 C.2    78  GLN78       0.2608
     17  OE1       -7.3270  -19.6790  -22.1110 O.2    78  GLN78      -0.2717
     18  NE2       -7.8710  -17.8030  -21.0120 N.am   78  GLN78      -0.0878
     19  N        -11.5200  -22.2200  -16.4260 N.3    80  HIS80      -0.1241
     20  CA       -10.4330  -22.4210  -15.4850 C.3    80  HIS80       0.1621
     21  C        -10.7980  -23.5340  -14.5170 C.2    80  HIS80       0.2264
     22  O        -11.7480  -23.3990  -13.7330 O.2    80  HIS80      -0.2867
     23  CB       -10.1390  -21.1260  -14.7350 C.3    80  HIS80       0.0745
     24  CG        -9.4850  -20.0840  -15.5800 C.ar   80  HIS80       0.0817
     25  ND1       -9.3710  -18.7690  -15.1840 N.ar   80  HIS80      -0.2268
     26  CD2       -8.8750  -20.1680  -16.7830 C.ar   80  HIS80       0.1154
     27  CE1       -8.7420  -18.0830  -16.1240 C.ar   80  HIS80       0.1986
     28  NE2       -8.4250  -18.9080  -17.1020 N.ar   80  HIS80      -0.2212
     29  N         -1.9120  -21.8810  -15.2210 N.3   126  TYR126     -0.1241
     30  CA        -1.5370  -20.4840  -14.9770 C.3   126  TYR126      0.1605
     31  C         -1.6110  -20.1900  -13.4800 C.2   126  TYR126      0.2264
     32  O         -2.6260  -20.4590  -12.8380 O.2   126  TYR126     -0.2867
     33  CB        -2.4880  -19.5110  -15.7120 C.3   126  TYR126      0.0534
     34  CG        -1.9320  -18.1460  -16.1280 C.ar  126  TYR126     -0.0201
     35  CD1       -0.6400  -17.7530  -15.8220 C.ar  126  TYR126     -0.0009
     36  CD2       -2.7060  -17.2710  -16.8910 C.ar  126  TYR126     -0.0009
     37  CE1       -0.1410  -16.5110  -16.2350 C.ar  126  TYR126      0.0417
     38  CE2       -2.2200  -16.0200  -17.2990 C.ar  126  TYR126      0.0417
     39  CZ        -0.9260  -15.6520  -16.9690 C.ar  126  TYR126      0.1957
     40  OH        -0.3790  -14.4390  -17.3860 O.3   126  TYR126     -0.2866
     41  N         -2.2150  -17.4330  -11.6990 N.3   128  ALA128     -0.1231
     42  CA        -2.6950  -16.0690  -11.8870 C.3   128  ALA128      0.1694
     43  C         -3.2860  -15.4540  -10.6180 C.2   128  ALA128      0.2592
     44  O         -3.8110  -16.1490   -9.7410 O.2   128  ALA128     -0.2718
     45  CB        -3.7680  -16.0430  -12.9680 C.3   128  ALA128      0.0304
     46  N         -3.2320  -14.1160  -10.5570 N.am  129  ASP129     -0.1974
     47  CA        -3.9900  -13.3270   -9.5750 C.3   129  ASP129      0.1709
     48  C         -3.6000  -13.6480   -8.1260 C.2   129  ASP129      0.2293
     49  O         -4.4540  -13.8760   -7.2610 O.2   129  ASP129     -0.2864
     50  CB        -5.5010  -13.4890   -9.7960 C.3   129  ASP129      0.1436
     51  CG        -5.9690  -12.9270  -11.1400 C.2   129  ASP129      0.3671
     52  OD1       -5.6130  -11.7740  -11.4750 O.co2 129  ASP129     -0.2456
     53  OD2       -6.7100  -13.6310  -11.8620 O.co2 129  ASP129     -0.2456
     54  N          1.5040  -12.8340  -11.4950 N.3   171  TYR171     -0.1241
     55  CA         1.1100  -13.8460  -12.4790 C.3   171  TYR171      0.1605
     56  C          2.3320  -14.6950  -12.8140 C.2   171  TYR171      0.2264
     57  O          3.2790  -14.2010  -13.4390 O.2   171  TYR171     -0.2867
     58  CB         0.5940  -13.1990  -13.7650 C.3   171  TYR171      0.0534
     59  CG        -0.6630  -12.4070  -13.5890 C.ar  171  TYR171     -0.0201
     60  CD1       -0.6340  -11.1070  -13.0940 C.ar  171  TYR171     -0.0009
     61  CD2       -1.8890  -12.9670  -13.8970 C.ar  171  TYR171     -0.0009
     62  CE1       -1.8010  -10.3970  -12.9070 C.ar  171  TYR171      0.0417
     63  CE2       -3.0540  -12.2710  -13.7110 C.ar  171  TYR171      0.0417
     64  CZ        -3.0060  -10.9880  -13.2230 C.ar  171  TYR171      0.1957
     65  OH        -4.1800  -10.2910  -13.0560 O.3   171  TYR171     -0.2866
     66  N         -2.7780  -17.9890  -21.2360 N.3   178  THR178     -0.1203
     67  CA        -3.5220  -17.0700  -22.0800 C.3   178  THR178      0.1994
     68  C         -4.3370  -16.0910  -21.2520 C.2   178  THR178      0.2618
     69  O         -5.0110  -16.4910  -20.2930 O.2   178  THR178     -0.2717
     70  CB        -4.5100  -17.8930  -22.9380 C.3   178  THR178      0.1784
     71  OG1       -3.7760  -18.8070  -23.7580 O.3   178  THR178     -0.2211
     72  CG2       -5.3730  -17.0210  -23.8220 C.3   178  THR178      0.0376
     73  N         -4.3170  -14.8140  -21.6410 N.am  179  PHE179     -0.1961
     74  CA        -5.2820  -13.8490  -21.1350 C.3   179  PHE179      0.1771
     75  C         -6.2670  -13.4580  -22.2290 C.2   179  PHE179      0.2619
     76  O         -5.8730  -13.0800  -23.3400 O.2   179  PHE179     -0.2715
     77  CB        -4.6550  -12.6460  -20.4070 C.3   179  PHE179      0.0574
     78  CG        -3.5960  -11.8540  -21.1800 C.ar  179  PHE179     -0.0200
     79  CD1       -2.2840  -12.2970  -21.2450 C.ar  179  PHE179     -0.0042
     80  CD2       -3.8970  -10.5900  -21.7020 C.ar  179  PHE179     -0.0042
     81  CE1       -1.2980  -11.5320  -21.8790 C.ar  179  PHE179     -0.0003
     82  CE2       -2.9340   -9.8250  -22.3290 C.ar  179  PHE179     -0.0003
     83  CZ        -1.6280  -10.3070  -22.4350 C.ar  179  PHE179     -0.0000
     84  N         -7.5530  -13.6150  -21.9160 N.am  180  ALA180     -0.1977
     85  CA        -8.6460  -13.4130  -22.8610 C.3   180  ALA180      0.1597
     86  C         -8.8640  -11.9260  -23.1590 C.2   180  ALA180      0.2287
     87  O         -8.3850  -11.0480  -22.4440 O.2   180  ALA180     -0.2864
     88  CB        -9.9320  -14.0520  -22.3040 C.3   180  ALA180      0.0319
     89  N        -10.2770   -8.4130  -23.0840 N.3   182  HIS182     -0.1241
     90  CA       -11.0030   -7.6480  -22.0710 C.3   182  HIS182      0.1621
     91  C        -10.4940   -6.2110  -22.0230 C.2   182  HIS182      0.2264
     92  O         -9.3830   -5.9140  -22.4750 O.2   182  HIS182     -0.2867
     93  CB       -10.8270   -8.2630  -20.6730 C.3   182  HIS182      0.0745
     94  CG        -9.4160   -8.1660  -20.1570 C.ar  182  HIS182      0.0817
     95  ND1       -8.3940   -8.9530  -20.6420 N.ar  182  HIS182     -0.2268
     96  CD2       -8.8580   -7.3700  -19.2120 C.ar  182  HIS182      0.1154
     97  CE1       -7.2670   -8.6430  -20.0130 C.ar  182  HIS182      0.1986
     98  NE2       -7.5210   -7.6770  -19.1460 N.ar  182  HIS182     -0.2212
     99  N        -10.1470   -3.3220  -18.6230 N.3   184  GLU184     -0.1245
    100  CA       -10.0610   -3.4140  -17.1740 C.3   184  GLU184      0.1567
    101  C        -11.4110   -3.1050  -16.5370 C.2   184  GLU184      0.2260
    102  O        -12.2830   -2.4700  -17.1350 O.2   184  GLU184     -0.2867
    103  CB        -9.0210   -2.4330  -16.6410 C.3   184  GLU184      0.0388
    104  CG        -7.6400   -2.6430  -17.2580 C.3   184  GLU184      0.1160
    105  CD        -7.1340   -4.0480  -17.0310 C.2   184  GLU184      0.3649
    106  OE1       -7.0330   -4.4520  -15.8480 O.co2 184  GLU184     -0.2457
    107  OE2       -6.8460   -4.7490  -18.0270 O.co2 184  GLU184     -0.2457
    108  N         -4.1850   -0.0170  -16.5890 N.3   190  SER190     -0.1217
    109  CA        -3.3750   -0.9910  -15.8740 C.3   190  SER190      0.1889
    110  C         -1.9060   -0.7680  -16.2000 C.2   190  SER190      0.2288
    111  O         -1.5500   -0.2300  -17.2510 O.2   190  SER190     -0.2866
    112  CB        -3.7610   -2.4630  -16.1610 C.3   190  SER190      0.2089
    113  OG        -3.4380   -2.8550  -17.4950 O.3   190  SER190     -0.2183
    114  N          1.7900   -3.2190  -16.0250 N.3   192  ASN192     -0.1240
    115  CA         2.2580   -4.5850  -15.9650 C.3   192  ASN192      0.1653
    116  C          3.7820   -4.5910  -16.1160 C.2   192  ASN192      0.2266
    117  O          4.3060   -4.0440  -17.0880 O.2   192  ASN192     -0.2867
    118  CB         1.6300   -5.3310  -17.1500 C.3   192  ASN192      0.1155
    119  CG         0.1030   -5.2220  -17.1680 C.2   192  ASN192      0.2627
    120  OD1       -0.5730   -6.1410  -16.7040 O.2   192  ASN192     -0.2716
    121  ND2       -0.4550   -4.1040  -17.7250 N.am  192  ASN192     -0.0877
    122  N          6.0560  -12.2180  -23.1070 N.3   200  LYS200     -0.1245
    123  CA         4.5960  -12.1520  -23.1050 C.3   200  LYS200      0.1561
    124  C          4.1720  -11.3480  -24.3400 C.2   200  LYS200      0.2260
    125  O          4.5870  -10.1920  -24.4970 O.2   200  LYS200     -0.2867
    126  CB         4.1220  -11.4700  -21.8090 C.3   200  LYS200      0.0271
    127  CG         2.6110  -11.4470  -21.5920 C.3   200  LYS200      0.0035
    128  CD         2.2260  -10.6620  -20.3080 C.3   200  LYS200      0.0206
    129  CE         2.8090  -11.1910  -18.9910 C.3   200  LYS200      0.1093
    130  NZ         2.0330  -12.3280  -18.5250 N.3   200  LYS200     -0.1314
    131  N          1.3000   -9.4750  -26.6300 N.3   202  TRP202     -0.1241
    132  CA         0.0720   -8.7080  -26.4320 C.3   202  TRP202      0.1605
    133  C         -0.5810   -8.3440  -27.7650 C.2   202  TRP202      0.2264
    134  O          0.1080   -7.9650  -28.7220 O.2   202  TRP202     -0.2867
    135  CB         0.3810   -7.3720  -25.7620 C.3   202  TRP202      0.0550
    136  CG         0.9530   -7.4330  -24.3500 C.ar  202  TRP202      0.0003
    137  CD1        2.1960   -7.8530  -23.9820 C.ar  202  TRP202      0.0946
    138  CD2        0.2990   -7.0130  -23.1370 C.ar  202  TRP202      0.0152
    139  NE1        2.3510   -7.7480  -22.6130 N.ar  202  TRP202     -0.2442
    140  CE2        1.2070   -7.2260  -22.0750 C.ar  202  TRP202      0.0810
    141  CE3       -0.9690   -6.4890  -22.8490 C.ar  202  TRP202      0.0012
    142  CZ2        0.8890   -6.9300  -20.7470 C.ar  202  TRP202      0.0191
    143  CZ3       -1.2840   -6.1870  -21.5280 C.ar  202  TRP202      0.0001
    144  CH2       -0.3640   -6.4220  -20.4910 C.ar  202  TRP202      0.0015
    145  N        -13.9840  -12.4920  -19.2280 N.3   235  LYS235     -0.1245
    146  CA       -12.5790  -12.8000  -19.4890 C.3   235  LYS235      0.1561
    147  C        -12.3750  -14.2730  -19.8740 C.2   235  LYS235      0.2260
    148  O        -11.5280  -14.9740  -19.3210 O.2   235  LYS235     -0.2867
    149  CB       -11.6830  -12.3620  -18.3160 C.3   235  LYS235      0.0271
    150  CG       -11.7340  -10.8360  -18.0630 C.3   235  LYS235      0.0035
    151  CD       -11.0770  -10.3660  -16.7690 C.3   235  LYS235      0.0206
    152  CE       -11.7920   -9.1140  -16.2380 C.3   235  LYS235      0.1093
    153  NZ       -11.0250   -8.3380  -15.2190 N.3   235  LYS235     -0.1314
    154  N         -7.4950   -5.7950  -24.7490 N.3   270  HIS270     -0.1241
    155  CA        -6.2420   -6.5280  -24.9220 C.3   270  HIS270      0.1621
    156  C         -6.4080   -8.0100  -24.6050 C.2   270  HIS270      0.2264
    157  O         -7.3200   -8.4090  -23.8800 O.2   270  HIS270     -0.2867
    158  CB        -5.0880   -5.9140  -24.1140 C.3   270  HIS270      0.0745
    159  CG        -5.3770   -5.7450  -22.6480 C.ar  270  HIS270      0.0817
    160  ND1       -6.1810   -4.7370  -22.1590 N.ar  270  HIS270     -0.2268
    161  CD2       -4.9870   -6.4670  -21.5690 C.ar  270  HIS270      0.1154
    162  CE1       -6.2760   -4.8420  -20.8420 C.ar  270  HIS270      0.1986
    163  NE2       -5.5520   -5.8740  -20.4520 N.ar  270  HIS270     -0.2212
    164  N          5.0670  -11.9140  -13.9040 N.3   280  ALA280     -0.1245
    165  CA         4.6780  -10.5220  -14.0680 C.3   280  ALA280      0.1562
    166  C          3.9540  -10.0260  -12.8210 C.2   280  ALA280      0.2260
    167  O          3.3640  -10.8050  -12.0650 O.2   280  ALA280     -0.2867
    168  CB         3.7700  -10.3460  -15.3010 C.3   280  ALA280      0.0290
@<TRIPOS>BOND
     1   134   133    2
     2   133   132    1
     3   131   132    1
     4   132   135    1
     5   135   136    1
     6   155   154    1
     7   155   156    1
     8   155   158    1
     9   156   157    2
    10   125   124    2
    11   136   137   ar
    12   136   138   ar
    13   124   123    1
    14   158   159    1
    15   137   139   ar
    16    72    70    1
    17    71    70    1
    18    76    75    2
    19    86    85    1
    20    86    87    2
    21   138   141   ar
    22   138   140   ar
    23   122   123    1
    24   123   126    1
    25    89    90    1
    26    10    11    1
    27    70    67    1
    28    85    88    1
    29    85    84    1
    30   141   143   ar
    31   159   160   ar
    32   159   161   ar
    33   139   140   ar
    34    92    91    2
    35    83    82   ar
    36    83    81   ar
    37    82    80   ar
    38    75    84   am
    39    75    74    1
    40   160   162   ar
    41    17    16    2
    42    67    68    1
    43    67    66    1
    44   140   142   ar
    45    90    91    1
    46    90    93    1
    47    11    14    1
    48    11    12    1
    49    14    15    1
    50    81    79   ar
    51   126   127    1
    52    80    78   ar
    53    73    68   am
    54    73    74    1
    55   127   128    1
    56    16    15    1
    57    16    18   am
    58   161   163   ar
    59   143   144   ar
    60    68    69    2
    61    79    78   ar
    62    78    77    1
    63    74    77    1
    64     4     3    2
    65   162   163   ar
    66   142   144   ar
    67    93    94    1
    68    12    13    2
    69    95    94   ar
    70    95    97   ar
    71   128   129    1
    72    94    96   ar
    73     3     2    1
    74    97    98   ar
    75   147   146    1
    76   147   148    2
    77   146   145    1
    78   146   149    1
    79     8     7    2
    80     5     2    1
    81     5     6    1
    82    96    98   ar
    83   129   130    1
    84     2     1    1
    85     7     9   am
    86     7     6    1
    87    99   100    1
    88   149   150    1
    89   150   151    1
    90   107   105   ar
    91   121   119   am
    92   113   112    1
    93    40    39    1
    94    38    39   ar
    95    38    36   ar
    96   104   105    1
    97   104   103    1
    98   111   110    2
    99   100   103    1
   100   100   101    1
   101   119   118    1
   102   119   120    2
   103   118   115    1
   104   102   101    2
   105    28    26   ar
   106    28    27   ar
   107   117   116    2
   108   105   106   ar
   109    39    37   ar
   110    36    34   ar
   111    26    24   ar
   112   151   152    1
   113   108   109    1
   114    19    20    1
   115   152   153    1
   116    37    35   ar
   117   110   109    1
   118   112   109    1
   119    34    35   ar
   120    34    33    1
   121    27    25   ar
   122   116   115    1
   123   114   115    1
   124    33    30    1
   125    24    25   ar
   126    24    23    1
   127    20    23    1
   128    20    21    1
   129   168   165    1
   130    29    30    1
   131    30    31    1
   132    21    22    2
   133   165   164    1
   134   165   166    1
   135    61    63   ar
   136    61    59   ar
   137    58    59    1
   138    58    55    1
   139    63    64   ar
   140    59    60   ar
   141    31    32    2
   142    57    56    2
   143    64    65    1
   144    64    62   ar
   145    60    62   ar
   146    45    42    1
   147   166   167    2
   148    56    55    1
   149    55    54    1
   150    42    41    1
   151    42    43    1
   152    53    51   ar
   153    52    51   ar
   154    51    50    1
   155    43    46   am
   156    43    44    2
   157    46    47    1
   158    50    47    1
   159    47    48    1
   160    48    49    2
