@<TRIPOS>MOLECULE
tmp/6f5rA00.pdb
 162 154 0 0 0
SMALL
GASTEIGER

@<TRIPOS>ATOM
      1  N        -12.2420  -20.4320  -23.2830 N.3    78  GLN78      -0.1245
      2  CA       -11.4700  -21.2440  -22.3400 C.3    78  GLN78       0.1566
      3  C        -12.1520  -21.2290  -20.9770 C.2    78  GLN78       0.2260
      4  O        -12.6920  -20.2000  -20.5530 O.2    78  GLN78      -0.2867
      5  CB        -9.9930  -20.7800  -22.2000 C.3    78  GLN78       0.0367
      6  CG        -9.7450  -19.3150  -21.8020 C.3    78  GLN78       0.0905
      7  CD        -8.2460  -18.9060  -21.7910 C.2    78  GLN78       0.2608
      8  OE1       -7.3720  -19.6260  -22.2710 O.2    78  GLN78      -0.2717
      9  NE2       -7.9720  -17.7320  -21.2620 N.am   78  GLN78      -0.0878
     10  N        -11.6480  -22.4100  -16.7720 N.3    80  HIS80      -0.1241
     11  CA       -10.5730  -22.5740  -15.8030 C.3    80  HIS80       0.1621
     12  C        -10.9500  -23.6590  -14.8090 C.2    80  HIS80       0.2264
     13  O        -11.9240  -23.5190  -14.0570 O.2    80  HIS80      -0.2867
     14  CB       -10.2770  -21.2380  -15.1090 C.3    80  HIS80       0.0745
     15  CG        -9.7130  -20.2040  -16.0350 C.ar   80  HIS80       0.0817
     16  ND1      -10.5040  -19.3210  -16.7380 N.ar   80  HIS80      -0.2268
     17  CD2       -8.4390  -19.9590  -16.4290 C.ar   80  HIS80       0.1154
     18  CE1       -9.7390  -18.5570  -17.5000 C.ar   80  HIS80       0.1986
     19  NE2       -8.4820  -18.9290  -17.3380 N.ar   80  HIS80      -0.2212
     20  N         -2.0370  -22.0300  -15.3110 N.3   126  TYR126     -0.1241
     21  CA        -1.8250  -20.5840  -15.1410 C.3   126  TYR126      0.1605
     22  C         -1.8810  -20.2630  -13.6490 C.2   126  TYR126      0.2264
     23  O         -2.8690  -20.6050  -13.0020 O.2   126  TYR126     -0.2867
     24  CB        -2.9580  -19.8480  -15.9030 C.3   126  TYR126      0.0534
     25  CG        -3.0300  -18.3280  -16.0310 C.ar  126  TYR126     -0.0201
     26  CD1       -1.9050  -17.5200  -16.0790 C.ar  126  TYR126     -0.0009
     27  CD2       -4.2800  -17.7160  -16.1880 C.ar  126  TYR126     -0.0009
     28  CE1       -2.0320  -16.1190  -16.2490 C.ar  126  TYR126      0.0417
     29  CE2       -4.4110  -16.3540  -16.3570 C.ar  126  TYR126      0.0417
     30  CZ        -3.2960  -15.5560  -16.3900 C.ar  126  TYR126      0.1957
     31  OH        -3.4810  -14.1930  -16.5560 O.3   126  TYR126     -0.2866
     32  N         -3.6610  -13.9460  -10.5630 N.3   129  ASP129     -0.1239
     33  CA        -4.3050  -13.1050   -9.5540 C.3   129  ASP129      0.1674
     34  C         -3.8800  -13.4960   -8.1300 C.2   129  ASP129      0.2266
     35  O         -4.7140  -13.6940   -7.2510 O.2   129  ASP129     -0.2867
     36  CB        -5.8370  -13.1820   -9.6670 C.3   129  ASP129      0.1410
     37  CG        -6.3600  -12.7990  -11.0470 C.2   129  ASP129      0.3668
     38  OD1       -5.9910  -11.7240  -11.5600 O.co2 129  ASP129     -0.2456
     39  OD2       -7.1560  -13.5830  -11.6090 O.co2 129  ASP129     -0.2456
     40  N          1.3750  -12.9390  -11.5380 N.3   171  TYR171     -0.1241
     41  CA         0.9730  -13.9090  -12.5730 C.3   171  TYR171      0.1605
     42  C          2.1620  -14.8000  -12.9610 C.2   171  TYR171      0.2264
     43  O          3.1570  -14.3110  -13.5010 O.2   171  TYR171     -0.2867
     44  CB         0.4210  -13.1830  -13.8240 C.3   171  TYR171      0.0534
     45  CG        -0.7740  -12.3090  -13.5180 C.ar  171  TYR171     -0.0201
     46  CD1       -0.6050  -11.0520  -12.9170 C.ar  171  TYR171     -0.0009
     47  CD2       -2.0710  -12.7410  -13.7780 C.ar  171  TYR171     -0.0009
     48  CE1       -1.6850  -10.2570  -12.5830 C.ar  171  TYR171      0.0417
     49  CE2       -3.1800  -11.9340  -13.4350 C.ar  171  TYR171      0.0417
     50  CZ        -2.9670  -10.6990  -12.8390 C.ar  171  TYR171      0.1957
     51  OH        -4.0230   -9.8840  -12.4840 O.3   171  TYR171     -0.2866
     52  N         -2.8510  -18.1150  -21.4660 N.3   178  THR178     -0.1203
     53  CA        -3.5860  -17.1700  -22.3100 C.3   178  THR178      0.1994
     54  C         -4.3840  -16.1810  -21.4550 C.2   178  THR178      0.2618
     55  O         -5.0530  -16.5890  -20.5000 O.2   178  THR178     -0.2717
     56  CB        -4.5700  -17.9630  -23.2560 C.3   178  THR178      0.1784
     57  OG1       -3.8270  -18.8520  -24.1110 O.3   178  THR178     -0.2211
     58  CG2       -5.3700  -17.0390  -24.1330 C.3   178  THR178      0.0376
     59  N         -4.3550  -14.8810  -21.8170 N.am  179  PHE179     -0.1961
     60  CA        -5.3250  -13.9160  -21.3050 C.3   179  PHE179      0.1771
     61  C         -6.2930  -13.5080  -22.4230 C.2   179  PHE179      0.2619
     62  O         -5.8750  -13.1270  -23.5240 O.2   179  PHE179     -0.2715
     63  CB        -4.6690  -12.6910  -20.6170 C.3   179  PHE179      0.0574
     64  CG        -3.5970  -11.9590  -21.3820 C.ar  179  PHE179     -0.0200
     65  CD1       -2.2930  -12.4350  -21.4120 C.ar  179  PHE179     -0.0042
     66  CD2       -3.8590  -10.7030  -21.9100 C.ar  179  PHE179     -0.0042
     67  CE1       -1.2770  -11.7200  -22.0680 C.ar  179  PHE179     -0.0003
     68  CE2       -2.8640   -9.9560  -22.5570 C.ar  179  PHE179     -0.0003
     69  CZ        -1.5540  -10.4670  -22.6350 C.ar  179  PHE179     -0.0000
     70  N         -7.5900  -13.6530  -22.1500 N.am  180  ALA180     -0.1977
     71  CA        -8.6510  -13.4670  -23.1340 C.3   180  ALA180      0.1597
     72  C         -8.9140  -11.9690  -23.3830 C.2   180  ALA180      0.2287
     73  O         -8.4060  -11.1020  -22.6660 O.2   180  ALA180     -0.2864
     74  CB        -9.9320  -14.1590  -22.6480 C.3   180  ALA180      0.0319
     75  N        -10.3480   -8.4300  -23.2550 N.3   182  HIS182     -0.1241
     76  CA       -11.0190   -7.6900  -22.1810 C.3   182  HIS182      0.1621
     77  C        -10.5110   -6.2470  -22.1080 C.2   182  HIS182      0.2264
     78  O         -9.4180   -5.9230  -22.5940 O.2   182  HIS182     -0.2867
     79  CB       -10.8050   -8.3690  -20.8120 C.3   182  HIS182      0.0745
     80  CG        -9.3960   -8.2610  -20.3070 C.ar  182  HIS182      0.0817
     81  ND1       -8.3570   -9.0060  -20.8230 N.ar  182  HIS182     -0.2268
     82  CD2       -8.8610   -7.4730  -19.3480 C.ar  182  HIS182      0.1154
     83  CE1       -7.2340   -8.6740  -20.1970 C.ar  182  HIS182      0.1986
     84  NE2       -7.5150   -7.7430  -19.2970 N.ar  182  HIS182     -0.2212
     85  N        -10.1460   -3.3740  -18.6900 N.3   184  GLU184     -0.1245
     86  CA       -10.0270   -3.4800  -17.2260 C.3   184  GLU184      0.1567
     87  C        -11.3770   -3.1990  -16.5510 C.2   184  GLU184      0.2260
     88  O        -12.2800   -2.6000  -17.1480 O.2   184  GLU184     -0.2867
     89  CB        -8.9590   -2.5240  -16.6740 C.3   184  GLU184      0.0388
     90  CG        -7.5670   -2.6830  -17.2930 C.3   184  GLU184      0.1160
     91  CD        -7.0540   -4.1230  -17.1490 C.2   184  GLU184      0.3649
     92  OE1       -7.0290   -4.6030  -16.0150 O.co2 184  GLU184     -0.2457
     93  OE2       -6.7360   -4.7750  -18.1670 O.co2 184  GLU184     -0.2457
     94  N         -4.1430   -0.0710  -16.6920 N.3   190  SER190     -0.1217
     95  CA        -3.3200   -1.0310  -15.9520 C.3   190  SER190      0.1889
     96  C         -1.8490   -0.8170  -16.2860 C.2   190  SER190      0.2288
     97  O         -1.5000   -0.3030  -17.3560 O.2   190  SER190     -0.2866
     98  CB        -3.6980   -2.5110  -16.2370 C.3   190  SER190      0.2089
     99  OG        -3.4130   -2.9140  -17.5900 O.3   190  SER190     -0.2183
    100  N          1.8580   -3.2010  -16.0670 N.3   192  ASN192     -0.1240
    101  CA         2.2770   -4.5960  -16.0420 C.3   192  ASN192      0.1653
    102  C          3.7980   -4.6510  -16.1950 C.2   192  ASN192      0.2266
    103  O          4.3340   -4.1170  -17.1710 O.2   192  ASN192     -0.2867
    104  CB         1.5880   -5.3590  -17.1810 C.3   192  ASN192      0.1155
    105  CG         0.0810   -5.0740  -17.2770 C.2   192  ASN192      0.2627
    106  OD1       -0.3600   -4.0210  -17.7940 O.2   192  ASN192     -0.2716
    107  ND2       -0.7080   -6.0280  -16.8300 N.am  192  ASN192     -0.0877
    108  N          6.1080  -12.3320  -23.4100 N.3   200  LYS200     -0.1245
    109  CA         4.6430  -12.2730  -23.4100 C.3   200  LYS200      0.1561
    110  C          4.2150  -11.4680  -24.6380 C.2   200  LYS200      0.2260
    111  O          4.6260  -10.3120  -24.7890 O.2   200  LYS200     -0.2867
    112  CB         4.1560  -11.6100  -22.1070 C.3   200  LYS200      0.0271
    113  CG         2.6470  -11.5710  -21.8540 C.3   200  LYS200      0.0035
    114  CD         2.2960  -10.6920  -20.6210 C.3   200  LYS200      0.0206
    115  CE         2.8930  -11.1670  -19.2610 C.3   200  LYS200      0.1093
    116  NZ         2.1850  -12.3660  -18.7270 N.3   200  LYS200     -0.1314
    117  N          1.3340   -9.5190  -26.9010 N.3   202  TRP202     -0.1241
    118  CA         0.1130   -8.7350  -26.6730 C.3   202  TRP202      0.1605
    119  C         -0.5530   -8.3650  -28.0040 C.2   202  TRP202      0.2264
    120  O          0.1320   -8.0770  -28.9840 O.2   202  TRP202     -0.2867
    121  CB         0.4010   -7.4010  -25.9510 C.3   202  TRP202      0.0550
    122  CG         0.9790   -7.4650  -24.5480 C.ar  202  TRP202      0.0003
    123  CD1        2.2400   -7.8910  -24.1890 C.ar  202  TRP202      0.0946
    124  CD2        0.3370   -7.0570  -23.3310 C.ar  202  TRP202      0.0152
    125  NE1        2.4000   -7.8100  -22.8260 N.ar  202  TRP202     -0.2442
    126  CE2        1.2520   -7.2860  -22.2700 C.ar  202  TRP202      0.0810
    127  CE3       -0.9190   -6.5070  -23.0330 C.ar  202  TRP202      0.0012
    128  CZ2        0.9480   -6.9870  -20.9420 C.ar  202  TRP202      0.0191
    129  CZ3       -1.2270   -6.2170  -21.7010 C.ar  202  TRP202      0.0001
    130  CH2       -0.2960   -6.4610  -20.6710 C.ar  202  TRP202      0.0015
    131  N        -14.1010  -12.6280  -19.4140 N.3   235  LYS235     -0.1245
    132  CA       -12.7050  -12.9100  -19.7420 C.3   235  LYS235      0.1561
    133  C        -12.4660  -14.3720  -20.1330 C.2   235  LYS235      0.2260
    134  O        -11.5640  -15.0320  -19.6080 O.2   235  LYS235     -0.2867
    135  CB       -11.7890  -12.5050  -18.5770 C.3   235  LYS235      0.0271
    136  CG       -11.8470  -11.0210  -18.2680 C.3   235  LYS235      0.0035
    137  CD       -10.9780  -10.6360  -17.0860 C.3   235  LYS235      0.0206
    138  CE       -11.3320   -9.2480  -16.5890 C.3   235  LYS235      0.1093
    139  NZ       -12.7200   -9.2070  -16.0520 N.3   235  LYS235     -0.1314
    140  N         -7.5260   -5.8340  -24.9460 N.3   270  HIS270     -0.1241
    141  CA        -6.2740   -6.5570  -25.1570 C.3   270  HIS270      0.1621
    142  C         -6.4400   -8.0390  -24.8260 C.2   270  HIS270      0.2264
    143  O         -7.3600   -8.4380  -24.1000 O.2   270  HIS270     -0.2867
    144  CB        -5.1100   -5.9460  -24.3320 C.3   270  HIS270      0.0745
    145  CG        -5.3940   -5.7800  -22.8620 C.ar  270  HIS270      0.0817
    146  ND1       -6.1570   -4.7440  -22.3620 N.ar  270  HIS270     -0.2268
    147  CD2       -4.9850   -6.5000  -21.7810 C.ar  270  HIS270      0.1154
    148  CE1       -6.2480   -4.8690  -21.0420 C.ar  270  HIS270      0.1986
    149  NE2       -5.5510   -5.9280  -20.6700 N.ar  270  HIS270     -0.2212
    150  N          1.7620  -16.3060  -23.2430 N.3   274  ASN274     -0.1240
    151  CA         3.1280  -16.4290  -22.7290 C.3   274  ASN274      0.1653
    152  C          3.9410  -17.4520  -23.5250 C.2   274  ASN274      0.2266
    153  O          3.4240  -18.4730  -23.9930 O.2   274  ASN274     -0.2867
    154  CB         3.1070  -16.8250  -21.2480 C.3   274  ASN274      0.1155
    155  CG         2.4980  -15.7300  -20.3420 C.2   274  ASN274      0.2627
    156  OD1        2.9730  -14.5940  -20.3200 O.2   274  ASN274     -0.2716
    157  ND2        1.4490  -16.0830  -19.5840 N.am  274  ASN274     -0.0877
    158  N          5.0130  -12.1370  -13.9750 N.3   280  ALA280     -0.1245
    159  CA         4.6780  -10.7240  -14.1290 C.3   280  ALA280      0.1562
    160  C          3.9150  -10.1940  -12.9110 C.2   280  ALA280      0.2260
    161  O          3.2910  -10.9540  -12.1610 O.2   280  ALA280     -0.2867
    162  CB         3.8310  -10.4730  -15.3800 C.3   280  ALA280      0.0290
@<TRIPOS>BOND
     1   120   119    2
     2   119   118    1
     3   117   118    1
     4   118   121    1
     5   121   122    1
     6   141   140    1
     7   141   142    1
     8   141   144    1
     9   142   143    2
    10   111   110    2
    11   110   109    1
    12   122   123   ar
    13   122   124   ar
    14   144   145    1
    15   123   125   ar
    16    58    56    1
    17    57    56    1
    18   153   152    2
    19   152   151    1
    20    62    61    2
    21   109   108    1
    22   109   112    1
    23    72    71    1
    24    72    73    2
    25   124   127   ar
    26   124   126   ar
    27     1     2    1
    28    56    53    1
    29    75    76    1
    30   150   151    1
    31    71    74    1
    32    71    70    1
    33   127   129   ar
    34   145   146   ar
    35   145   147   ar
    36   125   126   ar
    37   151   154    1
    38    69    68   ar
    39    69    67   ar
    40    78    77    2
    41    68    66   ar
    42    61    70   am
    43    61    60    1
    44   146   148   ar
    45     2     5    1
    46     2     3    1
    47    53    52    1
    48    53    54    1
    49     8     7    2
    50   126   128   ar
    51     5     6    1
    52    76    77    1
    53    76    79    1
    54   112   113    1
    55    67    65   ar
    56    66    64   ar
    57   113   114    1
    58    59    54   am
    59    59    60    1
    60     6     7    1
    61     7     9   am
    62   147   149   ar
    63   129   130   ar
    64    54    55    2
    65    65    64   ar
    66    64    63    1
    67    60    63    1
    68   154   155    1
    69   148   149   ar
    70     3     4    2
    71   128   130   ar
    72    81    80   ar
    73    81    83   ar
    74    79    80    1
    75   114   115    1
    76   155   156    2
    77   155   157   am
    78    80    82   ar
    79    83    84   ar
    80   133   132    1
    81   133   134    2
    82   132   131    1
    83   132   135    1
    84    82    84   ar
    85   115   116    1
    86    85    86    1
    87   135   136    1
    88   136   137    1
    89    93    91   ar
    90   106   105    2
    91    99    98    1
    92    18    19   ar
    93    18    16   ar
    94    97    96    2
    95    19    17   ar
    96    90    91    1
    97    90    89    1
    98   105   104    1
    99   105   107   am
   100    86    89    1
   101    86    87    1
   102   104   101    1
   103   103   102    2
   104    91    92   ar
   105    88    87    2
   106   137   138    1
   107    10    11    1
   108    16    15   ar
   109    94    95    1
   110   138   139    1
   111    31    30    1
   112    17    15   ar
   113    30    29   ar
   114    30    28   ar
   115    29    27   ar
   116    96    95    1
   117    28    26   ar
   118    98    95    1
   119   102   101    1
   120    27    25   ar
   121    26    25   ar
   122   100   101    1
   123    15    14    1
   124    25    24    1
   125    24    21    1
   126    11    14    1
   127    11    12    1
   128   162   159    1
   129    20    21    1
   130    21    22    1
   131    12    13    2
   132   159   158    1
   133   159   160    1
   134    44    45    1
   135    44    41    1
   136    47    45   ar
   137    47    49   ar
   138    22    23    2
   139    45    46   ar
   140    43    42    2
   141    49    50   ar
   142    42    41    1
   143    46    48   ar
   144   160   161    2
   145    50    48   ar
   146    50    51    1
   147    41    40    1
   148    39    37   ar
   149    38    37   ar
   150    37    36    1
   151    32    33    1
   152    36    33    1
   153    33    34    1
   154    34    35    2
