@<TRIPOS>MOLECULE
tmp/6f5sA00.pdb
 203 193 0 0 0
SMALL
GASTEIGER

@<TRIPOS>ATOM
      1  N         -1.8710  -22.1450  -14.8910 N.3   126  TYR126     -0.1241
      2  CA        -1.1760  -20.9450  -14.4390 C.3   126  TYR126      0.1605
      3  C         -1.6980  -20.4450  -13.1050 C.2   126  TYR126      0.2264
      4  O         -2.7350  -20.8770  -12.6040 O.2   126  TYR126     -0.2867
      5  CB        -1.1870  -19.8330  -15.4760 C.3   126  TYR126      0.0534
      6  CG        -2.4440  -19.0250  -15.5750 C.ar  126  TYR126     -0.0201
      7  CD1       -3.6860  -19.6180  -15.5450 C.ar  126  TYR126     -0.0009
      8  CD2       -2.3740  -17.6520  -15.7110 C.ar  126  TYR126     -0.0009
      9  CE1       -4.8460  -18.8550  -15.6440 C.ar  126  TYR126      0.0417
     10  CE2       -3.5100  -16.8810  -15.8200 C.ar  126  TYR126      0.0417
     11  CZ        -4.7470  -17.4840  -15.7850 C.ar  126  TYR126      0.1957
     12  OH        -5.8840  -16.7110  -15.8870 O.3   126  TYR126     -0.2866
     13  N         -3.6990  -13.6860  -10.3720 N.3   129  ASP129     -0.1239
     14  CA        -4.3190  -12.7730   -9.4070 C.3   129  ASP129      0.1674
     15  C         -3.9280  -13.1290   -7.9730 C.2   129  ASP129      0.2266
     16  O         -4.7690  -13.1910   -7.0710 O.2   129  ASP129     -0.2867
     17  CB        -5.8430  -12.7630   -9.5660 C.3   129  ASP129      0.1410
     18  CG        -6.2810  -12.3710  -10.9590 C.2   129  ASP129      0.3668
     19  OD1       -5.6610  -11.4610  -11.5490 O.co2 129  ASP129     -0.2456
     20  OD2       -7.2450  -12.9840  -11.4630 O.co2 129  ASP129     -0.2456
     21  N         -0.9140   -7.5700   -7.8260 N.3   169  TYR169     -0.1241
     22  CA        -1.1070   -9.0090   -7.9740 C.3   169  TYR169      0.1605
     23  C          0.0120   -9.6110   -8.8170 C.2   169  TYR169      0.2264
     24  O          0.5570   -8.9520   -9.7120 O.2   169  TYR169     -0.2867
     25  CB        -2.4230   -9.3110   -8.6900 C.3   169  TYR169      0.0534
     26  CG        -3.6500   -8.9130   -7.9020 C.ar  169  TYR169     -0.0201
     27  CD1       -4.1320   -7.6120   -7.9500 C.ar  169  TYR169     -0.0009
     28  CD2       -4.3240   -9.8340   -7.1170 C.ar  169  TYR169     -0.0009
     29  CE1       -5.2500   -7.2390   -7.2350 C.ar  169  TYR169      0.0417
     30  CE2       -5.4510   -9.4700   -6.3990 C.ar  169  TYR169      0.0417
     31  CZ        -5.9060   -8.1690   -6.4650 C.ar  169  TYR169      0.1957
     32  OH        -7.0250   -7.7820   -5.7590 O.3   169  TYR169     -0.2866
     33  N          1.3620  -12.9800  -11.2830 N.3   171  TYR171     -0.1241
     34  CA         0.9670  -14.0100  -12.2390 C.3   171  TYR171      0.1605
     35  C          2.1570  -14.9090  -12.5290 C.2   171  TYR171      0.2264
     36  O          3.2730  -14.4240  -12.7330 O.2   171  TYR171     -0.2867
     37  CB         0.5380  -13.3940  -13.5690 C.3   171  TYR171      0.0534
     38  CG        -0.6430  -12.4920  -13.4310 C.ar  171  TYR171     -0.0201
     39  CD1       -0.4950  -11.2110  -12.9130 C.ar  171  TYR171     -0.0009
     40  CD2       -1.9090  -12.9270  -13.7800 C.ar  171  TYR171     -0.0009
     41  CE1       -1.5810  -10.3820  -12.7610 C.ar  171  TYR171      0.0417
     42  CE2       -3.0000  -12.1040  -13.6290 C.ar  171  TYR171      0.0417
     43  CZ        -2.8360  -10.8410  -13.1280 C.ar  171  TYR171      0.1957
     44  OH        -3.9550  -10.0660  -13.0060 O.3   171  TYR171     -0.2866
     45  N         -0.1430  -20.3070  -21.7990 N.3   177  THR177     -0.1203
     46  CA        -1.0220  -19.6010  -20.8670 C.3   177  THR177      0.1994
     47  C         -1.5710  -18.3630  -21.5620 C.2   177  THR177      0.2619
     48  O         -0.8140  -17.6210  -22.2020 O.2   177  THR177     -0.2717
     49  CB        -0.2380  -19.1980  -19.6040 C.3   177  THR177      0.1784
     50  OG1        0.2040  -20.3710  -18.9030 O.3   177  THR177     -0.2211
     51  CG2       -1.0850  -18.3350  -18.6640 C.3   177  THR177      0.0376
     52  N         -2.8750  -18.1320  -21.4290 N.am  178  THR178     -0.1938
     53  CA        -3.6050  -17.2090  -22.2870 C.3   178  THR178      0.2028
     54  C         -4.3920  -16.2060  -21.4600 C.2   178  THR178      0.2642
     55  O         -5.0700  -16.5860  -20.5020 O.2   178  THR178     -0.2714
     56  CB        -4.6170  -18.0290  -23.1200 C.3   178  THR178      0.1808
     57  OG1       -3.9260  -18.9890  -23.9420 O.3   178  THR178     -0.2208
     58  CG2       -5.4530  -17.1290  -24.0270 C.3   178  THR178      0.0379
     59  N         -4.3470  -14.9310  -21.8520 N.am  179  PHE179     -0.1973
     60  CA        -5.2960  -13.9540  -21.3340 C.3   179  PHE179      0.1639
     61  C         -6.2850  -13.5360  -22.4160 C.2   179  PHE179      0.2290
     62  O         -5.8990  -13.1710  -23.5320 O.2   179  PHE179     -0.2864
     63  CB        -4.6540  -12.7750  -20.5650 C.3   179  PHE179      0.0560
     64  CG        -3.6320  -11.9670  -21.3060 C.ar  179  PHE179     -0.0200
     65  CD1       -2.3090  -12.3970  -21.4200 C.ar  179  PHE179     -0.0042
     66  CD2       -3.9590  -10.6970  -21.7740 C.ar  179  PHE179     -0.0042
     67  CE1       -1.3670  -11.6110  -22.0720 C.ar  179  PHE179     -0.0003
     68  CE2       -3.0280   -9.9060  -22.3960 C.ar  179  PHE179     -0.0003
     69  CZ        -1.7280  -10.3600  -22.5560 C.ar  179  PHE179     -0.0000
     70  N        -10.2030   -8.4490  -23.2190 N.3   182  HIS182     -0.1241
     71  CA       -10.9120   -7.6830  -22.1940 C.3   182  HIS182      0.1621
     72  C        -10.3820   -6.2510  -22.1250 C.2   182  HIS182      0.2264
     73  O         -9.2680   -5.9580  -22.5650 O.2   182  HIS182     -0.2867
     74  CB       -10.7310   -8.3330  -20.8080 C.3   182  HIS182      0.0745
     75  CG        -9.3310   -8.2240  -20.2770 C.ar  182  HIS182      0.0817
     76  ND1       -8.2890   -8.9910  -20.7560 N.ar  182  HIS182     -0.2268
     77  CD2       -8.7950   -7.4230  -19.3230 C.ar  182  HIS182      0.1154
     78  CE1       -7.1760   -8.6690  -20.1180 C.ar  182  HIS182      0.1986
     79  NE2       -7.4550   -7.7140  -19.2470 N.ar  182  HIS182     -0.2212
     80  N        -10.0700   -3.3560  -18.7180 N.3   184  GLU184     -0.1231
     81  CA        -9.9900   -3.4590  -17.2630 C.3   184  GLU184      0.1699
     82  C        -11.3350   -3.1260  -16.6190 C.2   184  GLU184      0.2592
     83  O        -12.2020   -2.4980  -17.2240 O.2   184  GLU184     -0.2718
     84  CB        -8.9100   -2.5170  -16.7200 C.3   184  GLU184      0.0402
     85  CG        -7.5330   -2.7540  -17.3050 C.3   184  GLU184      0.1161
     86  CD        -7.0390   -4.1550  -17.0700 C.2   184  GLU184      0.3649
     87  OE1       -6.9150   -4.5680  -15.9010 O.co2 184  GLU184     -0.2457
     88  OE2       -6.7780   -4.8460  -18.0650 O.co2 184  GLU184     -0.2457
     89  N        -11.4970   -3.5490  -15.3570 N.am  185  ASP185     -0.1974
     90  CA       -12.6670   -3.1520  -14.5820 C.3   185  ASP185      0.1709
     91  C        -12.8100   -1.6310  -14.6010 C.2   185  ASP185      0.2293
     92  O        -11.8340   -0.9030  -14.4020 O.2   185  ASP185     -0.2864
     93  CB       -12.5020   -3.5870  -13.1210 C.3   185  ASP185      0.1436
     94  CG       -12.3960   -5.1020  -12.9440 C.2   185  ASP185      0.3671
     95  OD1      -13.1470   -5.8510  -13.5900 O.co2 185  ASP185     -0.2456
     96  OD2      -11.5750   -5.5350  -12.1060 O.co2 185  ASP185     -0.2456
     97  N         -4.0900   -0.1440  -16.6540 N.3   190  SER190     -0.1217
     98  CA        -3.2990   -1.1420  -15.9280 C.3   190  SER190      0.1889
     99  C         -1.8330   -0.9830  -16.2860 C.2   190  SER190      0.2288
    100  O         -1.4740   -0.4310  -17.3270 O.2   190  SER190     -0.2866
    101  CB        -3.7510   -2.5930  -16.1690 C.3   190  SER190      0.2089
    102  OG        -3.4690   -3.0080  -17.4940 O.3   190  SER190     -0.2183
    103  N          1.8240   -3.4390  -16.0740 N.3   192  ASN192     -0.1240
    104  CA         2.2850   -4.8290  -15.9840 C.3   192  ASN192      0.1653
    105  C          3.8000   -4.8210  -16.1140 C.2   192  ASN192      0.2266
    106  O          4.3350   -4.2980  -17.1010 O.2   192  ASN192     -0.2867
    107  CB         1.6550   -5.7050  -17.1030 C.3   192  ASN192      0.1155
    108  CG         2.1010   -7.2060  -17.0640 C.2   192  ASN192      0.2627
    109  OD1        3.2880   -7.5480  -17.2420 O.2   192  ASN192     -0.2716
    110  ND2        1.1190   -8.1110  -16.8970 N.am  192  ASN192     -0.0877
    111  N          6.0750  -12.3640  -23.1240 N.3   200  LYS200     -0.1245
    112  CA         4.6240  -12.3350  -23.2320 C.3   200  LYS200      0.1561
    113  C          4.2570  -11.5350  -24.4730 C.2   200  LYS200      0.2260
    114  O          4.6930  -10.3900  -24.6160 O.2   200  LYS200     -0.2867
    115  CB         3.9980  -11.6670  -21.9950 C.3   200  LYS200      0.0271
    116  CG         2.4840  -11.5750  -22.0540 C.3   200  LYS200      0.0035
    117  CD         1.9070  -10.9090  -20.8020 C.3   200  LYS200      0.0206
    118  CE         1.6570  -11.9210  -19.6930 C.3   200  LYS200      0.1093
    119  NZ         2.7550  -12.2300  -18.7210 N.3   200  LYS200     -0.1314
    120  N          1.3930   -9.5880  -26.6940 N.3   202  TRP202     -0.1241
    121  CA         0.1620   -8.8350  -26.4730 C.3   202  TRP202      0.1605
    122  C         -0.4710   -8.4710  -27.8120 C.2   202  TRP202      0.2264
    123  O          0.2370   -8.1470  -28.7760 O.2   202  TRP202     -0.2867
    124  CB         0.4410   -7.4960  -25.7470 C.3   202  TRP202      0.0550
    125  CG         1.0220   -7.5830  -24.3430 C.ar  202  TRP202      0.0003
    126  CD1        2.2690   -8.0170  -23.9990 C.ar  202  TRP202      0.0946
    127  CD2        0.3870   -7.1740  -23.1180 C.ar  202  TRP202      0.0152
    128  NE1        2.4430   -7.9260  -22.6350 N.ar  202  TRP202     -0.2442
    129  CE2        1.3030   -7.4060  -22.0740 C.ar  202  TRP202      0.0810
    130  CE3       -0.8710   -6.6360  -22.8080 C.ar  202  TRP202      0.0012
    131  CZ2        1.0050   -7.1210  -20.7390 C.ar  202  TRP202      0.0191
    132  CZ3       -1.1680   -6.3530  -21.4900 C.ar  202  TRP202      0.0001
    133  CH2       -0.2350   -6.5940  -20.4680 C.ar  202  TRP202      0.0015
    134  N        -14.0930  -12.5070  -19.4450 N.3   235  LYS235     -0.1245
    135  CA       -12.7030  -12.8660  -19.7220 C.3   235  LYS235      0.1561
    136  C        -12.5510  -14.3430  -20.1020 C.2   235  LYS235      0.2260
    137  O        -11.7740  -15.0970  -19.5150 O.2   235  LYS235     -0.2867
    138  CB       -11.7990  -12.4380  -18.5610 C.3   235  LYS235      0.0271
    139  CG       -11.8920  -10.9310  -18.4180 C.3   235  LYS235      0.0035
    140  CD       -10.8860  -10.3520  -17.4870 C.3   235  LYS235      0.0206
    141  CE       -11.4300  -10.3590  -16.0920 C.3   235  LYS235      0.1093
    142  NZ       -10.5170   -9.6240  -15.2690 N.3   235  LYS235     -0.1314
    143  N         -7.4120   -5.8650  -24.8430 N.3   270  HIS270     -0.1241
    144  CA        -6.1550   -6.5920  -25.0130 C.3   270  HIS270      0.1621
    145  C         -6.3250   -8.0770  -24.7000 C.2   270  HIS270      0.2264
    146  O         -7.2380   -8.4890  -23.9810 O.2   270  HIS270     -0.2867
    147  CB        -5.0020   -5.9820  -24.1830 C.3   270  HIS270      0.0745
    148  CG        -5.3200   -5.8050  -22.7340 C.ar  270  HIS270      0.0817
    149  ND1       -6.1230   -4.7830  -22.2770 N.ar  270  HIS270     -0.2268
    150  CD2       -4.9320   -6.5010  -21.6380 C.ar  270  HIS270      0.1154
    151  CE1       -6.2360   -4.8710  -20.9610 C.ar  270  HIS270      0.1986
    152  NE2       -5.5240   -5.9020  -20.5480 N.ar  270  HIS270     -0.2212
    153  N          1.7570  -16.3360  -23.0520 N.3   274  ASN274     -0.1240
    154  CA         3.1290  -16.4550  -22.5680 C.3   274  ASN274      0.1653
    155  C          3.9200  -17.4760  -23.3850 C.2   274  ASN274      0.2266
    156  O          3.3830  -18.4900  -23.8500 O.2   274  ASN274     -0.2867
    157  CB         3.1510  -16.8620  -21.0920 C.3   274  ASN274      0.1155
    158  CG         2.5980  -15.7890  -20.1860 C.2   274  ASN274      0.2627
    159  OD1        2.9740  -14.6190  -20.2780 O.2   274  ASN274     -0.2716
    160  ND2        1.6920  -16.1800  -19.2950 N.am  274  ASN274     -0.0877
    161  N          5.0180  -12.2000  -13.6440 N.3   280  ALA280     -0.1245
    162  CA         4.6940  -10.8020  -13.8600 C.3   280  ALA280      0.1562
    163  C          3.9240  -10.2500  -12.6690 C.2   280  ALA280      0.2260
    164  O          3.3530  -10.9990  -11.8760 O.2   280  ALA280     -0.2867
    165  CB         3.8750  -10.6500  -15.1420 C.3   280  ALA280      0.0290
    166  N          1.1160   -6.8970  -11.7340 N.3   282  ALA282     -0.1245
    167  CA         0.2480   -5.8950  -12.3370 C.3   282  ALA282      0.1562
    168  C         -0.6250   -5.2310  -11.2770 C.2   282  ALA282      0.2260
    169  O         -0.8640   -5.7760  -10.1990 O.2   282  ALA282     -0.2867
    170  CB        -0.6230   -6.5080  -13.4440 C.3   282  ALA282      0.0290
    171  N         -4.0680   -2.0610  -11.2990 N.3   284  ASN284     -0.1240
    172  CA        -4.8080   -0.9980  -11.9740 C.3   284  ASN284      0.1653
    173  C         -4.4710    0.3610  -11.3610 C.2   284  ASN284      0.2266
    174  O         -4.1010    0.4680  -10.1830 O.2   284  ASN284     -0.2867
    175  CB        -6.3200   -1.2260  -11.8630 C.3   284  ASN284      0.1155
    176  CG        -6.7940   -2.4490  -12.6270 C.2   284  ASN284      0.2627
    177  OD1       -7.3780   -3.3670  -12.0510 O.2   284  ASN284     -0.2716
    178  ND2       -6.5730   -2.4580  -13.9240 N.am  284  ASN284     -0.0877
    179  N        -17.7950  -11.7230  -11.2910 N.3   306  ARG306     -0.1231
    180  CA       -17.6550  -11.3840   -9.8820 C.3   306  ARG306      0.1694
    181  C        -16.3690  -10.5800   -9.6910 C.2   306  ARG306      0.2592
    182  O        -15.2860  -11.0420  -10.0660 O.2   306  ARG306     -0.2718
    183  CB       -17.6120  -12.6780   -9.0680 C.3   306  ARG306      0.0321
    184  CG       -18.8980  -13.5170   -9.1260 C.3   306  ARG306      0.0489
    185  CD       -18.7460  -14.8020   -8.3140 C.3   306  ARG306      0.2205
    186  NE       -19.9360  -15.6530   -8.3380 N.pl3 306  ARG306     -0.0865
    187  CZ       -19.9950  -16.8640   -7.7860 C.cat 306  ARG306      0.5346
    188  NH1      -18.9320  -17.3690   -7.1710 N.pl3 306  ARG306      0.1354
    189  NH2      -21.1150  -17.5750   -7.8490 N.pl3 306  ARG306      0.1354
    190  N        -16.4810   -9.3780   -9.1130 N.am  307  VAL307     -0.1966
    191  CA       -15.3510   -8.4470   -9.0460 C.3   307  VAL307      0.1727
    192  C        -14.8040   -8.3060   -7.6300 C.2   307  VAL307      0.2616
    193  O        -15.1970   -9.0360   -6.7130 O.2   307  VAL307     -0.2715
    194  CB       -15.7090   -7.0480   -9.5940 C.3   307  VAL307      0.0290
    195  CG1      -16.1710   -7.1130  -11.0450 C.3   307  VAL307      0.0023
    196  CG2      -16.7400   -6.3630   -8.6980 C.3   307  VAL307      0.0023
    197  N        -13.8990   -7.3430   -7.4580 N.am  308  THR308     -0.1951
    198  CA       -13.3300   -6.9810   -6.1710 C.3   308  THR308      0.1897
    199  C        -14.2990   -6.0760   -5.4110 C.2   308  THR308      0.2313
    200  O        -15.1380   -5.3900   -5.9980 O.2   308  THR308     -0.2863
    201  CB       -11.9990   -6.2470   -6.3840 C.3   308  THR308      0.1794
    202  OG1      -12.2430   -4.9550   -6.9530 O.3   308  THR308     -0.2208
    203  CG2      -11.0850   -7.0340   -7.3250 C.3   308  THR308      0.0378
@<TRIPOS>BOND
     1   123   122    2
     2   122   121    1
     3   120   121    1
     4   121   124    1
     5   124   125    1
     6   144   143    1
     7   144   145    1
     8   144   147    1
     9   145   146    2
    10   114   113    2
    11   113   112    1
    12   125   126   ar
    13   125   127   ar
    14   147   148    1
    15    58    56    1
    16   126   128   ar
    17    57    56    1
    18   156   155    2
    19    62    61    2
    20   155   154    1
    21   112   111    1
    22   112   115    1
    23    70    71    1
    24    56    53    1
    25   127   130   ar
    26   127   129   ar
    27   153   154    1
    28   130   132   ar
    29   148   149   ar
    30   148   150   ar
    31   128   129   ar
    32   154   157    1
    33    73    72    2
    34    69    68   ar
    35    69    67   ar
    36    61    60    1
    37    68    66   ar
    38    53    54    1
    39    53    52    1
    40   149   151   ar
    41    48    47    2
    42    71    72    1
    43    71    74    1
    44   129   131   ar
    45    67    65   ar
    46   116   115    1
    47   116   117    1
    48    59    54   am
    49    59    60    1
    50    45    46    1
    51    66    64   ar
    52   150   152   ar
    53    47    52   am
    54    47    46    1
    55   132   133   ar
    56    54    55    2
    57    65    64   ar
    58    60    63    1
    59    64    63    1
    60   157   158    1
    61   151   152   ar
    62    46    49    1
    63    74    75    1
    64   117   118    1
    65    76    75   ar
    66    76    78   ar
    67   131   133   ar
    68   159   158    2
    69    75    77   ar
    70   158   160   am
    71    78    79   ar
    72   136   135    1
    73   136   137    2
    74   135   134    1
    75   135   138    1
    76   118   119    1
    77    49    50    1
    78    49    51    1
    79    77    79   ar
    80    80    81    1
    81   138   139    1
    82   139   140    1
    83    88    86   ar
    84   102   101    1
    85   140   141    1
    86   100    99    2
    87    85    86    1
    88    85    84    1
    89    81    84    1
    90    81    82    1
    91   109   108    2
    92    83    82    2
    93   107   108    1
    94   107   104    1
    95   106   105    2
    96    86    87   ar
    97   108   110   am
    98    97    98    1
    99    82    89   am
   100    99    98    1
   101   101    98    1
   102   105   104    1
   103   141   142    1
   104   103   104    1
   105    12    11    1
   106    10    11   ar
   107    10     8   ar
   108    11     9   ar
   109     8     6   ar
   110     9     7   ar
   111     6     7   ar
   112     6     5    1
   113     5     2    1
   114    89    90    1
   115   165   162    1
   116     1     2    1
   117    91    90    1
   118    91    92    2
   119    90    93    1
   120     2     3    1
   121   178   176   am
   122   162   161    1
   123   162   163    1
   124    40    42   ar
   125    40    38   ar
   126    42    43   ar
   127    95    94   ar
   128    37    38    1
   129    37    34    1
   130   170   167    1
   131    38    39   ar
   132    43    44    1
   133    43    41   ar
   134    93    94    1
   135     3     4    2
   136    94    96   ar
   137    39    41   ar
   138    36    35    2
   139   163   164    2
   140   176   177    2
   141   176   175    1
   142    35    34    1
   143   167   166    1
   144   167   168    1
   145    34    33    1
   146   172   175    1
   147   172   173    1
   148   172   171    1
   149    19    18   ar
   150    20    18   ar
   151   173   174    2
   152   179   180    1
   153   168   169    2
   154   195   194    1
   155    18    17    1
   156    13    14    1
   157   182   181    2
   158   180   181    1
   159   180   183    1
   160    24    23    2
   161   181   190   am
   162   194   191    1
   163   194   196    1
   164    17    14    1
   165    14    15    1
   166   184   183    1
   167   184   185    1
   168   190   191    1
   169   191   192    1
   170    23    22    1
   171    25    22    1
   172    25    26    1
   173   186   185    1
   174   186   187    2
   175    22    21    1
   176    15    16    2
   177    27    26   ar
   178    27    29   ar
   179    26    28   ar
   180   189   187    1
   181   187   188    1
   182   192   197   am
   183   192   193    2
   184   197   198    1
   185   203   201    1
   186    29    31   ar
   187    28    30   ar
   188   202   201    1
   189    31    30   ar
   190    31    32    1
   191   201   198    1
   192   198   199    1
   193   200   199    2
