@<TRIPOS>MOLECULE
tmp/6f5tA00.pdb
 166 157 0 0 0
SMALL
GASTEIGER

@<TRIPOS>ATOM
      1  N         -2.1500  -22.2100  -14.8640 N.3   126  TYR126     -0.1241
      2  CA        -2.0350  -20.7390  -14.6930 C.3   126  TYR126      0.1605
      3  C         -2.1130  -20.4030  -13.1960 C.2   126  TYR126      0.2264
      4  O         -2.9520  -20.9770  -12.5010 O.2   126  TYR126     -0.2867
      5  CB        -3.2290  -20.0470  -15.4700 C.3   126  TYR126      0.0534
      6  CG        -3.4110  -18.5070  -15.6310 C.ar  126  TYR126     -0.0201
      7  CD1       -2.3480  -17.6090  -15.6590 C.ar  126  TYR126     -0.0009
      8  CD2       -4.6960  -17.9780  -15.8440 C.ar  126  TYR126     -0.0009
      9  CE1       -2.5720  -16.1860  -15.8690 C.ar  126  TYR126      0.0417
     10  CE2       -4.9270  -16.5970  -16.0330 C.ar  126  TYR126      0.0417
     11  CZ        -3.8760  -15.6970  -16.0580 C.ar  126  TYR126      0.1957
     12  OH        -4.1700  -14.3270  -16.2650 O.3   126  TYR126     -0.2866
     13  N         -3.8550  -13.7040  -10.4000 N.3   129  ASP129     -0.1239
     14  CA        -4.4800  -12.7870   -9.4400 C.3   129  ASP129      0.1674
     15  C         -4.0960  -13.1530   -7.9930 C.2   129  ASP129      0.2266
     16  O         -4.9340  -13.2070   -7.0890 O.2   129  ASP129     -0.2867
     17  CB        -6.0030  -12.7630   -9.6070 C.3   129  ASP129      0.1410
     18  CG        -6.4330  -12.4680  -10.9980 C.2   129  ASP129      0.3668
     19  OD1       -5.8050  -11.6160  -11.6560 O.co2 129  ASP129     -0.2456
     20  OD2       -7.4060  -13.1010  -11.4400 O.co2 129  ASP129     -0.2456
     21  N         -0.9280   -7.6600   -7.7570 N.3   169  TYR169     -0.1241
     22  CA        -1.1200   -9.1030   -7.8490 C.3   169  TYR169      0.1605
     23  C         -0.0770   -9.7300   -8.7870 C.2   169  TYR169      0.2264
     24  O          0.5190   -9.0650   -9.6260 O.2   169  TYR169     -0.2867
     25  CB        -2.5390   -9.4640   -8.2780 C.3   169  TYR169      0.0534
     26  CG        -3.1640   -8.4400   -9.1320 C.ar  169  TYR169     -0.0201
     27  CD1       -3.7830   -7.2950   -8.5720 C.ar  169  TYR169     -0.0009
     28  CD2       -3.1700   -8.5920  -10.5080 C.ar  169  TYR169     -0.0009
     29  CE1       -4.3690   -6.3280   -9.4010 C.ar  169  TYR169      0.0417
     30  CE2       -3.7470   -7.6410  -11.3310 C.ar  169  TYR169      0.0417
     31  CZ        -4.3450   -6.5210  -10.7870 C.ar  169  TYR169      0.1957
     32  OH        -4.9170   -5.6120  -11.6470 O.3   169  TYR169     -0.2866
     33  N          1.2130  -13.1020  -11.2800 N.3   171  TYR171     -0.1241
     34  CA         0.8340  -14.1260  -12.2440 C.3   171  TYR171      0.1605
     35  C          2.0290  -15.0270  -12.5090 C.2   171  TYR171      0.2264
     36  O          3.1630  -14.5420  -12.6630 O.2   171  TYR171     -0.2867
     37  CB         0.3800  -13.5670  -13.5970 C.3   171  TYR171      0.0534
     38  CG        -0.7320  -12.5820  -13.5440 C.ar  171  TYR171     -0.0201
     39  CD1       -0.4670  -11.2390  -13.2920 C.ar  171  TYR171     -0.0009
     40  CD2       -2.0490  -12.9750  -13.7600 C.ar  171  TYR171     -0.0009
     41  CE1       -1.4790  -10.3240  -13.2560 C.ar  171  TYR171      0.0417
     42  CE2       -3.0730  -12.0570  -13.6890 C.ar  171  TYR171      0.0417
     43  CZ        -2.7760  -10.7360  -13.4590 C.ar  171  TYR171      0.1957
     44  OH        -3.7800   -9.8080  -13.4430 O.3   171  TYR171     -0.2866
     45  N         -0.1250  -20.5440  -21.7320 N.3   177  THR177     -0.1218
     46  CA        -1.0030  -19.8220  -20.8020 C.3   177  THR177      0.1862
     47  C         -1.5160  -18.5540  -21.4890 C.2   177  THR177      0.2287
     48  O         -0.7410  -17.8300  -22.1250 O.2   177  THR177     -0.2866
     49  CB        -0.2340  -19.4540  -19.5350 C.3   177  THR177      0.1770
     50  OG1        0.1280  -20.6280  -18.7980 O.3   177  THR177     -0.2211
     51  CG2       -1.0350  -18.5600  -18.6140 C.3   177  THR177      0.0375
     52  N         -4.3030  -15.0540  -21.7380 N.3   179  PHE179     -0.1241
     53  CA        -5.2790  -14.0920  -21.2220 C.3   179  PHE179      0.1605
     54  C         -6.2250  -13.6980  -22.3510 C.2   179  PHE179      0.2264
     55  O         -5.7910  -13.3910  -23.4720 O.2   179  PHE179     -0.2867
     56  CB        -4.6370  -12.8770  -20.4830 C.3   179  PHE179      0.0534
     57  CG        -3.5960  -12.1270  -21.2020 C.ar  179  PHE179     -0.0203
     58  CD1       -2.2860  -12.5920  -21.2030 C.ar  179  PHE179     -0.0042
     59  CD2       -3.8660  -10.8480  -21.7540 C.ar  179  PHE179     -0.0042
     60  CE1       -1.2840  -11.8670  -21.8800 C.ar  179  PHE179     -0.0003
     61  CE2       -2.8650  -10.1200  -22.4030 C.ar  179  PHE179     -0.0003
     62  CZ        -1.5770  -10.6420  -22.4560 C.ar  179  PHE179     -0.0000
     63  N        -10.1510   -8.6140  -23.2090 N.3   182  HIS182     -0.1241
     64  CA       -10.8850   -7.8550  -22.1810 C.3   182  HIS182      0.1621
     65  C        -10.3450   -6.4140  -22.1320 C.2   182  HIS182      0.2264
     66  O         -9.2300   -6.1210  -22.5770 O.2   182  HIS182     -0.2867
     67  CB       -10.7310   -8.5390  -20.7900 C.3   182  HIS182      0.0745
     68  CG        -9.3370   -8.4750  -20.2590 C.ar  182  HIS182      0.0817
     69  ND1       -8.3100   -9.2510  -20.7580 N.ar  182  HIS182     -0.2268
     70  CD2       -8.7750   -7.6550  -19.3400 C.ar  182  HIS182      0.1154
     71  CE1       -7.1770   -8.9150  -20.1640 C.ar  182  HIS182      0.1986
     72  NE2       -7.4340   -7.9620  -19.2840 N.ar  182  HIS182     -0.2212
     73  N        -10.0690   -3.4540  -18.7240 N.3   184  GLU184     -0.1231
     74  CA       -10.0550   -3.5820  -17.2650 C.3   184  GLU184      0.1699
     75  C        -11.4150   -3.2250  -16.6540 C.2   184  GLU184      0.2592
     76  O        -12.2550   -2.5740  -17.2870 O.2   184  GLU184     -0.2718
     77  CB        -8.9600   -2.7030  -16.6770 C.3   184  GLU184      0.0402
     78  CG        -7.5700   -2.9950  -17.2020 C.3   184  GLU184      0.1161
     79  CD        -7.1490   -4.4210  -17.0160 C.2   184  GLU184      0.3649
     80  OE1       -7.1780   -4.8410  -15.8660 O.co2 184  GLU184     -0.2457
     81  OE2       -6.7950   -5.1130  -18.0030 O.co2 184  GLU184     -0.2457
     82  N        -11.6310   -3.6850  -15.3980 N.am  185  ASP185     -0.1974
     83  CA       -12.8000   -3.2600  -14.6470 C.3   185  ASP185      0.1709
     84  C        -12.9110   -1.7320  -14.6930 C.2   185  ASP185      0.2293
     85  O        -11.9140   -1.0220  -14.4700 O.2   185  ASP185     -0.2864
     86  CB       -12.7180   -3.6420  -13.1710 C.3   185  ASP185      0.1436
     87  CG       -12.6460   -5.1210  -12.9150 C.2   185  ASP185      0.3671
     88  OD1      -13.3130   -5.8980  -13.6190 O.co2 185  ASP185     -0.2456
     89  OD2      -11.9300   -5.4600  -11.9370 O.co2 185  ASP185     -0.2456
     90  N         -4.0460   -0.3340  -16.6660 N.3   190  SER190     -0.1217
     91  CA        -3.2620   -1.2930  -15.8920 C.3   190  SER190      0.1889
     92  C         -1.7970   -1.1110  -16.2460 C.2   190  SER190      0.2288
     93  O         -1.4450   -0.5540  -17.2870 O.2   190  SER190     -0.2866
     94  CB        -3.6690   -2.7500  -16.1020 C.3   190  SER190      0.2089
     95  OG        -3.3900   -3.1490  -17.4340 O.3   190  SER190     -0.2183
     96  N          1.8480   -3.5470  -16.0350 N.3   192  ASN192     -0.1240
     97  CA         2.2910   -4.9350  -15.9150 C.3   192  ASN192      0.1653
     98  C          3.8110   -4.9470  -16.0420 C.2   192  ASN192      0.2266
     99  O          4.3740   -4.3860  -17.0100 O.2   192  ASN192     -0.2867
    100  CB         1.6210   -5.8170  -17.0320 C.3   192  ASN192      0.1155
    101  CG         2.0520   -7.3100  -16.9850 C.2   192  ASN192      0.2627
    102  OD1        3.2140   -7.6540  -17.1610 O.2   192  ASN192     -0.2716
    103  ND2        1.1020   -8.1730  -16.7570 N.am  192  ASN192     -0.0877
    104  N          6.1900  -12.6400  -23.0540 N.3   200  LYS200     -0.1245
    105  CA         4.7340  -12.5650  -23.1060 C.3   200  LYS200      0.1561
    106  C          4.3740  -11.7760  -24.3590 C.2   200  LYS200      0.2260
    107  O          4.8570  -10.6530  -24.5400 O.2   200  LYS200     -0.2867
    108  CB         4.2010  -11.8730  -21.8460 C.3   200  LYS200      0.0271
    109  CG         2.7190  -12.0760  -21.5470 C.3   200  LYS200      0.0035
    110  CD         2.2650  -11.2400  -20.3200 C.3   200  LYS200      0.0206
    111  CE         3.1080  -11.4840  -19.0380 C.3   200  LYS200      0.1093
    112  NZ         3.7440  -10.2100  -18.5070 N.3   200  LYS200     -0.1314
    113  N          1.4980   -9.8050  -26.5960 N.3   202  TRP202     -0.1241
    114  CA         0.2850   -9.0330  -26.4210 C.3   202  TRP202      0.1605
    115  C         -0.3300   -8.6800  -27.7690 C.2   202  TRP202      0.2264
    116  O          0.3920   -8.3670  -28.7260 O.2   202  TRP202     -0.2867
    117  CB         0.5780   -7.7030  -25.7050 C.3   202  TRP202      0.0550
    118  CG         1.1500   -7.7900  -24.2800 C.ar  202  TRP202      0.0003
    119  CD1        2.3770   -8.2490  -23.9080 C.ar  202  TRP202      0.0946
    120  CD2        0.4850   -7.4060  -23.0810 C.ar  202  TRP202      0.0152
    121  NE1        2.5180   -8.1730  -22.5370 N.ar  202  TRP202     -0.2442
    122  CE2        1.3580   -7.6600  -22.0050 C.ar  202  TRP202      0.0810
    123  CE3       -0.7700   -6.8910  -22.8190 C.ar  202  TRP202      0.0012
    124  CZ2        0.9980   -7.4020  -20.6510 C.ar  202  TRP202      0.0191
    125  CZ3       -1.1400   -6.6050  -21.5020 C.ar  202  TRP202      0.0001
    126  CH2       -0.2500   -6.8560  -20.4250 C.ar  202  TRP202      0.0015
    127  N        -13.9090  -12.7090  -19.3430 N.3   235  LYS235     -0.1245
    128  CA       -12.5230  -13.0970  -19.6230 C.3   235  LYS235      0.1561
    129  C        -12.4360  -14.5540  -20.0640 C.2   235  LYS235      0.2260
    130  O        -11.7110  -15.3660  -19.5080 O.2   235  LYS235     -0.2867
    131  CB       -11.6240  -12.8260  -18.4140 C.3   235  LYS235      0.0271
    132  CG       -11.4560  -11.3670  -18.1210 C.3   235  LYS235      0.0035
    133  CD       -10.3220  -11.1640  -17.1000 C.3   235  LYS235      0.0206
    134  CE       -10.3170   -9.7930  -16.5750 C.3   235  LYS235      0.1093
    135  NZ        -9.4090   -9.7010  -15.4070 N.3   235  LYS235     -0.1314
    136  N         -7.3090   -6.0100  -24.7840 N.3   270  HIS270     -0.1241
    137  CA        -6.0630   -6.7620  -24.9390 C.3   270  HIS270      0.1621
    138  C         -6.2530   -8.2530  -24.6130 C.2   270  HIS270      0.2264
    139  O         -7.2120   -8.6650  -23.9440 O.2   270  HIS270     -0.2867
    140  CB        -4.9230   -6.1460  -24.0900 C.3   270  HIS270      0.0745
    141  CG        -5.2560   -5.9870  -22.6320 C.ar  270  HIS270      0.0817
    142  ND1       -6.0780   -4.9730  -22.1730 N.ar  270  HIS270     -0.2268
    143  CD2       -4.8470   -6.6610  -21.5350 C.ar  270  HIS270      0.1154
    144  CE1       -6.1680   -5.0400  -20.8550 C.ar  270  HIS270      0.1986
    145  NE2       -5.4230   -6.0480  -20.4490 N.ar  270  HIS270     -0.2212
    146  N          1.8330  -16.5800  -22.9760 N.3   274  ASN274     -0.1240
    147  CA         3.1990  -16.7260  -22.4950 C.3   274  ASN274      0.1653
    148  C          3.9940  -17.7270  -23.3370 C.2   274  ASN274      0.2266
    149  O          3.4500  -18.7220  -23.8340 O.2   274  ASN274     -0.2867
    150  CB         3.2200  -17.1610  -21.0520 C.3   274  ASN274      0.1155
    151  CG         2.6410  -16.1450  -20.1370 C.2   274  ASN274      0.2627
    152  OD1        2.9810  -14.9840  -20.1970 O.2   274  ASN274     -0.2716
    153  ND2        1.7140  -16.5780  -19.2820 N.am  274  ASN274     -0.0877
    154  N          7.1760  -17.9640  -16.6560 N.3   278  ASN278     -0.1240
    155  CA         7.5180  -16.6090  -16.2820 C.3   278  ASN278      0.1653
    156  C          6.6890  -16.1500  -15.0800 C.2   278  ASN278      0.2266
    157  O          5.8030  -16.8600  -14.5960 O.2   278  ASN278     -0.2867
    158  CB         7.3620  -15.6360  -17.4490 C.3   278  ASN278      0.1155
    159  CG         5.9240  -15.6090  -18.0690 C.2   278  ASN278      0.2627
    160  OD1        4.9250  -15.9480  -17.4300 O.2   278  ASN278     -0.2716
    161  ND2        5.8510  -15.1760  -19.3170 N.am  278  ASN278     -0.0877
    162  N          4.9950  -12.3800  -13.5930 N.3   280  ALA280     -0.1245
    163  CA         4.6350  -10.9810  -13.8060 C.3   280  ALA280      0.1562
    164  C          3.8700  -10.4360  -12.5990 C.2   280  ALA280      0.2260
    165  O          3.2740  -11.1900  -11.8300 O.2   280  ALA280     -0.2867
    166  CB         3.8030  -10.8330  -15.0860 C.3   280  ALA280      0.0290
@<TRIPOS>BOND
     1   116   115    2
     2   115   114    1
     3   113   114    1
     4   114   117    1
     5   117   118    1
     6   137   136    1
     7   137   138    1
     8   137   140    1
     9   138   139    2
    10   107   106    2
    11   106   105    1
    12   118   119   ar
    13   118   120   ar
    14   140   141    1
    15   119   121   ar
    16   149   148    2
    17    55    54    2
    18   148   147    1
    19    63    64    1
    20   105   104    1
    21   105   108    1
    22   120   123   ar
    23   120   122   ar
    24   146   147    1
    25   123   125   ar
    26   141   142   ar
    27   141   143   ar
    28    66    65    2
    29   121   122   ar
    30   147   150    1
    31    62    61   ar
    32    62    60   ar
    33    61    59   ar
    34    54    53    1
    35    64    65    1
    36    64    67    1
    37   142   144   ar
    38    48    47    2
    39   122   124   ar
    40    60    58   ar
    41   108   109    1
    42    59    57   ar
    43    52    53    1
    44    45    46    1
    45   109   110    1
    46   143   145   ar
    47   125   126   ar
    48    47    46    1
    49    53    56    1
    50    58    57   ar
    51    57    56    1
    52   150   151    1
    53   144   145   ar
    54    46    49    1
    55    67    68    1
    56    69    68   ar
    57    69    71   ar
    58   124   126   ar
    59   110   111    1
    60    68    70   ar
    61   152   151    2
    62    71    72   ar
    63   151   153   am
    64   129   128    1
    65   129   130    2
    66   128   127    1
    67   128   131    1
    68    49    50    1
    69    49    51    1
    70    70    72   ar
    71   161   159   am
    72   111   112    1
    73    73    74    1
    74   131   132    1
    75   132   133    1
    76   159   158    1
    77   159   160    2
    78    81    79   ar
    79   158   155    1
    80    95    94    1
    81    76    75    2
    82    93    92    2
    83    74    77    1
    84    74    75    1
    85    78    79    1
    86    78    77    1
    87   102   101    2
    88   133   134    1
    89   100   101    1
    90   100    97    1
    91    79    80   ar
    92    99    98    2
    93   101   103   am
    94    90    91    1
    95   154   155    1
    96    75    82   am
    97   134   135    1
    98   155   156    1
    99    12    11    1
   100    92    91    1
   101    94    91    1
   102    11    10   ar
   103    11     9   ar
   104    98    97    1
   105    96    97    1
   106    10     8   ar
   107     9     7   ar
   108     8     6   ar
   109     7     6   ar
   110     6     5    1
   111     5     2    1
   112    82    83    1
   113   166   163    1
   114   156   157    2
   115     1     2    1
   116     2     3    1
   117    84    83    1
   118    84    85    2
   119    83    86    1
   120   163   162    1
   121   163   164    1
   122    40    42   ar
   123    40    38   ar
   124    42    43   ar
   125    88    87   ar
   126    37    38    1
   127    37    34    1
   128    38    39   ar
   129    43    44    1
   130    43    41   ar
   131    39    41   ar
   132     3     4    2
   133    86    87    1
   134    87    89   ar
   135    36    35    2
   136   164   165    2
   137    35    34    1
   138    34    33    1
   139    19    18   ar
   140    32    31    1
   141    20    18   ar
   142    30    31   ar
   143    30    28   ar
   144    18    17    1
   145    31    29   ar
   146    28    26   ar
   147    13    14    1
   148    24    23    2
   149    17    14    1
   150    14    15    1
   151    29    27   ar
   152    26    27   ar
   153    26    25    1
   154    23    22    1
   155    25    22    1
   156    15    16    2
   157    22    21    1
