@<TRIPOS>MOLECULE
tmp/6f5uA02.pdb
 96 90 0 0 0
SMALL
GASTEIGER

@<TRIPOS>ATOM
      1  N        -53.2360   11.9810    2.3570 N.3     7  ILE7       -0.1245
      2  CA       -52.6420   10.7980    2.9670 C.3     7  ILE7        0.1561
      3  C        -52.9660   10.8170    4.4560 C.2     7  ILE7        0.2260
      4  O        -52.5120   11.7000    5.1910 O.2     7  ILE7       -0.2867
      5  CB       -51.1280   10.7390    2.7180 C.3     7  ILE7        0.0252
      6  CG1      -50.8460   10.5140    1.2310 C.3     7  ILE7        0.0019
      7  CG2      -50.4860    9.6480    3.5670 C.3     7  ILE7        0.0019
      8  CD1      -49.3850   10.6640    0.8540 C.3     7  ILE7        0.0001
      9  N        -53.8500    6.5500    1.0580 N.3    12  LEU12      -0.1245
     10  CA       -54.4400    7.6420    0.3180 C.3    12  LEU12       0.1561
     11  C        -55.9400    7.6110    0.5190 C.2    12  LEU12       0.2260
     12  O        -56.5550    6.5540    0.5050 O.2    12  LEU12      -0.2867
     13  CB       -54.1020    7.5400   -1.1650 C.3    12  LEU12       0.0270
     14  CG       -54.4230    8.7750   -2.0020 C.3    12  LEU12       0.0019
     15  CD1      -53.4570    9.8990   -1.6810 C.3    12  LEU12       0.0001
     16  CD2      -54.3830    8.4430   -3.4800 C.3    12  LEU12       0.0001
     17  N        -51.1370   19.6060   -5.9260 N.3    33  ARG33      -0.1245
     18  CA       -50.6350   19.0980   -7.1950 C.3    33  ARG33       0.1563
     19  C        -51.7760   18.5430   -8.0340 C.2    33  ARG33       0.2260
     20  O        -52.7160   17.9460   -7.5030 O.2    33  ARG33      -0.2867
     21  CB       -49.5860   17.9960   -6.9850 C.3    33  ARG33       0.0307
     22  CG       -48.4250   18.3910   -6.0950 C.3    33  ARG33       0.0489
     23  CD       -47.4880   19.3650   -6.7860 C.3    33  ARG33       0.2205
     24  NE       -46.5150   19.9230   -5.8520 N.pl3  33  ARG33      -0.0865
     25  CZ       -45.4400   19.2740   -5.4170 C.cat  33  ARG33       0.5346
     26  NH1      -45.1950   18.0380   -5.8290 N.pl3  33  ARG33       0.1354
     27  NH2      -44.6080   19.8600   -4.5670 N.pl3  33  ARG33       0.1354
     28  N        -52.1440   15.9070  -11.3170 N.3    35  VAL35      -0.1231
     29  CA       -51.3420   14.8610  -11.9370 C.3    35  VAL35       0.1692
     30  C        -52.1930   14.0790  -12.9290 C.2    35  VAL35       0.2593
     31  O        -53.4000   13.9020  -12.7380 O.2    35  VAL35      -0.2718
     32  CB       -50.7320   13.9130  -10.8820 C.3    35  VAL35       0.0266
     33  CG1      -49.7570   14.6680   -9.9830 C.3    35  VAL35       0.0020
     34  CG2      -51.8300   13.2550  -10.0550 C.3    35  VAL35       0.0020
     35  N        -51.5460   13.6040  -13.9900 N.am   36  GLY36      -0.1942
     36  CA       -52.1940   12.8040  -15.0140 C.3    36  GLY36       0.2014
     37  C        -51.7150   11.3620  -14.9480 C.2    36  GLY36       0.2638
     38  O        -50.5120   11.0990  -14.9070 O.2    36  GLY36      -0.2714
     39  N        -52.6750   10.4410  -14.9330 N.am   37  LEU37      -0.1977
     40  CA       -52.4060    9.0110  -14.8730 C.3    37  LEU37       0.1596
     41  C        -52.9180    8.3510  -16.1440 C.2    37  LEU37       0.2287
     42  O        -54.0320    8.6330  -16.5900 O.2    37  LEU37      -0.2864
     43  CB       -53.0670    8.3640  -13.6460 C.3    37  LEU37       0.0297
     44  CG       -52.4680    8.5990  -12.2520 C.3    37  LEU37       0.0022
     45  CD1      -51.0000    8.1960  -12.2150 C.3    37  LEU37       0.0001
     46  CD2      -52.6510   10.0390  -11.7800 C.3    37  LEU37       0.0001
     47  N        -49.9010   19.2310  -13.8500 N.3    69  GLU69      -0.1231
     48  CA       -48.5060   19.6200  -13.6710 C.3    69  GLU69       0.1699
     49  C        -47.5170   18.4930  -13.9290 C.2    69  GLU69       0.2592
     50  O        -46.3860   18.7600  -14.3530 O.2    69  GLU69      -0.2718
     51  CB       -48.2930   20.1590  -12.2540 C.3    69  GLU69       0.0402
     52  CG       -49.1800   21.3430  -11.9080 C.3    69  GLU69       0.1161
     53  CD       -49.1740   21.6600  -10.4250 C.2    69  GLU69       0.3649
     54  OE1      -49.2140   22.8570  -10.0690 O.co2  69  GLU69      -0.2457
     55  OE2      -49.1260   20.7110   -9.6140 O.co2  69  GLU69      -0.2457
     56  N        -47.9010   17.2450  -13.6780 N.am   70  ALA70      -0.1966
     57  CA       -46.9850   16.1250  -13.8180 C.3    70  ALA70       0.1728
     58  C        -47.7220   14.9360  -14.4090 C.2    70  ALA70       0.2617
     59  O        -48.9260   14.7650  -14.2010 O.2    70  ALA70      -0.2715
     60  CB       -46.3620   15.7350  -12.4740 C.3    70  ALA70       0.0334
     61  N        -46.9840   14.1100  -15.1420 N.am   71  GLY71      -0.1940
     62  CA       -47.5800   12.9520  -15.7720 C.3    71  GLY71       0.2014
     63  C        -46.7400   11.6990  -15.6650 C.2    71  GLY71       0.2638
     64  O        -45.7140   11.6780  -14.9810 O.2    71  GLY71      -0.2714
     65  N        -47.1680   10.6520  -16.3580 N.am   72  GLU72      -0.1977
     66  CA       -46.5330    9.3440  -16.3100 C.3    72  GLU72       0.1602
     67  C        -45.9370    9.0170  -17.6720 C.2    72  GLU72       0.2287
     68  O        -46.5620    9.2740  -18.7060 O.2    72  GLU72      -0.2864
     69  CB       -47.5570    8.2790  -15.9030 C.3    72  GLU72       0.0415
     70  CG       -47.0200    6.8640  -15.7670 C.3    72  GLU72       0.1163
     71  CD       -48.0830    5.8890  -15.2860 C.2    72  GLU72       0.3649
     72  OE1      -47.7190    4.7950  -14.8040 O.co2  72  GLU72      -0.2457
     73  OE2      -49.2850    6.2250  -15.3840 O.co2  72  GLU72      -0.2457
     74  N        -54.0660   16.4210   -5.5850 N.3   153  LEU153     -0.1245
     75  CA       -53.4440   15.9640   -4.3540 C.3   153  LEU153      0.1561
     76  C        -53.0730   17.1420   -3.4670 C.2   153  LEU153      0.2260
     77  O        -52.7010   18.2150   -3.9520 O.2   153  LEU153     -0.2867
     78  CB       -52.1750   15.1460   -4.6360 C.3   153  LEU153      0.0270
     79  CG       -52.2830   13.9110   -5.5290 C.3   153  LEU153      0.0019
     80  CD1      -50.9010   13.4140   -5.9240 C.3   153  LEU153      0.0001
     81  CD2      -53.0570   12.8170   -4.8170 C.3   153  LEU153      0.0001
     82  N        -50.2120   17.2860   -0.7340 N.3   155  LEU155     -0.1231
     83  CA       -49.0840   16.5190   -0.2350 C.3   155  LEU155      0.1678
     84  C        -48.6840   16.9890    1.1550 C.2   155  LEU155      0.2434
     85  O        -48.9990   18.1120    1.5610 O.2   155  LEU155     -0.2733
     86  CB       -47.8970   16.6570   -1.1860 C.3   155  LEU155      0.0284
     87  CG       -48.1020   16.3210   -2.6620 C.3   155  LEU155      0.0019
     88  CD1      -46.8120   16.5530   -3.4270 C.3   155  LEU155      0.0001
     89  CD2      -48.5710   14.8870   -2.8300 C.3   155  LEU155      0.0001
     90  N        -47.9930   16.1460    1.9170 N.am  156  PRO156     -0.2729
     91  CA       -47.4350   16.5980    3.1940 C.3   156  PRO156      0.1401
     92  C        -46.3430   17.6340    2.9810 C.2   156  PRO156      0.2269
     93  O        -45.7810   17.7750    1.8920 O.2   156  PRO156     -0.2865
     94  CB       -46.8710   15.3150    3.8160 C.3   156  PRO156      0.0296
     95  CG       -47.6030   14.2060    3.1320 C.3   156  PRO156      0.0237
     96  CD       -47.8430   14.6920    1.7360 C.3   156  PRO156      0.0939
@<TRIPOS>BOND
     1    68    67    2
     2    67    66    1
     3    42    41    2
     4    65    66    1
     5    65    63   am
     6    66    69    1
     7    41    40    1
     8    69    70    1
     9    62    63    1
    10    62    61    1
    11    70    71    1
    12    63    64    2
    13    73    71   ar
    14    71    72   ar
    15    61    58   am
    16    36    37    1
    17    36    35    1
    18    37    39   am
    19    37    38    2
    20    39    40    1
    21    40    43    1
    22    58    59    2
    23    58    57    1
    24    50    49    2
    25    35    30   am
    26    49    56   am
    27    49    48    1
    28    47    48    1
    29    57    56    1
    30    57    60    1
    31    48    51    1
    32    43    44    1
    33    30    31    2
    34    30    29    1
    35    51    52    1
    36    44    45    1
    37    44    46    1
    38    29    28    1
    39    29    32    1
    40    52    53    1
    41    32    34    1
    42    32    33    1
    43    53    54   ar
    44    53    55   ar
    45    19    20    2
    46    19    18    1
    47    18    21    1
    48    18    17    1
    49    21    22    1
    50    23    22    1
    51    23    24    1
    52    80    79    1
    53    24    25    2
    54    26    25    1
    55    74    75    1
    56    79    81    1
    57    79    78    1
    58    25    27    1
    59    78    75    1
    60    75    76    1
    61    77    76    2
    62    16    14    1
    63    88    87    1
    64    89    87    1
    65    87    86    1
    66    14    15    1
    67    14    13    1
    68    86    83    1
    69    13    10    1
    70    82    83    1
    71    83    84    1
    72    10    11    1
    73    10     9    1
    74    12    11    2
    75     8     6    1
    76    84    85    2
    77    84    90   am
    78     6     5    1
    79    96    90    1
    80    96    95    1
    81    93    92    2
    82    90    91    1
    83     1     2    1
    84     5     2    1
    85     5     7    1
    86     2     3    1
    87    92    91    1
    88    95    94    1
    89    91    94    1
    90     3     4    2
