@<TRIPOS>MOLECULE
tmp/6f5vB01.pdb
 98 94 0 0 0
SMALL
GASTEIGER

@<TRIPOS>ATOM
      1  N         29.2560   19.4340   29.7870 N.3    38  ALA38      -0.1231
      2  CA        28.0470   19.5940   29.0040 C.3    38  ALA38       0.1694
      3  C         28.1950   20.5490   27.8290 C.2    38  ALA38       0.2592
      4  O         27.3220   20.6070   26.9710 O.2    38  ALA38      -0.2718
      5  CB        26.9080   20.0510   29.9030 C.3    38  ALA38       0.0304
      6  N         29.2850   21.3100   27.7980 N.am   39  ALA39      -0.1966
      7  CA        29.4490   22.3540   26.7830 C.3    39  ALA39       0.1728
      8  C         29.7410   21.7950   25.3890 C.2    39  ALA39       0.2617
      9  O         30.4660   20.8140   25.2320 O.2    39  ALA39      -0.2715
     10  CB        30.5390   23.3400   27.2010 C.3    39  ALA39       0.0334
     11  N         29.1550   22.4170   24.3790 N.am   40  GLY40      -0.1940
     12  CA        29.3740   21.9910   23.0140 C.3    40  GLY40       0.2014
     13  C         30.3070   22.9510   22.3160 C.2    40  GLY40       0.2638
     14  O         29.9670   23.5090   21.2780 O.2    40  GLY40      -0.2714
     15  N         31.4980   23.1360   22.8800 N.am   41  GLU41      -0.1977
     16  CA        32.4560   24.0710   22.3100 C.3    41  GLU41       0.1602
     17  C         33.8680   23.7260   22.7540 C.2    41  GLU41       0.2287
     18  O         34.0660   23.1550   23.8400 O.2    41  GLU41      -0.2864
     19  CB        32.1180   25.5200   22.6940 C.3    41  GLU41       0.0415
     20  CG        32.4860   25.8780   24.1180 C.3    41  GLU41       0.1163
     21  CD        32.1880   27.3300   24.4620 C.2    41  GLU41       0.3649
     22  OE1       32.2030   28.1830   23.5500 O.co2  41  GLU41      -0.2457
     23  OE2       31.9390   27.6110   25.6500 O.co2  41  GLU41      -0.2457
     24  N         24.9920   27.7390   12.5950 N.3   102  LYS102     -0.1245
     25  CA        23.5870   27.4970   12.9560 C.3   102  LYS102      0.1561
     26  C         22.6640   28.3270   12.0560 C.2   102  LYS102      0.2260
     27  O         21.6490   27.8350   11.5650 O.2   102  LYS102     -0.2867
     28  CB        23.2870   27.8040   14.4300 C.3   102  LYS102      0.0271
     29  CG        21.7950   27.5700   14.7700 C.3   102  LYS102      0.0035
     30  CD        21.4450   27.8580   16.2340 C.3   102  LYS102      0.0206
     31  CE        22.0560   26.8280   17.1690 C.3   102  LYS102      0.1093
     32  NZ        21.7280   27.1050   18.6030 N.3   102  LYS102     -0.1314
     33  N         21.5680   16.6500   16.4290 N.3   126  TRP126     -0.1227
     34  CA        21.7680   17.9580   17.0180 C.3   126  TRP126      0.1737
     35  C         20.3900   18.5850   17.1870 C.2   126  TRP126      0.2595
     36  O         19.5630   18.5770   16.2660 O.2   126  TRP126     -0.2718
     37  CB        22.6450   18.8120   16.1110 C.3   126  TRP126      0.0564
     38  CG        23.1920   20.0370   16.7750 C.ar  126  TRP126      0.0003
     39  CD1       23.7280   20.1280   18.0370 C.ar  126  TRP126      0.0946
     40  CD2       23.2660   21.3400   16.2130 C.ar  126  TRP126      0.0152
     41  NE1       24.1440   21.4160   18.2780 N.ar  126  TRP126     -0.2442
     42  CE2       23.8650   22.1800   17.1740 C.ar  126  TRP126      0.0810
     43  CE3       22.8830   21.8850   14.9840 C.ar  126  TRP126      0.0012
     44  CZ2       24.0820   23.5370   16.9420 C.ar  126  TRP126      0.0191
     45  CZ3       23.0990   23.2280   14.7600 C.ar  126  TRP126      0.0001
     46  CH2       23.7020   24.0340   15.7270 C.ar  126  TRP126      0.0015
     47  N         20.1580   19.0990   18.3870 N.am  127  VAL127     -0.1966
     48  CA        18.8750   19.6050   18.8340 C.3   127  VAL127      0.1727
     49  C         18.1670   20.5000   17.8210 C.2   127  VAL127      0.2616
     50  O         16.9650   20.3600   17.5610 O.2   127  VAL127     -0.2715
     51  CB        19.0960   20.4060   20.1430 C.3   127  VAL127      0.0290
     52  CG1       17.7860   20.9040   20.7070 C.3   127  VAL127      0.0023
     53  CG2       19.8620   19.5490   21.1670 C.3   127  VAL127      0.0023
     54  N         18.9190   21.4160   17.2360 N.am  128  SER128     -0.1950
     55  CA        18.3390   22.4120   16.3510 C.3   128  SER128      0.1924
     56  C         17.7790   21.9180   15.0140 C.2   128  SER128      0.2314
     57  O         16.9440   22.5970   14.4180 O.2   128  SER128     -0.2863
     58  CB        19.3310   23.5590   16.1200 C.3   128  SER128      0.2116
     59  OG        19.3850   24.3810   17.2720 O.3   128  SER128     -0.2180
     60  N         27.8160   15.5580   16.0840 N.3   176  ASN176     -0.1240
     61  CA        27.3910   15.9340   17.4240 C.3   176  ASN176      0.1653
     62  C         26.0120   15.3050   17.4980 C.2   176  ASN176      0.2266
     63  O         25.1490   15.6640   16.7030 O.2   176  ASN176     -0.2867
     64  CB        27.3030   17.4630   17.5070 C.3   176  ASN176      0.1155
     65  CG        26.8030   17.9700   18.8540 C.2   176  ASN176      0.2627
     66  OD1       26.5040   17.2000   19.7640 O.2   176  ASN176     -0.2716
     67  ND2       26.7420   19.2930   18.9890 N.am  176  ASN176     -0.0877
     68  N         34.3460   25.3960   15.5230 N.3   239  LYS239     -0.1245
     69  CA        34.8430   24.1900   16.1850 C.3   239  LYS239      0.1561
     70  C         36.3190   23.9330   15.8950 C.2   239  LYS239      0.2260
     71  O         37.1070   23.7480   16.8160 O.2   239  LYS239     -0.2867
     72  CB        33.9720   22.9960   15.8200 C.3   239  LYS239      0.0271
     73  CG        32.4910   23.2590   16.0830 C.3   239  LYS239      0.0035
     74  CD        32.2020   23.4960   17.5780 C.3   239  LYS239      0.0206
     75  CE        30.8200   24.1540   17.8190 C.3   239  LYS239      0.1093
     76  NZ        29.6740   23.3130   17.3170 N.3   239  LYS239     -0.1314
     77  N         18.8870   14.7440   22.3730 N.3   371  PHE371     -0.1241
     78  CA        19.3150   14.4500   21.0020 C.3   371  PHE371      0.1605
     79  C         18.4500   13.3560   20.3700 C.2   371  PHE371      0.2264
     80  O         18.8150   12.7650   19.3560 O.2   371  PHE371     -0.2867
     81  CB        20.7790   13.9890   21.0150 C.3   371  PHE371      0.0534
     82  CG        21.6980   14.9230   21.7520 C.ar  371  PHE371     -0.0203
     83  CD1       22.2260   16.0520   21.1180 C.ar  371  PHE371     -0.0042
     84  CD2       22.0330   14.6780   23.0780 C.ar  371  PHE371     -0.0042
     85  CE1       23.0680   16.9150   21.7940 C.ar  371  PHE371     -0.0003
     86  CE2       22.8890   15.5390   23.7620 C.ar  371  PHE371     -0.0003
     87  CZ        23.4040   16.6610   23.1200 C.ar  371  PHE371     -0.0000
     88  N         25.4470   12.4180   26.6600 N.3   378  ARG378     -0.1245
     89  CA        26.5770   13.0070   25.9520 C.3   378  ARG378      0.1563
     90  C         27.5740   13.6100   26.9280 C.2   378  ARG378      0.2260
     91  O         27.2170   14.4220   27.7820 O.2   378  ARG378     -0.2867
     92  CB        26.1170   14.1110   24.9880 C.3   378  ARG378      0.0307
     93  CG        27.2240   14.5150   24.0090 C.3   378  ARG378      0.0489
     94  CD        26.8810   15.7850   23.2570 C.3   378  ARG378      0.2205
     95  NE        26.9720   16.9610   24.1100 N.pl3 378  ARG378     -0.0865
     96  CZ        26.7320   18.1920   23.6820 C.cat 378  ARG378      0.5346
     97  NH1       26.4220   18.3890   22.4010 N.pl3 378  ARG378      0.1354
     98  NH2       26.8330   19.2270   24.5150 N.pl3 378  ARG378      0.1354
@<TRIPOS>BOND
     1    27    26    2
     2    26    25    1
     3    24    25    1
     4    25    28    1
     5    57    56    2
     6    28    29    1
     7    45    43   ar
     8    45    46   ar
     9    29    30    1
    10    43    40   ar
    11    56    55    1
    12    68    69    1
    13    46    44   ar
    14    72    73    1
    15    72    69    1
    16    70    69    1
    17    70    71    2
    18    73    74    1
    19    60    61    1
    20    37    38    1
    21    37    34    1
    22    58    55    1
    23    58    59    1
    24    40    38   ar
    25    40    42   ar
    26    30    31    1
    27    36    35    2
    28    55    54    1
    29    33    34    1
    30    63    62    2
    31    38    39   ar
    32    44    42   ar
    33    34    35    1
    34    31    32    1
    35    42    41   ar
    36    35    47   am
    37    54    49   am
    38    76    75    1
    39    61    62    1
    40    61    64    1
    41    64    65    1
    42    50    49    2
    43    74    75    1
    44    49    48    1
    45    39    41   ar
    46    47    48    1
    47    48    51    1
    48    65    67   am
    49    65    66    2
    50    80    79    2
    51    51    52    1
    52    51    53    1
    53    79    78    1
    54    78    81    1
    55    78    77    1
    56    81    82    1
    57    83    82   ar
    58    83    85   ar
    59    14    13    2
    60    82    84   ar
    61    85    87   ar
    62    16    19    1
    63    16    17    1
    64    16    15    1
    65    13    15   am
    66    13    12    1
    67    97    96    1
    68    19    20    1
    69    17    18    2
    70    12    11    1
    71    84    86   ar
    72    87    86   ar
    73    94    93    1
    74    94    95    1
    75    22    21   ar
    76    96    95    2
    77    96    98    1
    78    93    92    1
    79    20    21    1
    80    11     8   am
    81    21    23   ar
    82    92    89    1
    83     9     8    2
    84     8     7    1
    85    89    88    1
    86    89    90    1
    87     7    10    1
    88     7     6    1
    89    90    91    2
    90     4     3    2
    91     6     3   am
    92     3     2    1
    93     2     1    1
    94     2     5    1
