@<TRIPOS>MOLECULE
tmp/6f5wA05.pdb
 111 107 0 0 0
SMALL
GASTEIGER

@<TRIPOS>ATOM
      1  N         28.4470  -30.0840   18.5410 N.3   157  ASN157     -0.1240
      2  CA        28.5920  -29.4120   17.2530 C.3   157  ASN157      0.1653
      3  C         27.5530  -29.8970   16.2790 C.2   157  ASN157      0.2266
      4  O         26.9770  -30.9770   16.4680 O.2   157  ASN157     -0.2867
      5  CB        29.9700  -29.6570   16.6640 C.3   157  ASN157      0.1155
      6  CG        31.0070  -28.7570   17.2530 C.2   157  ASN157      0.2627
      7  OD1       31.0650  -27.5650   16.9290 O.2   157  ASN157     -0.2716
      8  ND2       31.8210  -29.2950   18.1390 N.am  157  ASN157     -0.0877
      9  N         30.0990  -33.8100   16.9190 N.3   161  ARG161     -0.1245
     10  CA        31.2170  -33.8820   17.8880 C.3   161  ARG161      0.1563
     11  C         30.9370  -33.0860   19.1420 C.2   161  ARG161      0.2260
     12  O         30.6380  -31.8970   19.0730 O.2   161  ARG161     -0.2867
     13  CB        32.4910  -33.3300   17.2410 C.3   161  ARG161      0.0307
     14  CG        32.9940  -34.1810   16.0950 C.3   161  ARG161      0.0489
     15  CD        34.2060  -33.5850   15.3740 C.3   161  ARG161      0.2205
     16  NE        33.9180  -32.2590   14.8900 N.pl3 161  ARG161     -0.0865
     17  CZ        34.2480  -31.1150   15.4910 C.cat 161  ARG161      0.5346
     18  NH1       34.9530  -31.1000   16.6310 N.pl3 161  ARG161      0.1354
     19  NH2       33.8470  -29.9780   14.9400 N.pl3 161  ARG161      0.1354
     20  N         31.8750  -30.9460   22.4680 N.3   163  GLU163     -0.1245
     21  CA        32.9220  -29.9560   22.7230 C.3   163  GLU163      0.1567
     22  C         32.7110  -29.3550   24.1100 C.2   163  GLU163      0.2260
     23  O         31.5660  -29.0130   24.4740 O.2   163  GLU163     -0.2867
     24  CB        32.9040  -28.9020   21.6380 C.3   163  GLU163      0.0388
     25  CG        34.0350  -27.8770   21.7100 C.3   163  GLU163      0.1160
     26  CD        34.3490  -27.2290   20.3490 C.2   163  GLU163      0.3649
     27  OE1       33.9430  -27.7880   19.2880 O.co2 163  GLU163     -0.2457
     28  OE2       35.0070  -26.1720   20.3130 O.co2 163  GLU163     -0.2457
     29  N         39.0380  -24.7260   25.4390 N.3   175  HIS175     -0.1241
     30  CA        38.1040  -25.7590   24.9450 C.3   175  HIS175      0.1621
     31  C         38.8440  -26.9680   24.3620 C.2   175  HIS175      0.2264
     32  O         40.0800  -26.9440   24.1530 O.2   175  HIS175     -0.2867
     33  CB        37.0470  -25.1570   23.9680 C.3   175  HIS175      0.0745
     34  CG        37.6100  -24.6540   22.6550 C.ar  175  HIS175      0.0817
     35  ND1       36.9560  -24.8190   21.4460 N.ar  175  HIS175     -0.2268
     36  CD2       38.7550  -23.9850   22.3670 C.ar  175  HIS175      0.1154
     37  CE1       37.6870  -24.2980   20.4690 C.ar  175  HIS175      0.1986
     38  NE2       38.7780  -23.7690   21.0050 N.ar  175  HIS175     -0.2212
     39  N         37.6530  -30.9110   22.0910 N.3   177  TRP177     -0.1241
     40  CA        36.5560  -31.4880   21.3060 C.3   177  TRP177      0.1605
     41  C         36.8420  -32.9030   20.8910 C.2   177  TRP177      0.2264
     42  O         37.9970  -33.2700   20.7750 O.2   177  TRP177     -0.2867
     43  CB        36.2240  -30.6230   20.0760 C.3   177  TRP177      0.0550
     44  CG        37.4000  -30.2850   19.2400 C.ar  177  TRP177      0.0003
     45  CD1       37.8550  -30.9550   18.1470 C.ar  177  TRP177      0.0946
     46  CD2       38.2760  -29.1820   19.4270 C.ar  177  TRP177      0.0152
     47  NE1       38.9790  -30.3370   17.6360 N.ar  177  TRP177     -0.2442
     48  CE2       39.2650  -29.2520   18.4110 C.ar  177  TRP177      0.0810
     49  CE3       38.3290  -28.1410   20.3520 C.ar  177  TRP177      0.0012
     50  CZ2       40.3030  -28.3190   18.3100 C.ar  177  TRP177      0.0191
     51  CZ3       39.3440  -27.2210   20.2580 C.ar  177  TRP177      0.0001
     52  CH2       40.3230  -27.3070   19.2420 C.ar  177  TRP177      0.0015
     53  N         37.2000  -35.7120   18.1360 N.3   179  THR179     -0.1218
     54  CA        37.7380  -35.6610   16.7920 C.3   179  THR179      0.1862
     55  C         36.7180  -36.1980   15.8050 C.2   179  THR179      0.2287
     56  O         36.7950  -35.8900   14.6400 O.2   179  THR179     -0.2866
     57  CB        39.0260  -36.5080   16.6570 C.3   179  THR179      0.1770
     58  OG1       38.7940  -37.8370   17.1140 O.3   179  THR179     -0.2211
     59  CG2       40.1180  -35.9160   17.4840 C.3   179  THR179      0.0375
     60  N         42.8270  -26.0900   23.6200 N.3   190  GLU190     -0.1245
     61  CA        43.1420  -24.8870   22.8910 C.3   190  GLU190      0.1567
     62  C         42.5640  -23.7050   23.6600 C.2   190  GLU190      0.2260
     63  O         41.4730  -23.8140   24.2410 O.2   190  GLU190     -0.2867
     64  CB        42.6070  -24.9750   21.4330 C.3   190  GLU190      0.0388
     65  CG        42.7290  -23.6760   20.6440 C.3   190  GLU190      0.1160
     66  CD        42.0060  -23.6990   19.2970 C.2   190  GLU190      0.3649
     67  OE1       40.8550  -23.1930   19.2420 O.co2 190  GLU190     -0.2457
     68  OE2       42.5960  -24.2190   18.3100 O.co2 190  GLU190     -0.2457
     69  N         32.2210  -19.7610   16.8270 N.3   226  GLN226     -0.1245
     70  CA        32.6810  -20.3830   15.5970 C.3   226  GLN226      0.1566
     71  C         32.1870  -19.5500   14.4280 C.2   226  GLN226      0.2260
     72  O         31.0040  -19.2630   14.3830 O.2   226  GLN226     -0.2867
     73  CB        32.0810  -21.7930   15.4900 C.3   226  GLN226      0.0367
     74  CG        32.6830  -22.7810   16.4700 C.3   226  GLN226      0.0905
     75  CD        32.0340  -24.1620   16.4050 C.2   226  GLN226      0.2608
     76  OE1       30.8640  -24.3110   15.9890 O.2   226  GLN226     -0.2717
     77  NE2       32.7780  -25.1740   16.8280 N.am  226  GLN226     -0.0878
     78  N         30.3200  -25.8000   12.8460 N.3   230  HIS230     -0.1226
     79  CA        31.1980  -26.7940   13.4930 C.3   230  HIS230      0.1752
     80  C         32.6740  -26.6900   13.1760 C.2   230  HIS230      0.2597
     81  O         33.3600  -27.6890   13.0230 O.2   230  HIS230     -0.2718
     82  CB        30.6880  -28.2430   13.2760 C.3   230  HIS230      0.0759
     83  CG        30.6510  -28.6660   11.8420 C.ar  230  HIS230      0.0818
     84  ND1       29.5230  -28.5340   11.0610 N.ar  230  HIS230     -0.2268
     85  CD2       31.6140  -29.1510   11.0330 C.ar  230  HIS230      0.1154
     86  CE1       29.7870  -28.9400    9.8350 C.ar  230  HIS230      0.1986
     87  NE2       31.0520  -29.3120    9.7910 N.ar  230  HIS230     -0.2212
     88  N         33.1740  -25.4690   13.0900 N.am  231  SER231     -0.1938
     89  CA        34.5160  -25.2750   12.6360 C.3   231  SER231      0.2055
     90  C         35.0910  -23.9220   13.0220 C.2   231  SER231      0.2643
     91  O         34.3700  -22.9400   13.1660 O.2   231  SER231     -0.2714
     92  CB        34.5460  -25.4350   11.1250 C.3   231  SER231      0.2130
     93  OG        35.8450  -25.2230   10.6810 O.3   231  SER231     -0.2179
     94  N         36.4130  -23.9090   13.1790 N.am  232  GLY232     -0.1954
     95  CA        37.1850  -22.6810   13.3270 C.3   232  GLY232      0.1869
     96  C         37.3350  -22.0320   11.9500 C.2   232  GLY232      0.2309
     97  O         36.9850  -22.6410   10.9580 O.2   232  GLY232     -0.2863
     98  N         37.5340  -19.3250   15.1210 N.3   234  TRP234     -0.1241
     99  CA        36.5800  -18.6150   15.9730 C.3   234  TRP234      0.1605
    100  C         36.6880  -17.1020   15.7090 C.2   234  TRP234      0.2264
    101  O         37.6970  -16.6370   15.1590 O.2   234  TRP234     -0.2867
    102  CB        36.8100  -18.9390   17.4550 C.3   234  TRP234      0.0550
    103  CG        36.3240  -20.2920   17.8210 C.ar  234  TRP234      0.0003
    104  CD1       36.7970  -21.4820   17.3710 C.ar  234  TRP234      0.0946
    105  CD2       35.2570  -20.6000   18.7290 C.ar  234  TRP234      0.0152
    106  NE1       36.0770  -22.5200   17.9170 N.ar  234  TRP234     -0.2442
    107  CE2       35.1400  -22.0060   18.7720 C.ar  234  TRP234      0.0810
    108  CE3       34.3870  -19.8200   19.5040 C.ar  234  TRP234      0.0012
    109  CZ2       34.1850  -22.6540   19.5600 C.ar  234  TRP234      0.0191
    110  CZ3       33.4370  -20.4600   20.2880 C.ar  234  TRP234      0.0001
    111  CH2       33.3450  -21.8700   20.3040 C.ar  234  TRP234      0.0015
@<TRIPOS>BOND
     1    87    86   ar
     2    87    85   ar
     3    86    84   ar
     4    93    92    1
     5    97    96    2
     6    85    83   ar
     7    84    83   ar
     8    92    89    1
     9    83    82    1
    10    96    95    1
    11    89    90    1
    12    89    88    1
    13    78    79    1
    14    90    91    2
    15    90    94   am
    16    81    80    2
    17    88    80   am
    18    80    79    1
    19    94    95    1
    20    82    79    1
    21    72    71    2
    22    71    70    1
    23    56    55    2
    24    16    15    1
    25    16    17    2
    26    19    17    1
    27    98    99    1
    28   101   100    2
    29    15    14    1
    30    73    70    1
    31    73    74    1
    32    17    18    1
    33    70    69    1
    34   100    99    1
    35    55    54    1
    36    99   102    1
    37    76    75    2
    38    14    13    1
    39     3     4    2
    40     3     2    1
    41    75    74    1
    42    75    77   am
    43    57    54    1
    44    57    58    1
    45    57    59    1
    46     5     6    1
    47     5     2    1
    48    54    53    1
    49     9    10    1
    50     7     6    2
    51    13    10    1
    52     6     8   am
    53     2     1    1
    54   104   103   ar
    55   104   106   ar
    56   102   103    1
    57    47    45   ar
    58    47    48   ar
    59   103   105   ar
    60    10    11    1
    61   106   107   ar
    62    45    44   ar
    63    50    48   ar
    64    50    52   ar
    65    68    66   ar
    66    48    46   ar
    67   105   107   ar
    68   105   108   ar
    69   107   109   ar
    70    12    11    2
    71    44    46   ar
    72    44    43    1
    73    67    66   ar
    74    52    51   ar
    75    27    26   ar
    76    66    65    1
    77    46    49   ar
    78   108   110   ar
    79   109   111   ar
    80    43    40    1
    81    51    49   ar
    82   110   111   ar
    83    28    26   ar
    84    26    25    1
    85    37    38   ar
    86    37    35   ar
    87    65    64    1
    88    42    41    2
    89    41    40    1
    90    38    36   ar
    91    40    39    1
    92    64    61    1
    93    35    34   ar
    94    24    25    1
    95    24    21    1
    96    36    34   ar
    97    20    21    1
    98    34    33    1
    99    21    22    1
   100    61    60    1
   101    61    62    1
   102    62    63    2
   103    33    30    1
   104    22    23    2
   105    32    31    2
   106    31    30    1
   107    30    29    1
