@<TRIPOS>MOLECULE
tmp/6f5zB00.pdb
 209 202 0 0 0
SMALL
GASTEIGER

@<TRIPOS>ATOM
      1  N         63.9620   20.1090    6.4740 N.3     2  VAL2       -0.1245
      2  CA        63.3190   18.9460    7.1020 C.3     2  VAL2        0.1561
      3  C         63.9140   18.7110    8.4600 C.2     2  VAL2        0.2260
      4  O         63.1500   18.5760    9.4220 O.2     2  VAL2       -0.2867
      5  CB        63.4190   17.6610    6.2160 C.3     2  VAL2        0.0252
      6  CG1       62.8790   16.4250    6.9370 C.3     2  VAL2        0.0019
      7  CG2       62.7080   17.8590    4.8940 C.3     2  VAL2        0.0019
      8  N         61.7530   18.9490   11.8680 N.3     6  PHE6       -0.1241
      9  CA        61.4120   17.7370   12.6020 C.3     6  PHE6        0.1605
     10  C         62.3690   17.2990   13.7210 C.2     6  PHE6        0.2264
     11  O         62.0610   16.3210   14.4020 O.2     6  PHE6       -0.2867
     12  CB        61.1860   16.5840   11.6080 C.3     6  PHE6        0.0534
     13  CG        59.9410   16.8470   10.7960 C.ar    6  PHE6       -0.0203
     14  CD1       58.6830   16.5450   11.3070 C.ar    6  PHE6       -0.0042
     15  CD2       60.0240   17.4340    9.5410 C.ar    6  PHE6       -0.0042
     16  CE1       57.5230   16.8420   10.5710 C.ar    6  PHE6       -0.0003
     17  CE2       58.8660   17.6960    8.7950 C.ar    6  PHE6       -0.0003
     18  CZ        57.6330   17.3870    9.3130 C.ar    6  PHE6       -0.0000
     19  N         58.5210   11.6780   19.2890 N.3    13  ASP13      -0.1239
     20  CA        58.4600   10.7230   18.1620 C.3    13  ASP13       0.1674
     21  C         57.5810    9.5570   18.5760 C.2    13  ASP13       0.2266
     22  O         56.8060    9.0290   17.7600 O.2    13  ASP13      -0.2867
     23  CB        59.8530   10.2230   17.7490 C.3    13  ASP13       0.1410
     24  CG        60.7870    9.7950   18.8760 C.2    13  ASP13       0.3668
     25  OD1       60.4810   10.0880   20.0650 O.co2  13  ASP13      -0.2456
     26  OD2       61.7990    9.1420   18.5800 O.co2  13  ASP13      -0.2456
     27  N         53.9880   10.8720   18.4970 N.3    16  MET16      -0.1230
     28  CA        53.4260   10.8020   17.1420 C.3    16  MET16       0.1702
     29  C         53.0070    9.3600   16.8650 C.2    16  MET16       0.2592
     30  O         51.9130    9.1260   16.3510 O.2    16  MET16      -0.2718
     31  CB        54.4540   11.2120   16.0870 C.3    16  MET16       0.0401
     32  CG        54.6180   12.6700   15.9640 C.3    16  MET16       0.0596
     33  SD        55.4470   13.0540   14.3890 S.3    16  MET16      -0.1393
     34  CE        57.0800   12.3830   14.6640 C.3    16  MET16       0.0692
     35  N         53.8620    8.3810   17.2260 N.am   17  GLU17      -0.1979
     36  CA        53.5420    6.9740   17.0090 C.3    17  GLU17       0.1602
     37  C         52.2480    6.6260   17.7110 C.2    17  GLU17       0.2287
     38  O         51.3600    6.0130   17.1170 O.2    17  GLU17      -0.2864
     39  CB        54.7250    6.1120   17.5250 C.3    17  GLU17       0.0415
     40  CG        54.3750    4.6470   17.7130 C.3    17  GLU17       0.1163
     41  CD        55.4970    3.7830   18.2500 C.2    17  GLU17       0.3649
     42  OE1       56.6830    4.1610   18.1040 O.co2  17  GLU17      -0.2457
     43  OE2       55.1720    2.6700   18.7300 O.co2  17  GLU17      -0.2457
     44  N         49.2910    8.3270   15.8060 N.3    20  HIS20      -0.1241
     45  CA        49.1260    7.8450   14.4390 C.3    20  HIS20       0.1621
     46  C         48.7610    6.3820   14.3630 C.2    20  HIS20       0.2264
     47  O         48.0420    5.9710   13.4330 O.2    20  HIS20      -0.2867
     48  CB        50.3860    8.1430   13.6290 C.3    20  HIS20       0.0745
     49  CG        50.6070    9.6200   13.5330 C.ar   20  HIS20       0.0817
     50  ND1       51.8610   10.1540   13.3140 N.ar   20  HIS20      -0.2268
     51  CD2       49.7210   10.6360   13.6870 C.ar   20  HIS20       0.1154
     52  CE1       51.7000   11.4730   13.3280 C.ar   20  HIS20       0.1986
     53  NE2       50.4340   11.8070   13.5390 N.ar   20  HIS20      -0.2212
     54  N         59.7290    2.5620    4.0860 N.3    41  ASP41      -0.1239
     55  CA        58.8440    3.4130    4.8780 C.3    41  ASP41       0.1674
     56  C         59.3600    4.8470    4.7210 C.2    41  ASP41       0.2266
     57  O         60.4890    5.1640    5.1690 O.2    41  ASP41      -0.2867
     58  CB        58.9340    2.9540    6.3550 C.3    41  ASP41       0.1410
     59  CG        58.1760    3.7600    7.3710 C.2    41  ASP41       0.3668
     60  OD1       57.5150    4.7500    6.9750 O.co2  41  ASP41      -0.2456
     61  OD2       58.2410    3.4010    8.5710 O.co2  41  ASP41      -0.2456
     62  N         59.5210    8.5710    5.5020 N.3    43  GLY43      -0.1210
     63  CA        59.2480    9.4560    6.6370 C.3    43  GLY43       0.1956
     64  C         58.9070    8.6230    7.8460 C.2    43  GLY43       0.2613
     65  O         57.9010    8.8250    8.5200 O.2    43  GLY43      -0.2717
     66  N         59.8030    7.6960    8.1610 N.am   44  THR44      -0.1938
     67  CA        59.5760    6.6410    9.1390 C.3    44  THR44       0.2028
     68  C         59.2780    7.1170   10.5700 C.2    44  THR44       0.2643
     69  O         58.6010    6.4060   11.3040 O.2    44  THR44      -0.2714
     70  CB        60.7460    5.6720    9.1010 C.3    44  THR44       0.1808
     71  OG1       60.3850    4.4370    9.7250 O.3    44  THR44      -0.2208
     72  CG2       62.0290    6.2460    9.6820 C.3    44  THR44       0.0379
     73  N         59.7790    8.3070   10.9530 N.am   45  GLY45      -0.1939
     74  CA        59.5390    8.7640   12.3160 C.3    45  GLY45       0.2014
     75  C         60.1560    7.7750   13.2910 C.2    45  GLY45       0.2639
     76  O         61.3310    7.4580   13.1210 O.2    45  GLY45      -0.2714
     77  N         59.3810    7.2340   14.2420 N.am   46  SER46      -0.1949
     78  CA        59.9340    6.2750   15.2250 C.3    46  SER46       0.1924
     79  C         60.2200    4.8870   14.6130 C.2    46  SER46       0.2314
     80  O         60.7450    4.0260   15.3160 O.2    46  SER46      -0.2863
     81  CB        58.9810    6.0700   16.4020 C.3    46  SER46       0.2116
     82  OG        57.8990    5.2500   15.9890 O.3    46  SER46      -0.2180
     83  N         57.8450    2.7320   13.7110 N.3    48  TYR48      -0.1241
     84  CA        56.8630    1.7660   14.1790 C.3    48  TYR48       0.1605
     85  C         56.1970    0.9540   13.0760 C.2    48  TYR48       0.2264
     86  O         55.7810   -0.1780   13.3150 O.2    48  TYR48      -0.2867
     87  CB        55.8090    2.4360   15.0780 C.3    48  TYR48       0.0534
     88  CG        54.8490    3.3310   14.3160 C.ar   48  TYR48      -0.0201
     89  CD1       53.7120    2.8020   13.7000 C.ar   48  TYR48      -0.0009
     90  CD2       55.1040    4.6950   14.1580 C.ar   48  TYR48      -0.0009
     91  CE1       52.8260    3.6150   12.9890 C.ar   48  TYR48       0.0417
     92  CE2       54.2390    5.5120   13.4240 C.ar   48  TYR48       0.0417
     93  CZ        53.1080    4.9600   12.8300 C.ar   48  TYR48       0.1957
     94  OH        52.2780    5.7440   12.0520 O.3    48  TYR48      -0.2866
     95  N         63.3040    5.4730    5.8380 N.3    65  LEU65      -0.1231
     96  CA        63.9840    6.6490    5.3060 C.3    65  LEU65       0.1693
     97  C         63.4080    7.9010    6.0010 C.2    65  LEU65       0.2592
     98  O         62.1870    8.0220    6.1690 O.2    65  LEU65      -0.2718
     99  CB        63.7710    6.7270    3.7720 C.3    65  LEU65       0.0284
    100  CG        64.3790    7.9490    3.0560 C.3    65  LEU65       0.0019
    101  CD1       64.8110    7.5900    1.6650 C.3    65  LEU65       0.0001
    102  CD2       63.3460    9.1200    2.9110 C.3    65  LEU65       0.0001
    103  N         64.2900    8.8360    6.4090 N.am   66  ASP66      -0.1960
    104  CA        63.8200   10.0620    7.0460 C.3    66  ASP66       0.1840
    105  C         64.8350   11.1460    6.7620 C.2    66  ASP66       0.2623
    106  O         66.0220   10.8770    6.6340 O.2    66  ASP66      -0.2715
    107  CB        63.5960    9.8860    8.5490 C.3    66  ASP66       0.1450
    108  CG        62.5690   10.8580    9.0500 C.2    66  ASP66       0.3671
    109  OD1       62.9280   12.0490    9.2790 O.co2  66  ASP66      -0.2456
    110  OD2       61.4050   10.4540    9.1940 O.co2  66  ASP66      -0.2456
    111  N         64.3680   12.3630    6.5990 N.am   67  GLY67      -0.1940
    112  CA        65.2780   13.4830    6.3540 C.3    67  GLY67       0.2014
    113  C         65.8930   14.0370    7.6340 C.2    67  GLY67       0.2639
    114  O         66.7540   14.9200    7.5650 O.2    67  GLY67      -0.2714
    115  N         65.4220   13.5670    8.8070 N.am   68  SER68      -0.1949
    116  CA        65.9320   13.9690   10.1190 C.3    68  SER68       0.1924
    117  C         66.9030   12.9130   10.6580 C.2    68  SER68       0.2314
    118  O         66.4640   11.8220   11.0490 O.2    68  SER68      -0.2863
    119  CB        64.7930   14.1990   11.1100 C.3    68  SER68       0.2116
    120  OG        65.2680   14.2260   12.4510 O.3    68  SER68      -0.2180
    121  N         65.7840   11.6080   14.0260 N.3    71  MET71      -0.1245
    122  CA        64.6370   10.7240   13.9220 C.3    71  MET71       0.1570
    123  C         65.0680    9.2740   13.6350 C.2    71  MET71       0.2261
    124  O         64.5830    8.3590   14.3200 O.2    71  MET71      -0.2867
    125  CB        63.6850   11.2120   12.8230 C.3    71  MET71       0.0387
    126  CG        62.3080   10.6950   12.9650 C.3    71  MET71       0.0595
    127  SD        61.3560   11.2840   14.3990 S.3    71  MET71      -0.1393
    128  CE        60.8600   12.9550   13.8440 C.3    71  MET71       0.0692
    129  N         67.5280   10.3230    4.1150 N.3    89  GLY89      -0.1210
    130  CA        67.2780   10.5470    2.7130 C.3    89  GLY89       0.1956
    131  C         66.2070   11.5950    2.5000 C.2    89  GLY89       0.2612
    132  O         65.6550   12.1340    3.4770 O.2    89  GLY89      -0.2717
    133  N         65.9070   11.8610    1.2240 N.am   90  ASP90      -0.1959
    134  CA        64.9130   12.8670    0.8800 C.3    90  ASP90       0.1840
    135  C         63.9370   12.3170   -0.1390 C.2    90  ASP90       0.2622
    136  O         64.3280   11.6100   -1.0610 O.2    90  ASP90      -0.2715
    137  CB        65.5860   14.1570    0.3580 C.3    90  ASP90       0.1450
    138  CG        64.5740   15.2750    0.1420 C.2    90  ASP90       0.3671
    139  OD1       64.0980   15.8400    1.1470 O.co2  90  ASP90      -0.2456
    140  OD2       64.1660   15.4930   -1.0290 O.co2  90  ASP90      -0.2456
    141  N         62.6750   12.7170    0.0090 N.am   91  PHE91      -0.1974
    142  CA        61.5990   12.2540   -0.8470 C.3    91  PHE91       0.1639
    143  C         61.7630   12.6160   -2.3090 C.2    91  PHE91       0.2290
    144  O         61.1000   12.0140   -3.1540 O.2    91  PHE91      -0.2864
    145  CB        60.2620   12.8130   -0.3660 C.3    91  PHE91       0.0560
    146  CG        59.8040   12.3560    0.9950 C.ar   91  PHE91      -0.0200
    147  CD1       60.3780   11.2500    1.6060 C.ar   91  PHE91      -0.0042
    148  CD2       58.7460   12.9890    1.6320 C.ar   91  PHE91      -0.0042
    149  CE1       59.9640   10.8460    2.8640 C.ar   91  PHE91      -0.0003
    150  CE2       58.3190   12.5790    2.8860 C.ar   91  PHE91      -0.0003
    151  CZ        58.9140   11.4900    3.4860 C.ar   91  PHE91      -0.0000
    152  N         55.3330    2.3080    2.1500 N.3   105  TRP105     -0.1241
    153  CA        54.3870    2.8140    3.1180 C.3   105  TRP105      0.1605
    154  C         54.7850    4.2430    3.4620 C.2   105  TRP105      0.2264
    155  O         55.9710    4.5460    3.5820 O.2   105  TRP105     -0.2867
    156  CB        54.5050    1.9810    4.4200 C.3   105  TRP105      0.0550
    157  CG        53.9190    2.6410    5.6390 C.ar  105  TRP105      0.0003
    158  CD1       54.5850    3.4200    6.5490 C.ar  105  TRP105      0.0946
    159  CD2       52.5340    2.6550    6.0270 C.ar  105  TRP105      0.0152
    160  NE1       53.7010    3.8760    7.5230 N.ar  105  TRP105     -0.2442
    161  CE2       52.4300    3.4470    7.2010 C.ar  105  TRP105      0.0810
    162  CE3       51.3650    2.0730    5.4880 C.ar  105  TRP105      0.0012
    163  CZ2       51.2250    3.5870    7.8970 C.ar  105  TRP105      0.0191
    164  CZ3       50.1570    2.2500    6.1520 C.ar  105  TRP105      0.0001
    165  CH2       50.0920    3.0400    7.3250 C.ar  105  TRP105      0.0015
    166  N         53.1210    7.3500    6.2300 N.3   107  MET107     -0.1230
    167  CA        52.0330    7.8840    7.0660 C.3   107  MET107      0.1702
    168  C         52.4420    9.2890    7.5400 C.2   107  MET107      0.2592
    169  O         53.5510    9.4800    8.0830 O.2   107  MET107     -0.2718
    170  CB        51.8040    6.9870    8.2980 C.3   107  MET107      0.0401
    171  CG        50.9280    7.5930    9.3920 C.3   107  MET107      0.0596
    172  SD        49.2120    7.7530    8.8400 S.3   107  MET107     -0.1393
    173  CE        48.3710    8.1780   10.3820 C.3   107  MET107      0.0692
    174  N         51.5360   10.2510    7.3460 N.am  108  GLU108     -0.1966
    175  CA        51.7160   11.6060    7.8510 C.3   108  GLU108      0.1733
    176  C         53.0390   12.2290    7.4020 C.2   108  GLU108      0.2616
    177  O         53.6060   13.0380    8.1660 O.2   108  GLU108     -0.2715
    178  CB        51.5930   11.5770    9.4020 C.3   108  GLU108      0.0429
    179  CG        50.1460   11.4870    9.8510 C.3   108  GLU108      0.1163
    180  CD        49.4450   12.8140    9.6390 C.2   108  GLU108      0.3649
    181  OE1       49.1900   13.1800    8.4640 O.co2 108  GLU108     -0.2457
    182  OE2       49.2560   13.5470   10.6370 O.co2 108  GLU108     -0.2457
    183  N         53.4540   12.0060    6.1440 N.am  109  ALA109     -0.1977
    184  CA        54.7300   12.5540    5.6710 C.3   109  ALA109      0.1597
    185  C         54.6620   13.0190    4.2470 C.2   109  ALA109      0.2287
    186  O         55.3950   13.9090    3.8500 O.2   109  ALA109     -0.2864
    187  CB        55.8310   11.4950    5.7760 C.3   109  ALA109      0.0319
    188  N         54.6360   16.6760    2.9100 N.3   112  TYR112     -0.1227
    189  CA        55.7550   17.5990    3.1170 C.3   112  TYR112      0.1736
    190  C         56.7170   17.5200    1.9170 C.2   112  TYR112      0.2595
    191  O         57.6820   18.3010    1.8570 O.2   112  TYR112     -0.2718
    192  CB        56.5350   17.2230    4.3940 C.3   112  TYR112      0.0548
    193  CG        55.7390   17.3400    5.6690 C.ar  112  TYR112     -0.0200
    194  CD1       55.3800   18.5880    6.1820 C.ar  112  TYR112     -0.0009
    195  CD2       55.3840   16.2100    6.3980 C.ar  112  TYR112     -0.0009
    196  CE1       54.6810   18.7000    7.3830 C.ar  112  TYR112      0.0417
    197  CE2       54.6330   16.3090    7.5650 C.ar  112  TYR112      0.0417
    198  CZ        54.2910   17.5550    8.0610 C.ar  112  TYR112      0.1957
    199  OH        53.5880   17.6570    9.2450 O.3   112  TYR112     -0.2866
    200  N         56.5120   16.5710    0.9690 N.am  113  ALA113     -0.1966
    201  CA        57.4230   16.4550   -0.1840 C.3   113  ALA113      0.1728
    202  C         57.4940   17.7890   -0.9160 C.2   113  ALA113      0.2616
    203  O         56.4510   18.4150   -1.1080 O.2   113  ALA113     -0.2715
    204  CB        56.9480   15.3790   -1.1480 C.3   113  ALA113      0.0334
    205  N         58.7040   18.1900   -1.3510 N.am  114  ALA114     -0.1977
    206  CA        58.8890   19.4510   -2.0980 C.3   114  ALA114      0.1597
    207  C         58.2220   19.3890   -3.4660 C.2   114  ALA114      0.2287
    208  O         57.7070   20.4010   -3.9550 O.2   114  ALA114     -0.2864
    209  CB        60.3860   19.7570   -2.2470 C.3   114  ALA114      0.0319
@<TRIPOS>BOND
     1   208   207    2
     2   207   206    1
     3   144   143    2
     4   143   142    1
     5   209   206    1
     6   206   205    1
     7   205   202   am
     8   204   201    1
     9   203   202    2
    10   136   135    2
    11   140   138   ar
    12   202   201    1
    13   142   145    1
    14   142   141    1
    15   145   146    1
    16   201   200    1
    17   135   141   am
    18   135   134    1
    19   138   137    1
    20   138   139   ar
    21   137   134    1
    22   134   133    1
    23   200   190   am
    24   146   147   ar
    25   146   148   ar
    26   133   131   am
    27   147   149   ar
    28   148   150   ar
    29   101   100    1
    30   191   190    2
    31   190   189    1
    32   152   153    1
    33   131   130    1
    34   131   132    2
    35   130   129    1
    36   149   151   ar
    37   150   151   ar
    38   188   189    1
    39   102   100    1
    40   100    99    1
    41   189   192    1
    42   153   154    1
    43   153   156    1
    44   154   155    2
    45    99    96    1
    46   186   185    2
    47    54    55    1
    48   185   184    1
    49   192   193    1
    50   156   157    1
    51    56    55    1
    52    56    57    2
    53    55    58    1
    54     7     5    1
    55    96    95    1
    56    96    97    1
    57   162   159   ar
    58   162   164   ar
    59    62    63    1
    60   157   159   ar
    61   157   158   ar
    62   193   194   ar
    63   193   195   ar
    64   184   187    1
    65   184   183    1
    66    97    98    2
    67    97   103   am
    68   159   161   ar
    69   183   176   am
    70   164   165   ar
    71   194   196   ar
    72     5     6    1
    73     5     2    1
    74   166   167    1
    75   112   111    1
    76   112   113    1
    77    58    59    1
    78   195   197   ar
    79   103   104    1
    80     1     2    1
    81   158   160   ar
    82   111   105   am
    83   106   105    2
    84    63    64    1
    85   105   104    1
    86    60    59   ar
    87   104   107    1
    88   167   168    1
    89   167   170    1
    90     2     3    1
    91   161   160   ar
    92   161   163   ar
    93   165   163   ar
    94   174   168   am
    95   174   175    1
    96    59    61   ar
    97   196   198   ar
    98   176   175    1
    99   176   177    2
   100   168   169    2
   101   114   113    2
   102   197   198   ar
   103   113   115   am
   104    64    66   am
   105    64    65    2
   106   175   178    1
   107   198   199    1
   108    66    67    1
   109   170   171    1
   110     3     4    2
   111   181   180   ar
   112   107   108    1
   113    17    18   ar
   114    17    15   ar
   115   115   116    1
   116   172   171    1
   117   172   173    1
   118   108   110   ar
   119   108   109   ar
   120    70    67    1
   121    70    72    1
   122    70    71    1
   123    67    68    1
   124    18    16   ar
   125   178   179    1
   126    15    13   ar
   127   180   179    1
   128   180   182   ar
   129   116   117    1
   130   116   119    1
   131    68    73   am
   132    68    69    2
   133    16    14   ar
   134   117   118    2
   135    13    14   ar
   136    13    12    1
   137    73    74    1
   138   119   120    1
   139    12     9    1
   140     8     9    1
   141    94    93    1
   142    74    75    1
   143     9    10    1
   144   125   126    1
   145   125   122    1
   146    93    91   ar
   147    93    92   ar
   148   126   127    1
   149    91    89   ar
   150    85    86    2
   151    85    84    1
   152    76    75    2
   153    75    77   am
   154    50    52   ar
   155    50    49   ar
   156    52    53   ar
   157    92    90   ar
   158    47    46    2
   159    49    48    1
   160    49    51   ar
   161    53    51   ar
   162    48    45    1
   163   123   122    1
   164   123   124    2
   165    89    88   ar
   166    83    84    1
   167    10    11    2
   168   128   127    1
   169   122   121    1
   170    90    88   ar
   171    84    87    1
   172    77    78    1
   173    88    87    1
   174    46    45    1
   175    33    34    1
   176    33    32    1
   177    45    44    1
   178    79    78    1
   179    79    80    2
   180    78    81    1
   181    32    31    1
   182    82    81    1
   183    31    28    1
   184    30    29    2
   185    29    28    1
   186    29    35   am
   187    36    35    1
   188    36    39    1
   189    36    37    1
   190    38    37    2
   191    28    27    1
   192    39    40    1
   193    40    41    1
   194    23    20    1
   195    23    24    1
   196    22    21    2
   197    42    41   ar
   198    20    21    1
   199    20    19    1
   200    41    43   ar
   201    26    24   ar
   202    24    25   ar
