@<TRIPOS>MOLECULE
tmp/6f60A00.pdb
 83 81 0 0 0
SMALL
GASTEIGER

@<TRIPOS>ATOM
      1  N         27.2260   -1.6280   84.1490 N.3    61  LYS61      -0.1245
      2  CA        26.4950   -2.4000   83.0860 C.3    61  LYS61       0.1561
      3  C         25.0870   -1.8540   82.8880 C.2    61  LYS61       0.2260
      4  O         24.2450   -1.9660   83.7500 O.2    61  LYS61      -0.2867
      5  CB        26.4460   -3.8250   83.4870 C.3    61  LYS61       0.0271
      6  CG        25.7860   -4.7250   82.4500 C.3    61  LYS61       0.0035
      7  CD        25.6880   -6.1740   82.9480 C.3    61  LYS61       0.0206
      8  CE        24.9650   -7.0510   81.9150 C.3    61  LYS61       0.1093
      9  NZ        24.7410   -8.4430   82.4640 N.3    61  LYS61      -0.1314
     10  N         23.7810   -1.9590   86.5390 N.3    74  GLN74      -0.1231
     11  CA        24.1490   -3.0210   87.5120 C.3    74  GLN74       0.1698
     12  C         25.5860   -2.9800   87.7510 C.2    74  GLN74       0.2593
     13  O         26.4830   -2.7880   86.9340 O.2    74  GLN74      -0.2718
     14  CB        23.8150   -4.3850   86.8170 C.3    74  GLN74       0.0381
     15  CG        24.0930   -5.5550   87.7420 C.3    74  GLN74       0.0905
     16  CD        23.5700   -6.8160   87.1000 C.2    74  GLN74       0.2608
     17  OE1       22.3910   -6.8560   86.7860 O.2    74  GLN74      -0.2717
     18  NE2       24.3320   -7.7320   86.9070 N.am   74  GLN74      -0.0878
     19  N         25.9140   -3.0680   89.1080 N.am   75  SER75      -0.1938
     20  CA        27.3360   -3.0460   89.4910 C.3    75  SER75       0.2055
     21  C         28.0400   -4.2780   89.0310 C.2    75  SER75       0.2643
     22  O         27.5460   -5.3550   89.0770 O.2    75  SER75      -0.2714
     23  CB        27.3960   -2.9490   91.0840 C.3    75  SER75       0.2130
     24  OG        26.7980   -4.0460   91.7200 O.3    75  SER75      -0.2179
     25  N         29.2810   -4.0440   88.5950 N.am   76  TYR76      -0.1959
     26  CA        30.0750   -5.2200   88.1560 C.3    76  TYR76       0.1771
     27  C         30.4930   -6.0620   89.3170 C.2    76  TYR76       0.2620
     28  O         30.6530   -7.2620   89.2000 O.2    76  TYR76      -0.2715
     29  CB        31.3570   -4.7910   87.4450 C.3    76  TYR76       0.0574
     30  CG        31.0800   -4.1850   86.0610 C.ar   76  TYR76      -0.0198
     31  CD1       30.4180   -4.8970   85.0810 C.ar   76  TYR76      -0.0009
     32  CD2       31.3960   -2.9000   85.7810 C.ar   76  TYR76      -0.0009
     33  CE1       30.1280   -4.3310   83.8380 C.ar   76  TYR76       0.0417
     34  CE2       31.1580   -2.3080   84.4940 C.ar   76  TYR76       0.0417
     35  CZ        30.4920   -3.0540   83.5410 C.ar   76  TYR76       0.1957
     36  OH        30.1280   -2.5760   82.3070 O.3    76  TYR76      -0.2866
     37  N         30.5910   -5.4880   90.5060 N.am   77  SER77      -0.1936
     38  CA        30.9780   -6.2580   91.6850 C.3    77  SER77       0.2055
     39  C         29.8030   -6.3390   92.5820 C.2    77  SER77       0.2643
     40  O         28.7850   -5.7020   92.4800 O.2    77  SER77      -0.2714
     41  CB        32.1980   -5.6540   92.3290 C.3    77  SER77       0.2130
     42  OG        31.9810   -4.3000   92.7180 O.3    77  SER77      -0.2179
     43  N         29.9740   -7.2030   93.5260 N.am   78  THR78      -0.1950
     44  CA        28.9320   -7.2820   94.5320 C.3    78  THR78       0.1897
     45  C         29.1980   -6.1500   95.5740 C.2    78  THR78       0.2313
     46  O         30.3330   -5.6190   95.6750 O.2    78  THR78      -0.2863
     47  CB        28.7820   -8.6510   95.2780 C.3    78  THR78       0.1794
     48  OG1       29.9930   -8.8840   95.9520 O.3    78  THR78      -0.2208
     49  CG2       28.4340   -9.7390   94.4290 C.3    78  THR78       0.0378
     50  N         25.3850   -9.7440  100.1770 N.3   103  ASN103     -0.1225
     51  CA        26.3860   -9.2100   99.2420 C.3   103  ASN103      0.1785
     52  C         25.8580   -9.5480   97.8680 C.2   103  ASN103      0.2597
     53  O         25.8040  -10.7160   97.5200 O.2   103  ASN103     -0.2718
     54  CB        27.7710   -9.7490   99.5200 C.3   103  ASN103      0.1169
     55  CG        28.2080   -9.3080  100.8460 C.2   103  ASN103      0.2627
     56  OD1       28.7410   -8.1900  100.9900 O.2   103  ASN103     -0.2716
     57  ND2       28.0200  -10.1520  101.8330 N.am  103  ASN103     -0.0877
     58  N         25.2740   -8.5730   97.1490 N.am  104  LYS104     -0.1966
     59  CA        24.5590   -8.7750   95.8490 C.3   104  LYS104      0.1728
     60  C         25.0080   -7.6490   94.9860 C.2   104  LYS104      0.2616
     61  O         25.2780   -6.6030   95.3940 O.2   104  LYS104     -0.2715
     62  CB        23.0740   -8.6510   96.1240 C.3   104  LYS104      0.0311
     63  CG        22.5190   -9.8340   96.8580 C.3   104  LYS104      0.0038
     64  CD        21.0300   -9.7960   97.0770 C.3   104  LYS104      0.0206
     65  CE        20.3280  -10.4020   95.8910 C.3   104  LYS104      0.1093
     66  NZ        18.9310  -10.2020   96.3540 N.3   104  LYS104     -0.1314
     67  N         24.9400   -7.8310   93.6420 N.am  105  HIS105     -0.1973
     68  CA        25.0590   -6.7460   92.6990 C.3   105  HIS105      0.1656
     69  C         23.8490   -5.8180   92.8520 C.2   105  HIS105      0.2291
     70  O         22.7430   -6.3160   93.0930 O.2   105  HIS105     -0.2864
     71  CB        25.1230   -7.2450   91.2480 C.3   105  HIS105      0.0771
     72  CG        26.1810   -8.2550   90.9920 C.ar  105  HIS105      0.0820
     73  ND1       27.4150   -7.8780   90.5440 N.ar  105  HIS105     -0.2267
     74  CD2       26.2000   -9.6010   91.1170 C.ar  105  HIS105      0.1154
     75  CE1       28.1530   -8.9560   90.3460 C.ar  105  HIS105      0.1986
     76  NE2       27.4490  -10.0180   90.6850 N.ar  105  HIS105     -0.2212
     77  N         20.6990   -8.2740   92.5910 N.3   124  VAL124     -0.1245
     78  CA        20.7360   -9.5940   91.9540 C.3   124  VAL124      0.1561
     79  C         21.9760  -10.3970   92.3270 C.2   124  VAL124      0.2260
     80  O         23.0010   -9.7730   92.6910 O.2   124  VAL124     -0.2867
     81  CB        20.6110   -9.5230   90.3520 C.3   124  VAL124      0.0252
     82  CG1       19.2900   -8.9210   90.0160 C.3   124  VAL124      0.0019
     83  CG2       21.7590   -8.7530   89.7870 C.3   124  VAL124      0.0019
@<TRIPOS>BOND
     1     8     9    1
     2     8     7    1
     3    36    35    1
     4     6     7    1
     5     6     5    1
     6     3     2    1
     7     3     4    2
     8     2     5    1
     9     2     1    1
    10    35    33   ar
    11    35    34   ar
    12    33    31   ar
    13    34    32   ar
    14    31    30   ar
    15    32    30   ar
    16    30    29    1
    17    10    11    1
    18    17    16    2
    19    14    11    1
    20    14    15    1
    21    18    16   am
    22    13    12    2
    23    16    15    1
    24    29    26    1
    25    11    12    1
    26    12    19   am
    27    26    25    1
    28    26    27    1
    29    25    21   am
    30    21    22    2
    31    21    20    1
    32    19    20    1
    33    28    27    2
    34    27    37   am
    35    20    23    1
    36    83    81    1
    37    82    81    1
    38    75    73   ar
    39    75    76   ar
    40    81    78    1
    41    37    38    1
    42    73    72   ar
    43    76    74   ar
    44    72    74   ar
    45    72    71    1
    46    23    24    1
    47    71    68    1
    48    38    41    1
    49    38    39    1
    50    78    79    1
    51    78    77    1
    52    79    80    2
    53    41    42    1
    54    40    39    2
    55    39    43   am
    56    68    69    1
    57    68    67    1
    58    69    70    2
    59    43    44    1
    60    67    60   am
    61    49    47    1
    62    44    47    1
    63    44    45    1
    64    60    61    2
    65    60    59    1
    66    47    48    1
    67    45    46    2
    68    59    62    1
    69    59    58    1
    70    65    66    1
    71    65    64    1
    72    62    63    1
    73    63    64    1
    74    58    52   am
    75    53    52    2
    76    52    51    1
    77    51    54    1
    78    51    50    1
    79    54    55    1
    80    55    56    2
    81    55    57   am
