@<TRIPOS>MOLECULE
tmp/6f65A00.pdb
 143 137 0 0 0
SMALL
GASTEIGER

@<TRIPOS>ATOM
      1  N        -21.4660   16.9780   22.8400 N.3    60  LEU60      -0.1245
      2  CA       -20.0470   16.9000   23.1550 C.3    60  LEU60       0.1561
      3  C        -19.6100   15.4530   23.2860 C.2    60  LEU60       0.2260
      4  O        -18.5240   15.0860   22.8270 O.2    60  LEU60      -0.2867
      5  CB       -19.7370   17.6690   24.4390 C.3    60  LEU60       0.0270
      6  CG       -19.6750   19.2060   24.3670 C.3    60  LEU60       0.0019
      7  CD1      -19.5090   19.7830   25.7880 C.3    60  LEU60       0.0001
      8  CD2      -18.5420   19.6810   23.4670 C.3    60  LEU60       0.0001
      9  N        -19.1430   13.9610   19.8560 N.3    63  GLY63      -0.1210
     10  CA       -17.9040   14.3750   19.2200 C.3    63  GLY63       0.1956
     11  C        -16.6810   13.7190   19.8420 C.2    63  GLY63       0.2611
     12  O        -15.7080   13.4090   19.1480 O.2    63  GLY63      -0.2717
     13  N        -16.6960   13.5350   21.1620 N.am   64  PHE64      -0.1976
     14  CA       -15.5830   12.8730   21.8330 C.3    64  PHE64       0.1639
     15  C        -15.5020   11.4080   21.4230 C.2    64  PHE64       0.2290
     16  O        -14.4250   10.9160   21.0680 O.2    64  PHE64      -0.2864
     17  CB       -15.7400   12.9650   23.3440 C.3    64  PHE64       0.0560
     18  CG       -15.2420   14.2640   23.9490 C.ar   64  PHE64      -0.0200
     19  CD1      -13.9240   14.6540   23.7940 C.ar   64  PHE64      -0.0042
     20  CD2      -16.0830   15.0470   24.7290 C.ar   64  PHE64      -0.0042
     21  CE1      -13.4670   15.8340   24.3590 C.ar   64  PHE64      -0.0003
     22  CE2      -15.6390   16.2180   25.3030 C.ar   64  PHE64      -0.0003
     23  CZ       -14.3270   16.6100   25.1190 C.ar   64  PHE64      -0.0000
     24  N        -17.7040   18.7560   11.1750 N.3   130  TYR130     -0.1241
     25  CA       -17.1280   17.6620   11.9450 C.3   130  TYR130      0.1605
     26  C        -16.7470   16.5120   11.0240 C.2   130  TYR130      0.2264
     27  O        -15.6340   15.9870   11.1040 O.2   130  TYR130     -0.2867
     28  CB       -18.0930   17.1770   13.0110 C.3   130  TYR130      0.0534
     29  CG       -17.5360   16.0990   13.9310 C.ar  130  TYR130     -0.0201
     30  CD1      -16.9690   16.4290   15.1680 C.ar  130  TYR130     -0.0009
     31  CD2      -17.5910   14.7620   13.5830 C.ar  130  TYR130     -0.0009
     32  CE1      -16.4920   15.4500   16.0080 C.ar  130  TYR130      0.0417
     33  CE2      -17.0950   13.7700   14.4250 C.ar  130  TYR130      0.0417
     34  CZ       -16.5520   14.1220   15.6360 C.ar  130  TYR130      0.1957
     35  OH       -16.0800   13.1360   16.4750 O.3   130  TYR130     -0.2866
     36  N        -13.0160   14.6190   10.8740 N.3   134  PHE134     -0.1241
     37  CA       -12.8450   13.3110   11.4750 C.3   134  PHE134      0.1605
     38  C        -13.1520   12.1560   10.5330 C.2   134  PHE134      0.2264
     39  O        -12.5260   11.0960   10.6590 O.2   134  PHE134     -0.2867
     40  CB       -13.7430   13.2110   12.6920 C.3   134  PHE134      0.0534
     41  CG       -13.2290   13.9950   13.8720 C.ar  134  PHE134     -0.0203
     42  CD1      -12.2770   13.4500   14.6930 C.ar  134  PHE134     -0.0042
     43  CD2      -13.6870   15.2670   14.1330 C.ar  134  PHE134     -0.0042
     44  CE1      -11.7970   14.1480   15.7660 C.ar  134  PHE134     -0.0003
     45  CE2      -13.1900   15.9800   15.2250 C.ar  134  PHE134     -0.0003
     46  CZ       -12.2590   15.3940   16.0450 C.ar  134  PHE134     -0.0000
     47  N         -9.1300   20.8540   19.1980 N.3   169  LEU169     -0.1231
     48  CA       -10.5020   20.4250   19.4230 C.3   169  LEU169      0.1693
     49  C        -10.6440   19.7060   20.7380 C.2   169  LEU169      0.2592
     50  O        -11.5040   20.0520   21.5580 O.2   169  LEU169     -0.2718
     51  CB       -10.9700   19.5120   18.2910 C.3   169  LEU169      0.0284
     52  CG       -11.3700   20.3590   17.0980 C.3   169  LEU169      0.0019
     53  CD1      -11.4930   19.4270   15.8840 C.3   169  LEU169      0.0001
     54  CD2      -12.6780   21.0610   17.3700 C.3   169  LEU169      0.0001
     55  N         -9.8340   18.6830   20.9630 N.am  170  PHE170     -0.1976
     56  CA       -10.0030   17.9560   22.2110 C.3   170  PHE170      0.1639
     57  C         -9.7030   18.8660   23.4100 C.2   170  PHE170      0.2290
     58  O        -10.4370   18.8400   24.4050 O.2   170  PHE170     -0.2864
     59  CB        -9.1370   16.6960   22.2400 C.3   170  PHE170      0.0560
     60  CG        -9.6620   15.5550   21.3060 C.ar  170  PHE170     -0.0200
     61  CD1      -10.9040   15.6620   20.6640 C.ar  170  PHE170     -0.0042
     62  CD2       -8.9150   14.4020   21.0920 C.ar  170  PHE170     -0.0042
     63  CE1      -11.3780   14.6600   19.8500 C.ar  170  PHE170     -0.0003
     64  CE2       -9.3800   13.3900   20.2660 C.ar  170  PHE170     -0.0003
     65  CZ       -10.6160   13.5170   19.6540 C.ar  170  PHE170     -0.0000
     66  N        -10.0360   22.0320   23.7670 N.3   172  SER172     -0.1202
     67  CA       -11.1430   22.9560   23.9910 C.3   172  SER172      0.2020
     68  C        -12.3610   22.2240   24.5060 C.2   172  SER172      0.2619
     69  O        -13.0850   22.7430   25.3540 O.2   172  SER172     -0.2717
     70  CB       -11.4700   23.7240   22.7010 C.3   172  SER172      0.2103
     71  OG       -10.3360   24.4770   22.3070 O.3   172  SER172     -0.2182
     72  N        -12.6050   21.0110   24.0200 N.am  173  GLY173     -0.1956
     73  CA       -13.7520   20.2760   24.4900 C.3   173  GLY173      0.1869
     74  C        -13.5900   19.8380   25.9330 C.2   173  GLY173      0.2309
     75  O        -14.5620   19.8030   26.6860 O.2   173  GLY173     -0.2863
     76  N        -14.2870   22.9120   27.9810 N.3   176  THR176     -0.1218
     77  CA       -15.7220   23.1560   27.9680 C.3   176  THR176      0.1862
     78  C        -16.4420   22.2400   28.9360 C.2   176  THR176      0.2287
     79  O        -17.2710   22.6870   29.7380 O.2   176  THR176     -0.2866
     80  CB       -16.2500   22.9550   26.5460 C.3   176  THR176      0.1770
     81  OG1      -15.5740   23.8600   25.6780 O.3   176  THR176     -0.2211
     82  CG2      -17.7300   23.2050   26.4410 C.3   176  THR176      0.0375
     83  N        -17.5070   23.7050   13.2950 N.3   240  TYR240     -0.1227
     84  CA       -18.1140   22.8150   14.2680 C.3   240  TYR240      0.1736
     85  C        -18.3860   23.5660   15.5670 C.2   240  TYR240      0.2595
     86  O        -19.4040   23.3310   16.2180 O.2   240  TYR240     -0.2718
     87  CB       -17.2110   21.6230   14.4970 C.3   240  TYR240      0.0548
     88  CG       -17.6460   20.6300   15.5440 C.ar  240  TYR240     -0.0200
     89  CD1      -18.8450   19.9220   15.4270 C.ar  240  TYR240     -0.0009
     90  CD2      -16.8280   20.3670   16.6380 C.ar  240  TYR240     -0.0009
     91  CE1      -19.2080   18.9700   16.3880 C.ar  240  TYR240      0.0417
     92  CE2      -17.1880   19.4230   17.6020 C.ar  240  TYR240      0.0417
     93  CZ       -18.3610   18.7240   17.4640 C.ar  240  TYR240      0.1957
     94  OH       -18.7080   17.8090   18.4330 O.3   240  TYR240     -0.2866
     95  N        -17.4980   24.4860   15.9460 N.am  241  VAL241     -0.1980
     96  CA       -17.7110   25.2480   17.1780 C.3   241  VAL241      0.1595
     97  C        -18.9960   26.0690   17.0700 C.2   241  VAL241      0.2287
     98  O        -19.8760   25.9840   17.9330 O.2   241  VAL241     -0.2864
     99  CB       -16.4810   26.1220   17.4900 C.3   241  VAL241      0.0276
    100  CG1      -16.7700   27.1330   18.6210 C.3   241  VAL241      0.0022
    101  CG2      -15.3310   25.2440   17.8860 C.3   241  VAL241      0.0022
    102  N        -22.0330   23.7960   17.4900 N.3   244  LEU244     -0.1231
    103  CA       -22.2820   23.3960   18.8680 C.3   244  LEU244      0.1693
    104  C        -22.7880   24.5800   19.6850 C.2   244  LEU244      0.2592
    105  O        -23.6800   24.4200   20.5260 O.2   244  LEU244     -0.2718
    106  CB       -21.0030   22.8330   19.4940 C.3   244  LEU244      0.0284
    107  CG       -20.4390   21.4830   19.0660 C.3   244  LEU244      0.0019
    108  CD1      -19.1350   21.2820   19.8100 C.3   244  LEU244      0.0001
    109  CD2      -21.4050   20.3310   19.3500 C.3   244  LEU244      0.0001
    110  N        -22.2080   25.7680   19.4580 N.am  245  THR245     -0.1953
    111  CA       -22.6850   26.9970   20.0920 C.3   245  THR245      0.1897
    112  C        -24.1550   27.2400   19.7730 C.2   245  THR245      0.2313
    113  O        -24.9360   27.6330   20.6460 O.2   245  THR245     -0.2863
    114  CB       -21.8500   28.1920   19.6170 C.3   245  THR245      0.1794
    115  OG1      -20.5250   28.1200   20.1540 O.3   245  THR245     -0.2208
    116  CG2      -22.4760   29.5270   20.0490 C.3   245  THR245      0.0378
    117  N        -20.4660   31.3470   25.8450 N.3   264  TYR264     -0.1241
    118  CA       -19.9690   30.8190   24.5800 C.3   264  TYR264      0.1605
    119  C        -18.9550   31.7490   23.9480 C.2   264  TYR264      0.2264
    120  O        -18.0480   31.2840   23.2550 O.2   264  TYR264     -0.2867
    121  CB       -21.1140   30.5610   23.6190 C.3   264  TYR264      0.0534
    122  CG       -22.0500   29.5260   24.1550 C.ar  264  TYR264     -0.0201
    123  CD1      -21.6320   28.2130   24.3270 C.ar  264  TYR264     -0.0009
    124  CD2      -23.3390   29.8580   24.5230 C.ar  264  TYR264     -0.0009
    125  CE1      -22.4830   27.2530   24.8390 C.ar  264  TYR264      0.0417
    126  CE2      -24.2000   28.9060   25.0360 C.ar  264  TYR264      0.0417
    127  CZ       -23.7680   27.6090   25.1920 C.ar  264  TYR264      0.1957
    128  OH       -24.6290   26.6710   25.7070 O.3   264  TYR264     -0.2866
    129  N        -15.7940   30.4700   25.5450 N.3   267  LEU267     -0.1245
    130  CA       -15.3780   29.2210   24.9210 C.3   267  LEU267      0.1561
    131  C        -14.7350   29.4960   23.5710 C.2   267  LEU267      0.2260
    132  O        -13.5800   29.1280   23.3280 O.2   267  LEU267     -0.2867
    133  CB       -16.5780   28.2950   24.7660 C.3   267  LEU267      0.0270
    134  CG       -17.1950   27.8470   26.0870 C.3   267  LEU267      0.0019
    135  CD1      -18.4420   26.9710   25.8640 C.3   267  LEU267      0.0001
    136  CD2      -16.1580   27.1250   26.9430 C.3   267  LEU267      0.0001
    137  N        -10.9780   28.3160   22.0560 N.3   271  VAL271     -0.1245
    138  CA       -10.6260   27.6150   20.8160 C.3   271  VAL271      0.1561
    139  C         -9.5960   28.4060   20.0340 C.2   271  VAL271      0.2260
    140  O         -8.5720   27.8670   19.6000 O.2   271  VAL271     -0.2867
    141  CB       -11.8810   27.3630   19.9760 C.3   271  VAL271      0.0252
    142  CG1      -11.5240   26.7250   18.6370 C.3   271  VAL271      0.0019
    143  CG2      -12.7960   26.4860   20.7290 C.3   271  VAL271      0.0019
@<TRIPOS>BOND
     1    38    39    2
     2    38    37    1
     3    36    37    1
     4    26    27    2
     5    26    25    1
     6    24    25    1
     7    37    40    1
     8    25    28    1
     9    40    41    1
    10    28    29    1
    11    83    84    1
    12    31    29   ar
    13    31    33   ar
    14    41    43   ar
    15    41    42   ar
    16    29    30   ar
    17    43    45   ar
    18    84    87    1
    19    84    85    1
    20    33    34   ar
    21    87    88    1
    22    42    44   ar
    23    30    32   ar
    24    45    46   ar
    25    89    88   ar
    26    89    91   ar
    27    88    90   ar
    28    85    95   am
    29    85    86    2
    30    34    32   ar
    31    34    35    1
    32    44    46   ar
    33    53    52    1
    34    95    96    1
    35    91    93   ar
    36    90    92   ar
    37    97    96    1
    38    97    98    2
    39    52    54    1
    40    52    51    1
    41    96    99    1
    42    93    92   ar
    43    93    94    1
    44   102   103    1
    45    99   101    1
    46    99   100    1
    47    51    48    1
    48   142   141    1
    49   103   106    1
    50   103   104    1
    51   107   109    1
    52   107   106    1
    53   107   108    1
    54    12    11    2
    55    47    48    1
    56    10    11    1
    57    10     9    1
    58    48    49    1
    59   110   104   am
    60   110   111    1
    61   140   139    2
    62   114   116    1
    63   114   111    1
    64   114   115    1
    65    65    63   ar
    66    65    64   ar
    67   104   105    2
    68   112   111    1
    69   112   113    2
    70    11    13   am
    71    63    61   ar
    72   141   143    1
    73   141   138    1
    74   139   138    1
    75    64    62   ar
    76    61    60   ar
    77    49    55   am
    78    49    50    2
    79   138   137    1
    80    55    56    1
    81    16    15    2
    82    62    60   ar
    83    13    14    1
    84    60    59    1
    85    15    14    1
    86    14    17    1
    87    56    59    1
    88    56    57    1
    89    71    70    1
    90    70    67    1
    91     4     3    2
    92     1     2    1
    93     2     3    1
    94     2     5    1
    95   120   119    2
    96   132   131    2
    97    17    18    1
    98    57    58    2
    99     8     6    1
   100   131   130    1
   101   121   122    1
   102   121   118    1
   103    66    67    1
   104    19    18   ar
   105    19    21   ar
   106   119   118    1
   107    18    20   ar
   108    67    68    1
   109    72    73    1
   110    72    68   am
   111   122   123   ar
   112   122   124   ar
   113   123   125   ar
   114    21    23   ar
   115     6     5    1
   116     6     7    1
   117    73    74    1
   118    68    69    2
   119   124   126   ar
   120   118   117    1
   121    20    22   ar
   122   133   130    1
   123   133   134    1
   124   125   127   ar
   125   130   129    1
   126   126   127   ar
   127    23    22   ar
   128   127   128    1
   129    81    80    1
   130   135   134    1
   131    74    75    2
   132   134   136    1
   133    82    80    1
   134    80    77    1
   135    77    76    1
   136    77    78    1
   137    78    79    2
