@<TRIPOS>MOLECULE
tmp/6f67B02.pdb
 142 141 0 0 0
SMALL
GASTEIGER

@<TRIPOS>ATOM
      1  N          6.1590   -7.9080    4.2750 N.3    11  PHE11      -0.1241
      2  CA         5.3960   -7.9470    5.5190 C.3    11  PHE11       0.1605
      3  C          5.3300   -6.5820    6.2060 C.2    11  PHE11       0.2264
      4  O          4.4510   -6.3710    7.0350 O.2    11  PHE11      -0.2867
      5  CB         6.0100   -8.9870    6.4870 C.3    11  PHE11       0.0534
      6  CG         7.2600   -8.4950    7.1810 C.ar   11  PHE11      -0.0203
      7  CD1        7.1970   -7.8200    8.3900 C.ar   11  PHE11      -0.0042
      8  CD2        8.4900   -8.6640    6.5960 C.ar   11  PHE11      -0.0042
      9  CE1        8.3500   -7.3440    8.9950 C.ar   11  PHE11      -0.0003
     10  CE2        9.6480   -8.1940    7.2100 C.ar   11  PHE11      -0.0003
     11  CZ         9.5710   -7.5260    8.3880 C.ar   11  PHE11      -0.0000
     12  N          4.5810   -2.9930    7.4630 N.3    13  PRO13      -0.2102
     13  CA         3.7370   -1.7950    7.2740 C.3    13  PRO13       0.1504
     14  C          4.5280   -0.4860    7.2510 C.2    13  PRO13       0.2575
     15  O          4.0790    0.5120    6.6650 O.2    13  PRO13      -0.2718
     16  CB         2.7780   -1.8430    8.4770 C.3    13  PRO13       0.0282
     17  CG         3.4940   -2.6370    9.5130 C.3    13  PRO13       0.0208
     18  CD         4.3740   -3.6170    8.7780 C.3    13  PRO13       0.0893
     19  N          5.6910   -0.4340    7.8880 N.am   14  TYR14      -0.1977
     20  CA         6.4720    0.7920    7.8210 C.3    14  TYR14       0.1639
     21  C          7.0060    1.0080    6.4130 C.2    14  TYR14       0.2290
     22  O          6.8860    2.0970    5.8640 O.2    14  TYR14      -0.2864
     23  CB         7.6120    0.7490    8.8240 C.3    14  TYR14       0.0560
     24  CG         7.1700    0.6610   10.2630 C.ar   14  TYR14      -0.0198
     25  CD1        6.8630    1.8100   10.9920 C.ar   14  TYR14      -0.0009
     26  CD2        7.0790   -0.5770   10.8930 C.ar   14  TYR14      -0.0009
     27  CE1        6.4420    1.7260   12.2960 C.ar   14  TYR14       0.0417
     28  CE2        6.6740   -0.6730   12.1940 C.ar   14  TYR14       0.0417
     29  CZ         6.3420    0.4890   12.8900 C.ar   14  TYR14       0.1957
     30  OH         5.9550    0.4000   14.1790 O.3    14  TYR14      -0.2866
     31  N         -0.1710    2.5460   17.5400 N.3   117  ASN117     -0.1240
     32  CA         0.8530    1.6270   17.0570 C.3   117  ASN117      0.1653
     33  C          1.3540    0.7040   18.1620 C.2   117  ASN117      0.2266
     34  O          1.5440   -0.5000   17.9430 O.2   117  ASN117     -0.2867
     35  CB         2.0030    2.4360   16.4760 C.3   117  ASN117      0.1155
     36  CG         2.8570    1.6570   15.5250 C.2   117  ASN117      0.2627
     37  OD1        2.3830    0.8440   14.7320 O.2   117  ASN117     -0.2716
     38  ND2        4.1460    1.9190   15.5850 N.am  117  ASN117     -0.0877
     39  N         -1.1200   -2.1220   18.7710 N.3   120  PHE120     -0.1227
     40  CA        -1.0050   -3.1890   17.7850 C.3   120  PHE120      0.1736
     41  C          0.1700   -4.0990   18.1080 C.2   120  PHE120      0.2598
     42  O          0.0040   -5.3170   18.2170 O.2   120  PHE120     -0.2717
     43  CB        -0.8560   -2.6170   16.3890 C.3   120  PHE120      0.0547
     44  CG        -2.1540   -2.3140   15.7130 C.ar  120  PHE120     -0.0202
     45  CD1       -3.2080   -3.2110   15.7640 C.ar  120  PHE120     -0.0042
     46  CD2       -2.3240   -1.1340   15.0110 C.ar  120  PHE120     -0.0042
     47  CE1       -4.3800   -2.9320   15.1450 C.ar  120  PHE120     -0.0003
     48  CE2       -3.5070   -0.8660   14.3630 C.ar  120  PHE120     -0.0003
     49  CZ        -4.5410   -1.7470   14.4330 C.ar  120  PHE120     -0.0000
     50  N          1.3620   -3.5280   18.2880 N.am  121  ARG121     -0.1934
     51  CA         2.5270   -4.3620   18.5140 C.3   121  ARG121      0.1813
     52  C          2.3360   -5.2160   19.7630 C.2   121  ARG121      0.2332
     53  O          2.6420   -6.4190   19.7520 O.2   121  ARG121     -0.2860
     54  CB         3.8040   -3.5020   18.5790 C.2   121  ARG121      0.0019
     55  CG         4.7580   -3.7950   19.7620 C.2   121  ARG121      0.0178
     56  CD         6.1160   -3.0410   19.7430 C.3   121  ARG121      0.2464
     57  NE         6.0580   -1.5830   19.9750 N.pl3 121  ARG121     -0.0815
     58  CZ         5.6080   -0.9790   21.0800 C.cat 121  ARG121      0.5349
     59  NH1        5.1110   -1.6740   22.0970 N.pl3 121  ARG121      0.1354
     60  NH2        5.6290    0.3480   21.1640 N.pl3 121  ARG121      0.1354
     61  N         -0.5550   -7.9650   19.3430 N.3   124  TRP124     -0.1227
     62  CA        -0.1540   -8.9610   18.3560 C.3   124  TRP124      0.1737
     63  C          1.1000   -9.7140   18.7760 C.2   124  TRP124      0.2595
     64  O          1.1330  -10.9430   18.6640 O.2   124  TRP124     -0.2718
     65  CB         0.0340   -8.3170   16.9750 C.3   124  TRP124      0.0564
     66  CG        -1.1100   -8.6780   16.0490 C.ar  124  TRP124      0.0003
     67  CD1       -1.1000   -9.6250   15.0710 C.ar  124  TRP124      0.0946
     68  CD2       -2.4280   -8.1160   16.0470 C.ar  124  TRP124      0.0152
     69  NE1       -2.3140   -9.6730   14.4470 N.ar  124  TRP124     -0.2442
     70  CE2       -3.1520   -8.7590   15.0320 C.ar  124  TRP124      0.0810
     71  CE3       -3.0660   -7.1130   16.8000 C.ar  124  TRP124      0.0012
     72  CZ2       -4.4920   -8.4390   14.7530 C.ar  124  TRP124      0.0191
     73  CZ3       -4.3730   -6.8000   16.5170 C.ar  124  TRP124      0.0001
     74  CH2       -5.0740   -7.4520   15.5060 C.ar  124  TRP124      0.0015
     75  N          2.1370   -9.0170   19.2750 N.am  125  PHE125     -0.1976
     76  CA         3.4080   -9.6890   19.5640 C.3   125  PHE125      0.1639
     77  C          3.5370  -10.1740   20.9980 C.2   125  PHE125      0.2290
     78  O          4.3370  -11.0780   21.2510 O.2   125  PHE125     -0.2864
     79  CB         4.5890   -8.7780   19.2410 C.3   125  PHE125      0.0560
     80  CG         4.6160   -8.3180   17.7910 C.ar  125  PHE125     -0.0200
     81  CD1        4.2650   -9.1710   16.7800 C.ar  125  PHE125     -0.0042
     82  CD2        4.9540   -7.0380   17.4560 C.ar  125  PHE125     -0.0042
     83  CE1        4.2670   -8.7620   15.4740 C.ar  125  PHE125     -0.0003
     84  CE2        4.9340   -6.6300   16.1510 C.ar  125  PHE125     -0.0003
     85  CZ         4.5940   -7.4990   15.1660 C.ar  125  PHE125     -0.0000
     86  N         -1.3700   -0.3980    8.5650 N.3   165  PHE165     -0.1241
     87  CA        -1.5970   -1.1220    9.8070 C.3   165  PHE165      0.1605
     88  C         -3.0540   -1.5410    9.9160 C.2   165  PHE165      0.2264
     89  O         -3.3440   -2.6740   10.3060 O.2   165  PHE165     -0.2867
     90  CB        -1.1610   -0.2770   11.0220 C.3   165  PHE165      0.0534
     91  CG         0.3080   -0.0160   11.0610 C.ar  165  PHE165     -0.0203
     92  CD1        0.8650    1.0480   10.3490 C.ar  165  PHE165     -0.0042
     93  CD2        1.1510   -0.8670   11.7540 C.ar  165  PHE165     -0.0042
     94  CE1        2.2530    1.2600   10.3550 C.ar  165  PHE165     -0.0003
     95  CE2        2.4990   -0.6410   11.7730 C.ar  165  PHE165     -0.0003
     96  CZ         3.0480    0.4400   11.0630 C.ar  165  PHE165     -0.0000
     97  N         -3.9390   -4.2720    7.3710 N.3   168  ARG168     -0.1231
     98  CA        -3.4510   -5.5620    7.8210 C.3   168  ARG168      0.1694
     99  C         -4.3420   -6.1430    8.9100 C.2   168  ARG168      0.2591
    100  O         -4.5200   -7.3630    8.9700 O.2   168  ARG168     -0.2718
    101  CB        -2.0070   -5.4380    8.2980 C.3   168  ARG168      0.0321
    102  CG        -1.0150   -5.6730    7.1870 C.3   168  ARG168      0.0489
    103  CD         0.3650   -5.3000    7.6030 C.3   168  ARG168      0.2205
    104  NE         1.3480   -5.4650    6.5320 N.pl3 168  ARG168     -0.0865
    105  CZ         1.5340   -4.6140    5.5270 C.cat 168  ARG168      0.5346
    106  NH1        0.8020   -3.5300    5.4210 N.pl3 168  ARG168      0.1354
    107  NH2        2.4830   -4.8520    4.6360 N.pl3 168  ARG168      0.1354
    108  N         -4.9360   -5.2950    9.7590 N.am  169  MET169     -0.1979
    109  CA        -5.5950   -5.8070   10.9680 C.3   169  MET169      0.1605
    110  C         -6.7240   -6.7800   10.6410 C.2   169  MET169      0.2287
    111  O         -6.8890   -7.8060   11.3250 O.2   169  MET169     -0.2864
    112  CB        -6.1480   -4.6680   11.8010 C.3   169  MET169      0.0413
    113  CG        -6.8770   -5.1130   13.0910 C.3   169  MET169      0.0598
    114  SD        -7.9490   -3.8180   13.7490 S.3   169  MET169     -0.1393
    115  CE        -8.0840   -4.3110   15.4550 C.3   169  MET169      0.0692
    116  N         -5.4590  -10.2210    9.0960 N.3   172  TYR172     -0.1241
    117  CA        -4.7200  -10.9290   10.1330 C.3   172  TYR172      0.1605
    118  C         -5.6710  -11.5190   11.1540 C.2   172  TYR172      0.2264
    119  O         -5.4910  -12.6650   11.5850 O.2   172  TYR172     -0.2867
    120  CB        -3.7200  -10.0120   10.8380 C.3   172  TYR172      0.0534
    121  CG        -2.4630   -9.6050   10.0610 C.ar  172  TYR172     -0.0201
    122  CD1       -2.3280   -9.8490    8.7020 C.ar  172  TYR172     -0.0009
    123  CD2       -1.4160   -8.9630   10.7060 C.ar  172  TYR172     -0.0009
    124  CE1       -1.1890   -9.4660    8.0230 C.ar  172  TYR172      0.0417
    125  CE2       -0.2800   -8.5820   10.0190 C.ar  172  TYR172      0.0417
    126  CZ        -0.1800   -8.8310    8.6810 C.ar  172  TYR172      0.1957
    127  OH         0.9550   -8.4430    8.0040 O.3   172  TYR172     -0.2866
    128  N          7.3340  -13.8100   10.0590 N.3   230  VAL230     -0.1245
    129  CA         7.8010  -12.9840   11.1210 C.3   230  VAL230      0.1561
    130  C          7.9560  -13.7910   12.3640 C.2   230  VAL230      0.2260
    131  O          7.0120  -14.2870   12.9080 O.2   230  VAL230     -0.2867
    132  CB         6.8560  -11.8400   11.4160 C.3   230  VAL230      0.0252
    133  CG1        7.3530  -11.0130   12.5570 C.3   230  VAL230      0.0019
    134  CG2        6.6580  -10.9870   10.1980 C.3   230  VAL230      0.0019
    135  N          5.8280  -13.6350   15.4530 N.3   233  LEU233     -0.1245
    136  CA         4.5000  -14.0720   15.2170 C.3   233  LEU233      0.1561
    137  C          4.6660  -15.5520   15.2730 C.2   233  LEU233      0.2260
    138  O          4.4720  -16.2710   14.3300 O.2   233  LEU233     -0.2867
    139  CB         3.9310  -13.5680   13.9240 C.3   233  LEU233      0.0270
    140  CG         3.4000  -12.1840   14.2020 C.3   233  LEU233      0.0019
    141  CD1        3.0410  -11.3670   12.9810 C.3   233  LEU233      0.0001
    142  CD2        2.2380  -12.2770   15.1610 C.3   233  LEU233      0.0001
@<TRIPOS>BOND
     1     1     2    1
     2   107   105    1
     3   106   105    1
     4     2     3    1
     5     2     5    1
     6   105   104    2
     7    22    21    2
     8     3     4    2
     9    21    20    1
    10     5     6    1
    11   104   103    1
    12     8     6   ar
    13     8    10   ar
    14    15    14    2
    15     6     7   ar
    16   102   103    1
    17   102   101    1
    18    10    11   ar
    19    14    13    1
    20    14    19   am
    21    13    12    1
    22    13    16    1
    23    97    98    1
    24    12    18    1
    25    98   101    1
    26    98    99    1
    27    20    19    1
    28    20    23    1
    29   127   126    1
    30   124   126   ar
    31   124   122   ar
    32    11     9   ar
    33     7     9   ar
    34    16    17    1
    35    86    87    1
    36   126   125   ar
    37   122   121   ar
    38    18    17    1
    39    23    24    1
    40    99   100    2
    41    99   108   am
    42   116   117    1
    43   108   109    1
    44    87    88    1
    45    87    90    1
    46    88    89    2
    47   125   123   ar
    48   128   129    1
    49   121   123   ar
    50   121   120    1
    51   117   120    1
    52   117   118    1
    53   134   132    1
    54    24    26   ar
    55    24    25   ar
    56    92    94   ar
    57    92    91   ar
    58    94    96   ar
    59   110   109    1
    60   110   111    2
    61    26    28   ar
    62   109   112    1
    63    25    27   ar
    64    90    91    1
    65    91    93   ar
    66    96    95   ar
    67   129   132    1
    68   129   130    1
    69   118   119    2
    70   132   133    1
    71    93    95   ar
    72   112   113    1
    73    28    29   ar
    74    27    29   ar
    75   130   131    2
    76    29    30    1
    77   141   140    1
    78   113   114    1
    79   114   115    1
    80   139   140    1
    81   139   136    1
    82   140   142    1
    83   138   137    2
    84    48    49   ar
    85    48    46   ar
    86    49    47   ar
    87    69    70   ar
    88    69    67   ar
    89    37    36    2
    90    72    70   ar
    91    72    74   ar
    92    46    44   ar
    93    70    68   ar
    94    67    66   ar
    95    47    45   ar
    96    85    83   ar
    97    85    84   ar
    98   136   137    1
    99   136   135    1
   100    83    81   ar
   101    74    73   ar
   102    36    38   am
   103    36    35    1
   104    44    45   ar
   105    44    43    1
   106    68    66   ar
   107    68    71   ar
   108    66    65    1
   109    84    82   ar
   110    43    40    1
   111    35    32    1
   112    73    71   ar
   113    81    80   ar
   114    65    62    1
   115    32    31    1
   116    32    33    1
   117    82    80   ar
   118    40    41    1
   119    40    39    1
   120    80    79    1
   121    34    33    2
   122    41    42    2
   123    41    50   am
   124    50    51    1
   125    62    63    1
   126    62    61    1
   127    51    54    1
   128    51    52    1
   129    54    55    2
   130    64    63    2
   131    63    75   am
   132    79    76    1
   133    75    76    1
   134    76    77    1
   135    56    55    1
   136    56    57    1
   137    53    52    2
   138    57    58    2
   139    77    78    2
   140    58    60    1
   141    58    59    1
