@<TRIPOS>MOLECULE
tmp/6f68A00.pdb
 161 159 0 0 0
SMALL
GASTEIGER

@<TRIPOS>ATOM
      1  N         -6.5130  -20.4280   35.8010 N.3    11  PHE11      -0.1227
      2  CA        -7.1880  -19.1460   35.7420 C.3    11  PHE11       0.1736
      3  C         -7.2250  -18.5440   34.3370 C.2    11  PHE11       0.2596
      4  O         -8.0750  -17.6830   34.0910 O.2    11  PHE11      -0.2718
      5  CB        -6.5140  -18.1550   36.6990 C.3    11  PHE11       0.0547
      6  CG        -5.1630  -17.7030   36.2400 C.ar   11  PHE11      -0.0202
      7  CD1       -5.0570  -16.7110   35.2950 C.ar   11  PHE11      -0.0042
      8  CD2       -4.0050  -18.3010   36.7060 C.ar   11  PHE11      -0.0042
      9  CE1       -3.8330  -16.2880   34.8410 C.ar   11  PHE11      -0.0003
     10  CE2       -2.7600  -17.8560   36.2370 C.ar   11  PHE11      -0.0003
     11  CZ        -2.7020  -16.8920   35.2950 C.ar   11  PHE11      -0.0000
     12  N         -6.3570  -18.9770   33.4300 N.am   12  SER12      -0.1938
     13  CA        -6.1110  -18.2260   32.1910 C.3    12  SER12       0.2040
     14  C         -7.1670  -18.5100   31.1290 C.2    12  SER12       0.2485
     15  O         -7.2350  -19.6370   30.6240 O.2    12  SER12      -0.2729
     16  CB        -4.7420  -18.5730   31.6280 C.3    12  SER12       0.2129
     17  OG        -4.6110  -17.9840   30.3300 O.3    12  SER12      -0.2179
     18  N         -7.9930  -17.5330   30.7450 N.am   13  PRO13      -0.2715
     19  CA        -8.9000  -17.7760   29.6120 C.3    13  PRO13       0.1536
     20  C         -8.1650  -17.9520   28.2900 C.2    13  PRO13       0.2598
     21  O         -8.6940  -18.6040   27.3880 O.2    13  PRO13      -0.2715
     22  CB        -9.7930  -16.5300   29.5970 C.3    13  PRO13       0.0310
     23  CG        -8.8950  -15.4640   30.2140 C.3    13  PRO13       0.0237
     24  CD        -8.1460  -16.1830   31.3150 C.3    13  PRO13       0.0939
     25  N         -6.9990  -17.3260   28.1220 N.am   14  TYR14      -0.1974
     26  CA        -6.2400  -17.4760   26.8860 C.3    14  TYR14       0.1639
     27  C         -5.7500  -18.9020   26.7120 C.2    14  TYR14       0.2290
     28  O         -5.8360  -19.4540   25.6150 O.2    14  TYR14      -0.2864
     29  CB        -5.0510  -16.5030   26.8720 C.3    14  TYR14       0.0560
     30  CG        -5.4960  -15.0670   26.8710 C.ar   14  TYR14      -0.0198
     31  CD1       -5.9120  -14.4660   25.6860 C.ar   14  TYR14      -0.0009
     32  CD2       -5.5190  -14.3380   28.0310 C.ar   14  TYR14      -0.0009
     33  CE1       -6.3240  -13.1330   25.6750 C.ar   14  TYR14       0.0417
     34  CE2       -5.9320  -13.0180   28.0280 C.ar   14  TYR14       0.0417
     35  CZ        -6.3100  -12.4310   26.8410 C.ar   14  TYR14       0.1957
     36  OH        -6.7110  -11.1060   26.8020 O.3    14  TYR14      -0.2866
     37  N          2.1310  -15.8140   36.9840 N.3    37  LEU37      -0.1245
     38  CA         1.9190  -14.4680   37.5320 C.3    37  LEU37       0.1561
     39  C          2.6080  -14.2420   38.8730 C.2    37  LEU37       0.2260
     40  O          2.7060  -13.0840   39.3150 O.2    37  LEU37      -0.2867
     41  CB         0.4320  -14.1830   37.6910 C.3    37  LEU37       0.0270
     42  CG        -0.4290  -14.2120   36.4160 C.3    37  LEU37       0.0019
     43  CD1       -1.8480  -13.8000   36.7420 C.3    37  LEU37       0.0001
     44  CD2        0.1100  -13.3440   35.2690 C.3    37  LEU37       0.0001
     45  N        -12.8720   -7.6590   24.6100 N.3   117  ASN117     -0.1240
     46  CA       -11.9030   -8.0810   25.6140 C.3   117  ASN117      0.1653
     47  C        -11.4020   -6.8950   26.4350 C.2   117  ASN117      0.2266
     48  O        -11.2630   -6.9980   27.6550 O.2   117  ASN117     -0.2867
     49  CB       -10.7420   -8.8020   24.9380 C.3   117  ASN117      0.1155
     50  CG        -9.9300   -9.6350   25.9110 C.2   117  ASN117      0.2627
     51  OD1      -10.4700  -10.3680   26.7360 O.2   117  ASN117     -0.2716
     52  ND2       -8.6120   -9.5100   25.8250 N.am  117  ASN117     -0.0877
     53  N        -13.8960   -5.9820   29.1370 N.3   120  PHE120     -0.1227
     54  CA       -13.7530   -6.8870   30.2740 C.3   120  PHE120      0.1736
     55  C        -12.5580   -6.4720   31.1280 C.2   120  PHE120      0.2595
     56  O        -12.6270   -6.4440   32.3740 O.2   120  PHE120     -0.2718
     57  CB       -13.5950   -8.3320   29.7950 C.3   120  PHE120      0.0547
     58  CG       -14.8970   -9.0830   29.6140 C.ar  120  PHE120     -0.0202
     59  CD1      -15.8330   -9.1630   30.6520 C.ar  120  PHE120     -0.0042
     60  CD2      -15.1810   -9.7220   28.4170 C.ar  120  PHE120     -0.0042
     61  CE1      -17.0120   -9.8740   30.4840 C.ar  120  PHE120     -0.0003
     62  CE2      -16.3790  -10.4450   28.2360 C.ar  120  PHE120     -0.0003
     63  CZ       -17.2840  -10.5290   29.2620 C.ar  120  PHE120     -0.0000
     64  N        -11.4480   -6.1340   30.4770 N.am  121  ARG121     -0.1980
     65  CA       -10.2380   -5.7860   31.2160 C.3   121  ARG121      0.1597
     66  C        -10.4390   -4.5250   32.0370 C.2   121  ARG121      0.2287
     67  O        -10.0710   -4.4860   33.2140 O.2   121  ARG121     -0.2864
     68  CB        -9.0620   -5.6310   30.2500 C.3   121  ARG121      0.0334
     69  CG        -8.5790   -6.9570   29.6940 C.3   121  ARG121      0.0492
     70  CD        -7.3870   -6.8250   28.7450 C.3   121  ARG121      0.2205
     71  NE        -6.1990   -6.3270   29.4370 N.pl3 121  ARG121     -0.0865
     72  CZ        -5.3110   -7.0930   30.0720 C.cat 121  ARG121      0.5346
     73  NH1       -5.4500   -8.4240   30.1230 N.pl3 121  ARG121      0.1354
     74  NH2       -4.2760   -6.5190   30.6700 N.pl3 121  ARG121      0.1354
     75  N        -13.0540   -5.2880   35.0170 N.3   124  TRP124     -0.1227
     76  CA       -12.5740   -6.2260   36.0360 C.3   124  TRP124      0.1737
     77  C        -11.2650   -5.7800   36.6840 C.2   124  TRP124      0.2595
     78  O        -11.0570   -6.0440   37.8700 O.2   124  TRP124     -0.2718
     79  CB       -12.4050   -7.6440   35.4480 C.3   124  TRP124      0.0564
     80  CG       -13.5350   -8.5430   35.8620 C.ar  124  TRP124      0.0003
     81  CD1      -13.5050   -9.4990   36.8310 C.ar  124  TRP124      0.0946
     82  CD2      -14.8720   -8.5270   35.3600 C.ar  124  TRP124      0.0152
     83  NE1      -14.7220  -10.0920   36.9490 N.ar  124  TRP124     -0.2442
     84  CE2      -15.5930   -9.5020   36.0720 C.ar  124  TRP124      0.0810
     85  CE3      -15.5360   -7.7680   34.3920 C.ar  124  TRP124      0.0012
     86  CZ2      -16.9260   -9.7730   35.8020 C.ar  124  TRP124      0.0191
     87  CZ3      -16.8500   -8.0100   34.1460 C.ar  124  TRP124      0.0001
     88  CH2      -17.5420   -9.0070   34.8410 C.ar  124  TRP124      0.0015
     89  N        -10.3710   -5.1150   35.9480 N.am  125  PHE125     -0.1976
     90  CA        -9.0830   -4.7350   36.5280 C.3   125  PHE125      0.1639
     91  C         -9.0330   -3.2800   36.9800 C.2   125  PHE125      0.2290
     92  O         -8.2440   -2.9590   37.8820 O.2   125  PHE125     -0.2864
     93  CB        -7.9560   -4.9840   35.5310 C.3   125  PHE125      0.0560
     94  CG        -7.7750   -6.4330   35.1470 C.ar  125  PHE125     -0.0200
     95  CD1       -8.0080   -7.4370   36.0390 C.ar  125  PHE125     -0.0042
     96  CD2       -7.3720   -6.7720   33.8660 C.ar  125  PHE125     -0.0042
     97  CE1       -7.8350   -8.7670   35.6780 C.ar  125  PHE125     -0.0003
     98  CE2       -7.2000   -8.0830   33.5140 C.ar  125  PHE125     -0.0003
     99  CZ        -7.4370   -9.0780   34.4270 C.ar  125  PHE125     -0.0000
    100  N        -13.9810  -16.5090   28.0860 N.3   165  PHE165     -0.1241
    101  CA       -14.2340  -15.2200   28.7150 C.3   165  PHE165      0.1605
    102  C        -15.6950  -15.0900   29.1720 C.2   165  PHE165      0.2264
    103  O        -15.9690  -14.6370   30.2950 O.2   165  PHE165     -0.2867
    104  CB       -13.8340  -14.1190   27.7350 C.3   165  PHE165      0.0534
    105  CG       -12.3550  -14.1060   27.4350 C.ar  165  PHE165     -0.0203
    106  CD1      -11.8220  -14.8720   26.4050 C.ar  165  PHE165     -0.0042
    107  CD2      -11.4850  -13.3760   28.2310 C.ar  165  PHE165     -0.0042
    108  CE1      -10.4310  -14.8740   26.1670 C.ar  165  PHE165     -0.0003
    109  CE2      -10.1060  -13.3830   27.9890 C.ar  165  PHE165     -0.0003
    110  CZ        -9.5960  -14.1330   26.9660 C.ar  165  PHE165     -0.0000
    111  N        -16.3670  -17.3610   32.2900 N.3   168  ARG168     -0.1231
    112  CA       -15.8990  -16.8160   33.5580 C.3   168  ARG168      0.1694
    113  C        -16.7980  -15.6940   34.0740 C.2   168  ARG168      0.2591
    114  O        -16.8490  -15.4420   35.2850 O.2   168  ARG168     -0.2718
    115  CB       -14.4380  -16.3270   33.4180 C.3   168  ARG168      0.0321
    116  CG       -13.4350  -17.4900   33.3120 C.3   168  ARG168      0.0489
    117  CD       -12.0670  -17.0390   32.8360 C.3   168  ARG168      0.2205
    118  NE       -11.1030  -18.1050   33.0490 N.pl3 168  ARG168     -0.0865
    119  CZ       -11.0510  -19.2500   32.3530 C.cat 168  ARG168      0.5346
    120  NH1      -11.8840  -19.4620   31.3380 N.pl3 168  ARG168      0.1354
    121  NH2      -10.1680  -20.1660   32.6750 N.pl3 168  ARG168      0.1354
    122  N        -17.4650  -14.9630   33.1810 N.am  169  MET169     -0.1979
    123  CA       -18.1590  -13.7430   33.6000 C.3   169  MET169      0.1605
    124  C        -19.1910  -14.0330   34.6840 C.2   169  MET169      0.2287
    125  O        -19.2370  -13.3360   35.7050 O.2   169  MET169     -0.2864
    126  CB       -18.8470  -13.0650   32.4190 C.3   169  MET169      0.0413
    127  CG       -19.5260  -11.7080   32.7890 C.3   169  MET169      0.0598
    128  SD       -20.4900  -11.0720   31.3950 S.3   169  MET169     -0.1393
    129  CE       -20.8150   -9.4000   31.9450 C.3   169  MET169      0.0692
    130  N        -17.6510  -15.1960   38.1970 N.3   172  TYR172     -0.1241
    131  CA       -16.9040  -14.0900   38.7860 C.3   172  TYR172      0.1605
    132  C        -17.8530  -13.0340   39.3550 C.2   172  TYR172      0.2264
    133  O        -17.6210  -12.4970   40.4440 O.2   172  TYR172     -0.2867
    134  CB       -15.9730  -13.4350   37.7690 C.3   172  TYR172      0.0534
    135  CG       -14.7310  -14.2520   37.3480 C.ar  172  TYR172     -0.0201
    136  CD1      -14.6050  -15.6170   37.6150 C.ar  172  TYR172     -0.0009
    137  CD2      -13.7040  -13.6430   36.6420 C.ar  172  TYR172     -0.0009
    138  CE1      -13.4640  -16.3500   37.1940 C.ar  172  TYR172      0.0417
    139  CE2      -12.5750  -14.3660   36.2390 C.ar  172  TYR172      0.0417
    140  CZ       -12.4750  -15.7090   36.5080 C.ar  172  TYR172      0.1957
    141  OH       -11.3920  -16.4310   36.0850 O.3   172  TYR172     -0.2866
    142  N         -9.0020  -17.8290   40.0680 N.3   227  ALA227     -0.1245
    143  CA        -8.9600  -16.4250   39.6930 C.3   227  ALA227      0.1562
    144  C         -8.5790  -15.5290   40.8800 C.2   227  ALA227      0.2260
    145  O         -7.9690  -14.4720   40.6900 O.2   227  ALA227     -0.2867
    146  CB       -10.3100  -15.9890   39.1130 C.3   227  ALA227      0.0290
    147  N         -4.9810  -14.3310   41.0600 N.3   230  VAL230     -0.1245
    148  CA        -4.5030  -13.3780   40.0570 C.3   230  VAL230      0.1561
    149  C         -4.2640  -12.0280   40.7240 C.2   230  VAL230      0.2260
    150  O         -5.2270  -11.3770   41.1620 O.2   230  VAL230     -0.2867
    151  CB        -5.5100  -13.2350   38.9020 C.3   230  VAL230      0.0252
    152  CG1       -5.0560  -12.1510   37.9190 C.3   230  VAL230      0.0019
    153  CG2       -5.7000  -14.5690   38.1950 C.3   230  VAL230      0.0019
    154  N         -6.6080   -9.0210   39.8460 N.3   233  LEU233     -0.1245
    155  CA        -7.9950   -9.0530   40.2800 C.3   233  LEU233      0.1561
    156  C         -8.1760   -8.5880   41.7170 C.2   233  LEU233      0.2260
    157  O         -9.3190   -8.4340   42.1410 O.2   233  LEU233     -0.2867
    158  CB        -8.5850  -10.4610   40.1250 C.3   233  LEU233      0.0270
    159  CG        -8.9280  -10.7880   38.6740 C.3   233  LEU233      0.0019
    160  CD1       -9.3870  -12.2230   38.5390 C.3   233  LEU233      0.0001
    161  CD2      -10.0130   -9.8680   38.1290 C.3   233  LEU233      0.0001
@<TRIPOS>BOND
     1    45    46    1
     2    49    46    1
     3    49    50    1
     4    46    47    1
     5    28    27    2
     6    33    31   ar
     7    33    35   ar
     8    31    30   ar
     9    52    50   am
    10    50    51    2
    11   108   106   ar
    12   108   110   ar
    13   106   105   ar
    14    47    48    2
    15    27    26    1
    16    36    35    1
    17    35    34   ar
    18    30    29    1
    19    30    32   ar
    20    29    26    1
    21    26    25    1
    22   110   109   ar
    23    21    20    2
    24   105   104    1
    25   105   107   ar
    26   104   101    1
    27   109   107   ar
    28    34    32   ar
    29   100   101    1
    30    25    20   am
    31    62    60   ar
    32    62    63   ar
    33    20    19    1
    34    60    58   ar
    35   101   102    1
    36    70    71    1
    37    70    69    1
    38    53    54    1
    39   102   103    2
    40    63    61   ar
    41    71    72    2
    42    22    19    1
    43    22    23    1
    44    19    18    1
    45    58    57    1
    46    58    59   ar
    47    69    68    1
    48    57    54    1
    49    72    73    1
    50    72    74    1
    51    23    24    1
    52    68    65    1
    53    54    55    1
    54    17    16    1
    55    64    55   am
    56    64    65    1
    57    61    59   ar
    58    15    14    2
    59    18    14   am
    60    18    24    1
    61    55    56    2
    62    14    13    1
    63    65    66    1
    64   120   119    1
    65   128   129    1
    66   128   127    1
    67    16    13    1
    68    66    67    2
    69    13    12    1
    70   111   112    1
    71   119   121    1
    72   119   118    2
    73   126   127    1
    74   126   123    1
    75   117   118    1
    76   117   116    1
    77   122   123    1
    78   122   113   am
    79   116   115    1
    80   115   112    1
    81    12     3   am
    82    98    96   ar
    83    98    99   ar
    84   112   113    1
    85   123   124    1
    86    96    94   ar
    87   113   114    2
    88     4     3    2
    89    87    85   ar
    90    87    88   ar
    91     3     2    1
    92    85    82   ar
    93    99    97   ar
    94   124   125    2
    95    88    86   ar
    96     9     7   ar
    97     9    11   ar
    98    75    76    1
    99    94    93    1
   100    94    95   ar
   101    44    42    1
   102     7     6   ar
   103    11    10   ar
   104    82    80   ar
   105    82    84   ar
   106    79    80    1
   107    79    76    1
   108    93    90    1
   109    97    95   ar
   110     2     1    1
   111     2     5    1
   112    86    84   ar
   113    80    81   ar
   114    89    90    1
   115    89    77   am
   116    76    77    1
   117    84    83   ar
   118   141   140    1
   119    10     8   ar
   120   139   140   ar
   121   139   137   ar
   122     6     5    1
   123     6     8   ar
   124    42    43    1
   125    42    41    1
   126   140   138   ar
   127    90    91    1
   128   137   135   ar
   129    77    78    2
   130    81    83   ar
   131    91    92    2
   132    37    38    1
   133   138   136   ar
   134   135   136   ar
   135   135   134    1
   136    38    41    1
   137    38    39    1
   138   134   131    1
   139   152   151    1
   140   161   159    1
   141   153   151    1
   142   130   131    1
   143   160   159    1
   144   159   158    1
   145   131   132    1
   146    39    40    2
   147   151   148    1
   148   146   143    1
   149   132   133    2
   150   143   142    1
   151   143   144    1
   152   154   155    1
   153   148   149    1
   154   148   147    1
   155   158   155    1
   156   155   156    1
   157   145   144    2
   158   149   150    2
   159   156   157    2
