@<TRIPOS>MOLECULE
tmp/6f6aB02.pdb
 169 167 0 0 0
SMALL
GASTEIGER

@<TRIPOS>ATOM
      1  N         -6.0710    7.5280    3.7750 N.3    11  PHE11      -0.1227
      2  CA        -5.3450    7.6070    5.0320 C.3    11  PHE11       0.1736
      3  C         -5.3080    6.2490    5.7610 C.2    11  PHE11       0.2596
      4  O         -4.3960    6.0240    6.5760 O.2    11  PHE11      -0.2718
      5  CB        -5.9760    8.6590    5.9680 C.3    11  PHE11       0.0547
      6  CG        -7.2800    8.2080    6.6040 C.ar   11  PHE11      -0.0202
      7  CD1       -7.2530    7.4600    7.7760 C.ar   11  PHE11      -0.0042
      8  CD2       -8.5050    8.5200    6.0350 C.ar   11  PHE11      -0.0042
      9  CE1       -8.4170    7.0160    8.3730 C.ar   11  PHE11      -0.0003
     10  CE2       -9.6920    8.0940    6.6400 C.ar   11  PHE11      -0.0003
     11  CZ        -9.6460    7.3260    7.7870 C.ar   11  PHE11      -0.0000
     12  N         -6.2430    5.3230    5.4410 N.am   12  SER12      -0.1938
     13  CA        -6.5460    4.2130    6.3680 C.3    12  SER12       0.2040
     14  C         -5.5190    3.0980    6.2010 C.2    12  SER12       0.2485
     15  O         -5.4630    2.4740    5.1320 O.2    12  SER12      -0.2729
     16  CB        -7.9380    3.6370    6.1340 C.3    12  SER12       0.2129
     17  OG        -8.0610    2.4310    6.8900 O.3    12  SER12      -0.2179
     18  N         -4.6960    2.8040    7.2130 N.am   13  PRO13      -0.2715
     19  CA        -3.8040    1.6430    7.0840 C.3    13  PRO13       0.1536
     20  C         -4.5560    0.3350    7.1050 C.2    13  PRO13       0.2598
     21  O         -4.0740   -0.6340    6.5010 O.2    13  PRO13      -0.2715
     22  CB        -2.8520    1.7890    8.2810 C.3    13  PRO13       0.0310
     23  CG        -3.6600    2.6180    9.2860 C.3    13  PRO13       0.0237
     24  CD        -4.4710    3.5370    8.4840 C.3    13  PRO13       0.0939
     25  N         -5.7410    0.2780    7.7500 N.am   14  TYR14      -0.1974
     26  CA        -6.5110   -0.9550    7.7650 C.3    14  TYR14       0.1639
     27  C         -7.0440   -1.2750    6.3720 C.2    14  TYR14       0.2290
     28  O         -7.0090   -2.4270    5.9440 O.2    14  TYR14      -0.2864
     29  CB        -7.6700   -0.8710    8.7770 C.3    14  TYR14       0.0560
     30  CG        -7.2110   -0.6670   10.1980 C.ar   14  TYR14      -0.0198
     31  CD1       -6.7740   -1.7300   10.9480 C.ar   14  TYR14      -0.0009
     32  CD2       -7.2020    0.5860   10.7660 C.ar   14  TYR14      -0.0009
     33  CE1       -6.3380   -1.5570   12.2400 C.ar   14  TYR14       0.0417
     34  CE2       -6.7670    0.7710   12.0680 C.ar   14  TYR14       0.0417
     35  CZ        -6.3620   -0.3100   12.7880 C.ar   14  TYR14       0.1957
     36  OH        -5.9250   -0.1010   14.0750 O.3    14  TYR14      -0.2866
     37  N        -14.6330    9.7170    8.2680 N.3    37  LEU37      -0.1245
     38  CA       -14.3700   10.4630    9.4890 C.3    37  LEU37       0.1561
     39  C        -15.0430   11.8200    9.5240 C.2    37  LEU37       0.2260
     40  O        -15.1220   12.4070   10.6060 O.2    37  LEU37      -0.2867
     41  CB       -12.8410   10.6340    9.7100 C.3    37  LEU37       0.0270
     42  CG       -12.0760    9.3030    9.8900 C.3    37  LEU37       0.0019
     43  CD1      -10.6300    9.5680   10.1860 C.3    37  LEU37       0.0001
     44  CD2      -12.6960    8.4200   10.9700 C.3    37  LEU37       0.0001
     45  N          0.2250   -2.2860   17.5560 N.3   117  ASN117     -0.1240
     46  CA        -0.7630   -1.3860   16.9490 C.3   117  ASN117      0.1653
     47  C         -1.2740   -0.3700   17.9670 C.2   117  ASN117      0.2266
     48  O         -1.4650    0.8160   17.6350 O.2   117  ASN117     -0.2867
     49  CB        -1.9130   -2.2210   16.3670 C.3   117  ASN117      0.1155
     50  CG        -2.7700   -1.4310   15.4090 C.2   117  ASN117      0.2627
     51  OD1       -2.2810   -0.7400   14.5180 O.2   117  ASN117     -0.2716
     52  ND2       -4.0590   -1.4820   15.6360 N.am  117  ASN117     -0.0877
     53  N          1.2090    2.3890   18.4790 N.3   120  PHE120     -0.1227
     54  CA         1.1670    3.4130   17.4220 C.3   120  PHE120      0.1736
     55  C         -0.0040    4.3640   17.6720 C.2   120  PHE120      0.2595
     56  O          0.1320    5.6010   17.6060 O.2   120  PHE120     -0.2718
     57  CB         1.0160    2.7800   16.0360 C.3   120  PHE120      0.0547
     58  CG         2.3080    2.4300   15.3500 C.ar  120  PHE120     -0.0202
     59  CD1        3.3380    3.3530   15.2190 C.ar  120  PHE120     -0.0042
     60  CD2        2.4700    1.1770   14.7770 C.ar  120  PHE120     -0.0042
     61  CE1        4.4990    3.0280   14.5590 C.ar  120  PHE120     -0.0003
     62  CE2        3.6400    0.8410   14.1080 C.ar  120  PHE120     -0.0003
     63  CZ         4.6550    1.7660   13.9890 C.ar  120  PHE120     -0.0000
     64  N         -1.1670    3.7920   17.9880 N.am  121  ARG121     -0.1980
     65  CA        -2.3700    4.6040   18.1940 C.3   121  ARG121      0.1597
     66  C         -2.1740    5.5550   19.3730 C.2   121  ARG121      0.2287
     67  O         -2.4530    6.7600   19.2630 O.2   121  ARG121     -0.2864
     68  CB        -3.5650    3.6610   18.3750 C.3   121  ARG121      0.0334
     69  CG        -4.8950    4.2740   18.6320 C.3   121  ARG121      0.0492
     70  CD        -5.4640    3.6980   19.9370 C.3   121  ARG121      0.2205
     71  NE        -5.7980    2.2670   19.8820 N.pl3 121  ARG121     -0.0865
     72  CZ        -5.5550    1.3830   20.8630 C.cat 121  ARG121      0.5346
     73  NH1       -4.9220    1.7490   21.9830 N.pl3 121  ARG121      0.1354
     74  NH2       -5.9250    0.1090   20.7160 N.pl3 121  ARG121      0.1354
     75  N          0.6440    8.3310   18.6770 N.3   124  TRP124     -0.1227
     76  CA         0.2620    9.3240   17.6560 C.3   124  TRP124      0.1737
     77  C         -0.9800   10.1120   18.0520 C.2   124  TRP124      0.2595
     78  O         -1.0230   11.3330   17.8530 O.2   124  TRP124     -0.2718
     79  CB         0.0300    8.6770   16.2720 C.3   124  TRP124      0.0564
     80  CG         1.2130    8.8900   15.3100 C.ar  124  TRP124      0.0003
     81  CD1        1.2720    9.7600   14.2400 C.ar  124  TRP124      0.0946
     82  CD2        2.5110    8.2740   15.3950 C.ar  124  TRP124      0.0152
     83  NE1        2.5340    9.7060   13.6550 N.ar  124  TRP124     -0.2442
     84  CE2        3.3020    8.8080   14.3530 C.ar  124  TRP124      0.0810
     85  CE3        3.0890    7.3390   16.2790 C.ar  124  TRP124      0.0012
     86  CZ2        4.6510    8.4330   14.1600 C.ar  124  TRP124      0.0191
     87  CZ3        4.4370    6.9830   16.0860 C.ar  124  TRP124      0.0001
     88  CH2        5.1770    7.5120   15.0230 C.ar  124  TRP124      0.0015
     89  N         -1.9920    9.4550   18.6300 N.am  125  PHE125     -0.1976
     90  CA        -3.2470   10.1500   18.8990 C.3   125  PHE125      0.1639
     91  C         -3.3230   10.6940   20.3260 C.2   125  PHE125      0.2290
     92  O         -4.0680   11.6450   20.5790 O.2   125  PHE125     -0.2864
     93  CB        -4.4450    9.2060   18.6380 C.3   125  PHE125      0.0560
     94  CG        -4.6100    8.7850   17.2050 C.ar  125  PHE125     -0.0200
     95  CD1       -4.4370    9.6710   16.1830 C.ar  125  PHE125     -0.0042
     96  CD2       -4.9560    7.4750   16.8950 C.ar  125  PHE125     -0.0042
     97  CE1       -4.5850    9.2780   14.8560 C.ar  125  PHE125     -0.0003
     98  CE2       -5.1290    7.0760   15.5780 C.ar  125  PHE125     -0.0003
     99  CZ        -4.9290    7.9800   14.5590 C.ar  125  PHE125     -0.0000
    100  N          1.2880    0.0920    8.3410 N.3   165  PHE165     -0.1241
    101  CA         1.6280    0.8620    9.5210 C.3   165  PHE165      0.1605
    102  C          3.1180    1.2120    9.5520 C.2   165  PHE165      0.2264
    103  O          3.4850    2.3620    9.8160 O.2   165  PHE165     -0.2867
    104  CB         1.2030    0.0680   10.7620 C.3   165  PHE165      0.0534
    105  CG        -0.3000   -0.1210   10.8650 C.ar  165  PHE165     -0.0203
    106  CD1       -0.8990   -1.2080   10.2860 C.ar  165  PHE165     -0.0042
    107  CD2       -1.0980    0.8150   11.5260 C.ar  165  PHE165     -0.0042
    108  CE1       -2.2900   -1.3890   10.3610 C.ar  165  PHE165     -0.0003
    109  CE2       -2.4630    0.6420   11.6150 C.ar  165  PHE165     -0.0003
    110  CZ        -3.0580   -0.4550   11.0360 C.ar  165  PHE165     -0.0000
    111  N          3.8900    3.9380    6.9870 N.3   168  ARG168     -0.1231
    112  CA         3.4580    5.2830    7.3600 C.3   168  ARG168      0.1694
    113  C          4.3560    5.9100    8.4210 C.2   168  ARG168      0.2591
    114  O          4.4910    7.1450    8.4530 O.2   168  ARG168     -0.2718
    115  CB         1.9980    5.2680    7.8470 C.3   168  ARG168      0.0321
    116  CG         0.9620    5.1370    6.7100 C.3   168  ARG168      0.0489
    117  CD        -0.4270    4.7060    7.2110 C.3   168  ARG168      0.2205
    118  NE        -1.4370    4.8070    6.1700 N.pl3 168  ARG168     -0.0865
    119  CZ        -1.5790    3.9580    5.1500 C.cat 168  ARG168      0.5346
    120  NH1       -0.7680    2.9140    5.0360 N.pl3 168  ARG168      0.1354
    121  NH2       -2.5070    4.1900    4.2150 N.pl3 168  ARG168      0.1354
    122  N          4.9320    5.0970    9.3110 N.am  169  MET169     -0.1979
    123  CA         5.6730    5.6350   10.4440 C.3   169  MET169      0.1605
    124  C          6.7620    6.5940    9.9810 C.2   169  MET169      0.2287
    125  O          6.9150    7.6850   10.5440 O.2   169  MET169     -0.2864
    126  CB         6.3090    4.5150   11.2580 C.3   169  MET169      0.0413
    127  CG         7.0500    5.0180   12.4910 C.3   169  MET169      0.0598
    128  SD         7.9510    3.6930   13.3140 S.3   169  MET169     -0.1393
    129  CE         8.2260    4.5220   14.9130 C.3   169  MET169      0.0692
    130  N          5.4530    9.9570    8.4220 N.3   172  TYR172     -0.1241
    131  CA         4.7280   10.7040    9.4590 C.3   172  TYR172      0.1605
    132  C          5.7100   11.3490   10.4320 C.2   172  TYR172      0.2264
    133  O          5.5340   12.5050   10.8390 O.2   172  TYR172     -0.2867
    134  CB         3.7530    9.7890   10.2130 C.3   172  TYR172      0.0534
    135  CG         2.4760    9.3340    9.4580 C.ar  172  TYR172     -0.0201
    136  CD1        2.3230    9.5050    8.0770 C.ar  172  TYR172     -0.0009
    137  CD2        1.4170    8.6930   10.1470 C.ar  172  TYR172     -0.0009
    138  CE1        1.1780    9.0870    7.4370 C.ar  172  TYR172      0.0417
    139  CE2        0.2690    8.2850    9.4790 C.ar  172  TYR172      0.0417
    140  CZ         0.1780    8.4700    8.1350 C.ar  172  TYR172      0.1957
    141  OH        -0.9280    8.0730    7.4450 O.3   172  TYR172     -0.2866
    142  N         -3.3050   11.9600    5.7800 N.3   227  ALA227     -0.1245
    143  CA        -3.3260   11.8010    7.2200 C.3   227  ALA227      0.1562
    144  C         -3.6650   13.1190    7.9180 C.2   227  ALA227      0.2260
    145  O         -4.2660   13.1270    8.9930 O.2   227  ALA227     -0.2867
    146  CB        -1.9810   11.2550    7.6930 C.3   227  ALA227      0.0290
    147  N         -7.2820   13.7330    9.1310 N.3   230  VAL230     -0.1245
    148  CA        -7.8250   12.9270   10.2100 C.3   230  VAL230      0.1561
    149  C         -8.0760   13.8190   11.4150 C.2   230  VAL230      0.2260
    150  O         -7.1260   14.3880   11.9600 O.2   230  VAL230     -0.2867
    151  CB        -6.8590   11.7990   10.5700 C.3   230  VAL230      0.0252
    152  CG1       -7.3280   11.0740   11.8140 C.3   230  VAL230      0.0019
    153  CG2       -6.7280   10.8660    9.3820 C.3   230  VAL230      0.0019
    154  N         -8.4580   13.3060   14.6210 N.3   232  MET232     -0.1230
    155  CA        -7.6790   13.0260   15.8270 C.3   232  MET232      0.1702
    156  C         -6.2220   13.4420   15.7130 C.2   232  MET232      0.2592
    157  O         -5.5150   13.4340   16.7340 O.2   232  MET232     -0.2718
    158  CB        -7.7230   11.5430   16.1840 C.3   232  MET232      0.0401
    159  CG        -9.0230   11.1080   16.8630 C.3   232  MET232      0.0596
    160  SD        -9.0370    9.3550   17.3600 S.3   232  MET232     -0.1393
    161  CE        -9.1610    8.4780   15.7780 C.3   232  MET232      0.0692
    162  N         -5.7410   13.7610   14.5130 N.am  233  LEU233     -0.1980
    163  CA        -4.4380   14.4080   14.3730 C.3   233  LEU233      0.1596
    164  C         -4.6690   15.9300   14.4070 C.2   233  LEU233      0.2287
    165  O         -4.6690   16.6480   13.4170 O.2   233  LEU233     -0.2864
    166  CB        -3.7270   13.8930   13.1230 C.3   233  LEU233      0.0297
    167  CG        -3.4820   12.3710   13.0920 C.3   233  LEU233      0.0022
    168  CD1       -3.1100   11.8960   11.7100 C.3   233  LEU233      0.0001
    169  CD2       -2.3680   11.9740   14.0530 C.3   233  LEU233      0.0001
@<TRIPOS>BOND
     1     1     2    1
     2   121   119    1
     3     2     3    1
     4     2     5    1
     5   120   119    1
     6    15    14    2
     7   119   118    2
     8    12     3   am
     9    12    13    1
    10     3     4    2
    11   142   143    1
    12    28    27    2
    13     5     6    1
    14     8     6   ar
    15     8    10   ar
    16    16    13    1
    17    16    17    1
    18   118   117    1
    19    14    13    1
    20    14    18   am
    21    27    26    1
    22    21    20    2
    23     6     7   ar
    24    10    11   ar
    25   116   117    1
    26   116   115    1
    27   111   112    1
    28    19    20    1
    29    19    18    1
    30    19    22    1
    31    20    25   am
    32    18    24    1
    33   143   146    1
    34   143   144    1
    35   112   115    1
    36   112   113    1
    37   138   136   ar
    38   138   140   ar
    39   141   140    1
    40    25    26    1
    41    26    29    1
    42     7     9   ar
    43    11     9   ar
    44   144   145    2
    45   136   135   ar
    46   140   139   ar
    47    37    38    1
    48    22    23    1
    49   100   101    1
    50   113   114    2
    51   113   122   am
    52   130   131    1
    53    24    23    1
    54    29    30    1
    55   147   148    1
    56   122   123    1
    57   153   151    1
    58   135   137   ar
    59   135   134    1
    60   131   134    1
    61   131   132    1
    62   139   137   ar
    63    38    39    1
    64    38    41    1
    65   101   102    1
    66   101   104    1
    67    39    40    2
    68   102   103    2
    69    41    42    1
    70    42    43    1
    71    42    44    1
    72   124   123    1
    73   124   125    2
    74    30    32   ar
    75    30    31   ar
    76   148   151    1
    77   148   149    1
    78   106   108   ar
    79   106   105   ar
    80   108   110   ar
    81   132   133    2
    82   123   126    1
    83   151   152    1
    84   104   105    1
    85    32    34   ar
    86   105   107   ar
    87    31    33   ar
    88   110   109   ar
    89   126   127    1
    90   149   150    2
    91   107   109   ar
    92   168   167    1
    93    34    35   ar
    94    33    35   ar
    95   127   128    1
    96    35    36    1
    97   167   166    1
    98   167   169    1
    99   166   163    1
   100   128   129    1
   101   165   164    2
   102    83    81   ar
   103    83    84   ar
   104    63    62   ar
   105    63    61   ar
   106    62    60   ar
   107    86    84   ar
   108    86    88   ar
   109    81    80   ar
   110    84    82   ar
   111   163   164    1
   112   163   162    1
   113   162   156   am
   114    51    50    2
   115    61    59   ar
   116    99    97   ar
   117    99    98   ar
   118   154   155    1
   119    60    58   ar
   120    97    95   ar
   121    88    87   ar
   122    59    58   ar
   123    80    82   ar
   124    80    79    1
   125    58    57    1
   126    82    85   ar
   127    50    52   am
   128    50    49    1
   129    98    96   ar
   130   156   155    1
   131   156   157    2
   132   161   160    1
   133   155   158    1
   134    57    54    1
   135    87    85   ar
   136    95    94   ar
   137   158   159    1
   138    79    76    1
   139    49    46    1
   140   159   160    1
   141    96    94   ar
   142    46    45    1
   143    46    47    1
   144    94    93    1
   145    54    55    1
   146    54    53    1
   147    56    55    2
   148    48    47    2
   149    76    77    1
   150    76    75    1
   151    55    64   am
   152    78    77    2
   153    64    65    1
   154    77    89   am
   155    65    68    1
   156    65    66    1
   157    68    69    1
   158    89    90    1
   159    69    70    1
   160    93    90    1
   161    90    91    1
   162    67    66    2
   163    71    70    1
   164    71    72    2
   165    91    92    2
   166    74    72    1
   167    72    73    1
