@<TRIPOS>MOLECULE
tmp/6f6iA02.pdb
 79 75 0 0 0
SMALL
GASTEIGER

@<TRIPOS>ATOM
      1  N        -50.9160   19.7010   -5.9770 N.3    34  ARG34      -0.1231
      2  CA       -50.3690   19.2340   -7.2410 C.3    34  ARG34       0.1694
      3  C        -51.4470   18.5340   -8.0540 C.2    34  ARG34       0.2593
      4  O        -52.2570   17.7770   -7.5120 O.2    34  ARG34      -0.2718
      5  CB       -49.1850   18.2840   -7.0150 C.3    34  ARG34       0.0321
      6  CG       -47.9870   18.9400   -6.3450 C.3    34  ARG34       0.0489
      7  CD       -47.2270   19.8320   -7.3120 C.3    34  ARG34       0.2205
      8  NE       -46.3470   20.7740   -6.6250 N.pl3  34  ARG34      -0.0865
      9  CZ       -45.1700   20.4550   -6.0970 C.cat  34  ARG34       0.5346
     10  NH1      -44.7220   19.2090   -6.1630 N.pl3  34  ARG34       0.1354
     11  NH2      -44.4420   21.3840   -5.4920 N.pl3  34  ARG34       0.1354
     12  N        -51.4500   18.8010   -9.3570 N.am   35  SER35      -0.1938
     13  CA       -52.3040   18.1130  -10.3150 C.3    35  SER35       0.2055
     14  C        -51.4440   17.1650  -11.1370 C.2    35  SER35       0.2643
     15  O        -50.4000   17.5670  -11.6630 O.2    35  SER35      -0.2714
     16  CB       -53.0240   19.1100  -11.2260 C.3    35  SER35       0.2130
     17  OG       -52.0980   19.9520  -11.8910 O.3    35  SER35      -0.2179
     18  N        -51.8730   15.9090  -11.2370 N.am   36  VAL36      -0.1963
     19  CA       -51.0950   14.8730  -11.9010 C.3    36  VAL36       0.1727
     20  C        -51.9770   14.1360  -12.8980 C.2    36  VAL36       0.2617
     21  O        -53.2030   14.0830  -12.7570 O.2    36  VAL36      -0.2715
     22  CB       -50.4770   13.8810  -10.8880 C.3    36  VAL36       0.0290
     23  CG1      -49.5690   14.6130   -9.9140 C.3    36  VAL36       0.0023
     24  CG2      -51.5690   13.1280  -10.1440 C.3    36  VAL36       0.0023
     25  N        -51.3370   13.5680  -13.9170 N.am   37  GLY37      -0.1940
     26  CA       -52.0290   12.7700  -14.9100 C.3    37  GLY37       0.2014
     27  C        -51.5290   11.3400  -14.9410 C.2    37  GLY37       0.2638
     28  O        -50.3200   11.1010  -15.0120 O.2    37  GLY37      -0.2714
     29  N        -52.4490   10.3820  -14.8800 N.am   38  LEU38      -0.1977
     30  CA       -52.1200    8.9630  -14.8770 C.3    38  LEU38       0.1596
     31  C        -52.6340    8.3190  -16.1560 C.2    38  LEU38       0.2287
     32  O        -53.7460    8.6120  -16.6030 O.2    38  LEU38      -0.2864
     33  CB       -52.7210    8.2540  -13.6570 C.3    38  LEU38       0.0297
     34  CG       -52.0750    8.4620  -12.2820 C.3    38  LEU38       0.0022
     35  CD1      -50.5790    8.2000  -12.3420 C.3    38  LEU38       0.0001
     36  CD2      -52.3610    9.8480  -11.7210 C.3    38  LEU38       0.0001
     37  N        -49.6210   19.0840  -13.8680 N.3    70  GLU70      -0.1231
     38  CA       -48.2280   19.4630  -13.6670 C.3    70  GLU70       0.1699
     39  C        -47.2470   18.3110  -13.8300 C.2    70  GLU70       0.2592
     40  O        -46.1050   18.5430  -14.2390 O.2    70  GLU70      -0.2718
     41  CB       -48.0520   20.0820  -12.2770 C.3    70  GLU70       0.0402
     42  CG       -49.0000   21.2420  -12.0130 C.3    70  GLU70       0.1161
     43  CD       -48.9600   21.7140  -10.5750 C.2    70  GLU70       0.3649
     44  OE1      -48.7040   22.9140  -10.3450 O.co2  70  GLU70      -0.2457
     45  OE2      -49.1810   20.8820   -9.6740 O.co2  70  GLU70      -0.2457
     46  N        -47.6530   17.0830  -13.5240 N.am   71  ALA71      -0.1966
     47  CA       -46.7770   15.9250  -13.6220 C.3    71  ALA71       0.1728
     48  C        -47.5080   14.7910  -14.3220 C.2    71  ALA71       0.2617
     49  O        -48.7130   14.6050  -14.1290 O.2    71  ALA71      -0.2715
     50  CB       -46.2980   15.4670  -12.2380 C.3    71  ALA71       0.0334
     51  N        -46.7730   14.0340  -15.1380 N.am   72  GLY72      -0.1940
     52  CA       -47.3420   12.9350  -15.8880 C.3    72  GLY72       0.2014
     53  C        -46.4890   11.6840  -15.7800 C.2    72  GLY72       0.2638
     54  O        -45.4200   11.6840  -15.1690 O.2    72  GLY72      -0.2714
     55  N        -46.9900   10.6190  -16.3980 N.am   73  GLU73      -0.1977
     56  CA       -46.3590    9.3090  -16.3670 C.3    73  GLU73       0.1602
     57  C        -45.7600    8.9810  -17.7280 C.2    73  GLU73       0.2287
     58  O        -46.3720    9.2510  -18.7670 O.2    73  GLU73      -0.2864
     59  CB       -47.3740    8.2320  -15.9700 C.3    73  GLU73       0.0415
     60  CG       -46.8400    6.8080  -15.9970 C.3    73  GLU73       0.1163
     61  CD       -47.8460    5.8030  -15.4630 C.2    73  GLU73       0.3649
     62  OE1      -49.0550    6.1170  -15.4560 O.co2  73  GLU73      -0.2457
     63  OE2      -47.4270    4.7030  -15.0450 O.co2  73  GLU73      -0.2457
     64  N        -53.9080   16.4450   -5.5480 N.3   154  LEU154     -0.1245
     65  CA       -53.2410   15.9450   -4.3550 C.3   154  LEU154      0.1561
     66  C        -52.8710   17.0780   -3.4100 C.2   154  LEU154      0.2260
     67  O        -52.6230   18.2100   -3.8320 O.2   154  LEU154     -0.2867
     68  CB       -51.9610   15.1820   -4.7160 C.3   154  LEU154      0.0270
     69  CG       -52.0590   14.1710   -5.8520 C.3   154  LEU154      0.0019
     70  CD1      -50.6900   13.5970   -6.1700 C.3   154  LEU154      0.0001
     71  CD2      -53.0330   13.0800   -5.4670 C.3   154  LEU154      0.0001
     72  N        -49.7430   17.1540   -1.1190 N.3   156  LEU156     -0.1245
     73  CA       -48.5300   16.4690   -0.7130 C.3   156  LEU156      0.1561
     74  C        -48.2500   16.7320    0.7660 C.2   156  LEU156      0.2260
     75  O        -48.5600   17.8090    1.2830 O.2   156  LEU156     -0.2867
     76  CB       -47.3420   16.9310   -1.5500 C.3   156  LEU156      0.0270
     77  CG       -47.4540   16.7910   -3.0680 C.3   156  LEU156      0.0019
     78  CD1      -46.1650   17.2450   -3.7310 C.3   156  LEU156      0.0001
     79  CD2      -47.7870   15.3590   -3.4570 C.3   156  LEU156      0.0001
@<TRIPOS>BOND
     1    58    57    2
     2    57    56    1
     3    32    31    2
     4    55    56    1
     5    55    53   am
     6    56    59    1
     7    31    30    1
     8    60    59    1
     9    60    61    1
    10    52    53    1
    11    52    51    1
    12    53    54    2
    13    61    62   ar
    14    61    63   ar
    15    51    48   am
    16    28    27    2
    17    27    26    1
    18    27    29   am
    19    26    25    1
    20    29    30    1
    21    30    33    1
    22    48    49    2
    23    48    47    1
    24    40    39    2
    25    25    20   am
    26    37    38    1
    27    39    38    1
    28    39    46   am
    29    38    41    1
    30    33    34    1
    31    47    46    1
    32    47    50    1
    33    20    21    2
    34    20    19    1
    35    35    34    1
    36    34    36    1
    37    41    42    1
    38    42    43    1
    39    19    18    1
    40    19    22    1
    41    17    16    1
    42    15    14    2
    43    18    14   am
    44    16    13    1
    45    14    13    1
    46    22    24    1
    47    22    23    1
    48    43    44   ar
    49    43    45   ar
    50    13    12    1
    51    12     3   am
    52     3     4    2
    53     3     2    1
    54     7     8    1
    55     7     6    1
    56     2     5    1
    57     2     1    1
    58     5     6    1
    59     8     9    2
    60    70    69    1
    61    10     9    1
    62     9    11    1
    63    69    71    1
    64    69    68    1
    65    64    65    1
    66    68    65    1
    67    65    66    1
    68    67    66    2
    69    78    77    1
    70    79    77    1
    71    77    76    1
    72    76    73    1
    73    72    73    1
    74    73    74    1
    75    74    75    2
