@<TRIPOS>MOLECULE
tmp/6f6jA00.pdb
 118 108 0 0 0
SMALL
GASTEIGER

@<TRIPOS>ATOM
      1  N        -38.1430  -61.9370  -21.0000 N.3   123  MET123     -0.1245
      2  CA       -39.1290  -61.0230  -21.5710 C.3   123  MET123      0.1570
      3  C        -38.3410  -60.1070  -22.4780 C.2   123  MET123      0.2261
      4  O        -37.7590  -59.1060  -22.0380 O.2   123  MET123     -0.2867
      5  CB       -39.8730  -60.2470  -20.5020 C.3   123  MET123      0.0387
      6  CG       -41.0120  -59.4560  -21.0610 C.3   123  MET123      0.0595
      7  SD       -42.0360  -58.8660  -19.7180 S.3   123  MET123     -0.1393
      8  CE       -42.9640  -60.3110  -19.3910 C.3   123  MET123      0.0692
      9  N        -46.1420  -60.7140  -24.1900 N.3   135  SER135     -0.1217
     10  CA       -44.9670  -60.2300  -23.4650 C.3   135  SER135      0.1889
     11  C        -43.7880  -59.9050  -24.4140 C.2   135  SER135      0.2288
     12  O        -42.8500  -59.2030  -24.0310 O.2   135  SER135     -0.2866
     13  CB       -44.5070  -61.3230  -22.5060 C.3   135  SER135      0.2089
     14  OG       -44.1080  -62.5240  -23.1550 O.3   135  SER135     -0.2183
     15  N        -49.1500  -53.0350  -25.4980 N.3   142  LEU142     -0.1245
     16  CA       -49.6630  -54.2140  -24.8250 C.3   142  LEU142      0.1561
     17  C        -50.8270  -53.7330  -23.9420 C.2   142  LEU142      0.2260
     18  O        -50.6240  -52.9590  -22.9990 O.2   142  LEU142     -0.2867
     19  CB       -48.5590  -54.9240  -24.0090 C.3   142  LEU142      0.0270
     20  CG       -48.9540  -56.1700  -23.2090 C.3   142  LEU142      0.0019
     21  CD1      -49.5290  -57.2720  -24.1230 C.3   142  LEU142      0.0001
     22  CD2      -47.7440  -56.6920  -22.4360 C.3   142  LEU142      0.0001
     23  N        -54.3430  -55.6960  -18.7950 N.3   145  HIS145     -0.1241
     24  CA       -54.7550  -57.0540  -18.4520 C.3   145  HIS145      0.1621
     25  C        -54.3090  -57.4970  -17.0920 C.2   145  HIS145      0.2264
     26  O        -53.3250  -57.0000  -16.5420 O.2   145  HIS145     -0.2867
     27  CB       -54.2070  -58.0700  -19.4830 C.3   145  HIS145      0.0745
     28  CG       -52.7030  -58.1300  -19.5040 C.ar  145  HIS145      0.0817
     29  ND1      -51.9490  -57.1550  -20.1490 N.ar  145  HIS145     -0.2268
     30  CD2      -51.8630  -59.0070  -18.9040 C.ar  145  HIS145      0.1154
     31  CE1      -50.6820  -57.4900  -19.9470 C.ar  145  HIS145      0.1986
     32  NE2      -50.5820  -58.5900  -19.1990 N.ar  145  HIS145     -0.2212
     33  N        -52.8570  -60.9510  -15.4890 N.3   147  GLU147     -0.1245
     34  CA       -52.0540  -62.0580  -15.9730 C.3   147  GLU147      0.1567
     35  C        -52.9280  -63.3140  -15.8570 C.2   147  GLU147      0.2260
     36  O        -53.4480  -63.5830  -14.7670 O.2   147  GLU147     -0.2867
     37  CB       -50.7950  -62.2130  -15.0970 C.3   147  GLU147      0.0388
     38  CG       -49.7630  -63.1230  -15.7130 C.3   147  GLU147      0.1160
     39  CD       -49.1270  -62.5110  -16.9410 C.2   147  GLU147      0.3649
     40  OE1      -48.8980  -61.2790  -16.9560 O.co2 147  GLU147     -0.2457
     41  OE2      -48.8750  -63.2690  -17.9000 O.co2 147  GLU147     -0.2457
     42  N        -46.8950  -61.0590  -10.2070 N.3   158  VAL158     -0.1245
     43  CA       -46.0010  -61.1220  -11.3460 C.3   158  VAL158      0.1561
     44  C        -44.7370  -60.3820  -10.8770 C.2   158  VAL158      0.2260
     45  O        -44.8430  -59.3150  -10.2820 O.2   158  VAL158     -0.2867
     46  CB       -46.6020  -60.4930  -12.6390 C.3   158  VAL158      0.0252
     47  CG1      -45.6100  -60.5860  -13.7900 C.3   158  VAL158      0.0019
     48  CG2      -47.9250  -61.1500  -13.0160 C.3   158  VAL158      0.0019
     49  N        -41.0060  -58.8480  -12.0780 N.3   160  LEU160     -0.1245
     50  CA       -40.2250  -58.4480  -13.2480 C.3   160  LEU160      0.1561
     51  C        -38.9300  -57.8050  -12.8320 C.2   160  LEU160      0.2260
     52  O        -38.9530  -56.7190  -12.2470 O.2   160  LEU160     -0.2867
     53  CB       -41.0440  -57.4560  -14.1200 C.3   160  LEU160      0.0270
     54  CG       -42.4110  -57.9290  -14.6140 C.3   160  LEU160      0.0019
     55  CD1      -43.2410  -56.7380  -15.0770 C.3   160  LEU160      0.0001
     56  CD2      -42.2630  -58.9590  -15.7330 C.3   160  LEU160      0.0001
     57  N        -43.9710  -49.2650  -18.4290 N.3   171  THR171     -0.1218
     58  CA       -44.8680  -50.2180  -17.8120 C.3   171  THR171      0.1862
     59  C        -46.0130  -49.3650  -17.2510 C.2   171  THR171      0.2287
     60  O        -45.7700  -48.3660  -16.5580 O.2   171  THR171     -0.2866
     61  CB       -44.1490  -51.0190  -16.7120 C.3   171  THR171      0.1770
     62  OG1      -43.0330  -51.6950  -17.2760 O.3   171  THR171     -0.2211
     63  CG2      -45.0780  -52.0330  -16.0290 C.3   171  THR171      0.0375
     64  N        -52.1000  -54.4110  -15.7040 N.3   281  HIS281     -0.1226
     65  CA       -50.9070  -53.8140  -16.2740 C.3   281  HIS281      0.1752
     66  C        -50.9010  -53.8300  -17.7890 C.2   281  HIS281      0.2597
     67  O        -51.6300  -54.5990  -18.4340 O.2   281  HIS281     -0.2718
     68  CB       -49.6270  -54.4610  -15.6820 C.3   281  HIS281      0.0759
     69  CG       -49.4980  -55.9330  -15.9420 C.ar  281  HIS281      0.0818
     70  ND1      -50.2480  -56.8690  -15.2320 N.ar  281  HIS281     -0.2268
     71  CD2      -48.6840  -56.5920  -16.8030 C.ar  281  HIS281      0.1154
     72  CE1      -49.8750  -58.0580  -15.6900 C.ar  281  HIS281      0.1986
     73  NE2      -48.9380  -57.9460  -16.6340 N.ar  281  HIS281     -0.2212
     74  N        -50.0710  -52.9640  -18.3360 N.am  282  GLY282     -0.1942
     75  CA       -49.8950  -52.8200  -19.7810 C.3   282  GLY282      0.2014
     76  C        -48.5060  -52.3290  -20.0840 C.2   282  GLY282      0.2638
     77  O        -47.7240  -52.1070  -19.1550 O.2   282  GLY282     -0.2714
     78  N        -48.1940  -52.1320  -21.3780 N.am  283  ARG283     -0.1977
     79  CA       -46.8570  -51.6820  -21.8000 C.3   283  ARG283      0.1597
     80  C        -46.9340  -50.8440  -23.0880 C.2   283  ARG283      0.2287
     81  O        -47.6400  -51.2030  -24.0240 O.2   283  ARG283     -0.2864
     82  CB       -45.8950  -52.8810  -21.9240 C.3   283  ARG283      0.0334
     83  CG       -44.4000  -52.5050  -22.0190 C.3   283  ARG283      0.0492
     84  CD       -43.6910  -53.3060  -23.1040 C.3   283  ARG283      0.2205
     85  NE       -44.2780  -53.0040  -24.4030 N.pl3 283  ARG283     -0.0865
     86  CZ       -44.8820  -53.8800  -25.1960 C.cat 283  ARG283      0.5346
     87  NH1      -44.9100  -55.1640  -24.8760 N.pl3 283  ARG283      0.1354
     88  NH2      -45.4420  -53.4800  -26.3310 N.pl3 283  ARG283      0.1354
     89  N        -34.2660  -54.3150  -24.6910 N.3   295  ARG295     -0.1245
     90  CA       -34.9180  -54.4750  -23.3980 C.3   295  ARG295      0.1563
     91  C        -34.9840  -55.9780  -23.0510 C.2   295  ARG295      0.2260
     92  O        -35.2730  -56.8250  -23.9040 O.2   295  ARG295     -0.2867
     93  CB       -36.3280  -53.8930  -23.4770 C.3   295  ARG295      0.0307
     94  CG       -37.0270  -53.8240  -22.1220 C.3   295  ARG295      0.0489
     95  CD       -38.3380  -53.1370  -22.3580 C.3   295  ARG295      0.2205
     96  NE       -39.0820  -52.8280  -21.1310 N.pl3 295  ARG295     -0.0865
     97  CZ       -40.1500  -53.5050  -20.7360 C.cat 295  ARG295      0.5346
     98  NH1      -40.5520  -54.5740  -21.4090 N.pl3 295  ARG295      0.1354
     99  NH2      -40.8200  -53.1270  -19.6610 N.pl3 295  ARG295      0.1354
    100  N        -36.1240  -58.3060  -19.6310 N.3   297  LEU297     -0.1245
    101  CA       -36.6170  -58.4980  -18.2760 C.3   297  LEU297      0.1561
    102  C        -36.6090  -59.9880  -17.9840 C.2   297  LEU297      0.2260
    103  O        -36.7490  -60.8070  -18.8920 O.2   297  LEU297     -0.2867
    104  CB       -38.0610  -57.9580  -18.0500 C.3   297  LEU297      0.0270
    105  CG       -38.4650  -56.5600  -18.5780 C.3   297  LEU297      0.0019
    106  CD1      -39.9070  -56.2310  -18.1610 C.3   297  LEU297      0.0001
    107  CD2      -37.5220  -55.4560  -18.0900 C.3   297  LEU297      0.0001
    108  N        -38.8980  -62.5320  -16.0410 N.3   299  ARG299     -0.1245
    109  CA       -40.2270  -62.6580  -15.4420 C.3   299  ARG299      0.1563
    110  C        -40.3560  -63.9510  -14.6770 C.2   299  ARG299      0.2260
    111  O        -39.9390  -65.0090  -15.1610 O.2   299  ARG299     -0.2867
    112  CB       -41.3600  -62.5660  -16.4830 C.3   299  ARG299      0.0307
    113  CG       -42.7780  -62.6240  -15.8210 C.3   299  ARG299      0.0489
    114  CD       -43.9330  -62.2950  -16.7470 C.3   299  ARG299      0.2205
    115  NE       -44.0870  -63.2730  -17.8260 N.pl3 299  ARG299     -0.0865
    116  CZ       -45.0780  -63.2740  -18.7060 C.cat 299  ARG299      0.5346
    117  NH1      -46.0290  -62.3450  -18.6470 N.pl3 299  ARG299      0.1354
    118  NH2      -45.1370  -64.2100  -19.6450 N.pl3 299  ARG299      0.1354
@<TRIPOS>BOND
     1    88    86    1
     2    15    16    1
     3    86    87    1
     4    86    85    2
     5    16    19    1
     6    16    17    1
     7    89    90    1
     8    11    12    2
     9    11    10    1
    10    85    84    1
    11     9    10    1
    12    21    20    1
    13    81    80    2
    14    19    20    1
    15    17    18    2
    16    92    91    2
    17    93    90    1
    18    93    94    1
    19    10    13    1
    20    90    91    1
    21    20    22    1
    22    14    13    1
    23    84    83    1
    24    80    79    1
    25     3     4    2
    26     3     2    1
    27    95    94    1
    28    95    96    1
    29    83    82    1
    30    82    79    1
    31    79    78    1
    32     2     1    1
    33     2     5    1
    34    98    97    1
    35    78    76   am
    36    96    97    2
    37     6     5    1
    38     6     7    1
    39    97    99    1
    40    29    31   ar
    41    29    28   ar
    42    76    75    1
    43    76    77    2
    44    31    32   ar
    45    75    74    1
    46     7     8    1
    47   118   116    1
    48   100   101    1
    49    28    27    1
    50    28    30   ar
    51    27    24    1
    52    32    30   ar
    53   103   102    2
    54    23    24    1
    55   116   117    1
    56   116   115    2
    57   105   106    1
    58   105   107    1
    59   105   104    1
    60    24    25    1
    61    67    66    2
    62    57    58    1
    63    74    66   am
    64   101   104    1
    65   101   102    1
    66    41    39   ar
    67   115   114    1
    68    58    59    1
    69    58    61    1
    70    66    65    1
    71    62    61    1
    72    59    60    2
    73    25    26    2
    74    40    39   ar
    75    39    38    1
    76    71    73   ar
    77    71    69   ar
    78   114   113    1
    79    61    63    1
    80    73    72   ar
    81   112   113    1
    82   112   109    1
    83    65    64    1
    84    65    68    1
    85   108   109    1
    86    34    35    1
    87    34    33    1
    88    34    37    1
    89    69    68    1
    90    69    70   ar
    91    35    36    2
    92    56    54    1
    93    38    37    1
    94    72    70   ar
    95   109   110    1
    96   111   110    2
    97    55    54    1
    98    54    53    1
    99    53    50    1
   100    47    46    1
   101    50    51    1
   102    50    49    1
   103    48    46    1
   104    51    52    2
   105    46    43    1
   106    43    44    1
   107    43    42    1
   108    44    45    2
