@<TRIPOS>MOLECULE
tmp/6f6kB00.pdb
 188 179 0 0 0
SMALL
GASTEIGER

@<TRIPOS>ATOM
      1  N         28.2540   20.8900    0.2840 N.3    59  LEU59      -0.1245
      2  CA        28.5090   19.4950    0.6260 C.3    59  LEU59       0.1561
      3  C         27.6730   19.0750    1.8330 C.2    59  LEU59       0.2260
      4  O         27.0010   18.0370    1.8130 O.2    59  LEU59      -0.2867
      5  CB        30.0080   19.2900    0.8970 C.3    59  LEU59       0.0270
      6  CG        30.9160   19.3410   -0.3580 C.3    59  LEU59       0.0019
      7  CD1       32.3960   19.2640    0.0200 C.3    59  LEU59       0.0001
      8  CD2       30.5790   18.2320   -1.3370 C.3    59  LEU59       0.0001
      9  N         24.0610   18.5560    0.9880 N.3    62  GLY62      -0.1210
     10  CA        23.8110   17.2640    0.3640 C.3    62  GLY62       0.1956
     11  C         23.8910   16.0790    1.3160 C.2    62  GLY62       0.2611
     12  O         23.1820   15.0860    1.1280 O.2    62  GLY62      -0.2717
     13  N         24.7650   16.1440    2.3270 N.am   63  PHE63      -0.1976
     14  CA        24.9090   15.0130    3.2290 C.3    63  PHE63       0.1639
     15  C         23.7070   14.9180    4.1500 C.2    63  PHE63       0.2290
     16  O         23.2110   13.8250    4.4230 O.2    63  PHE63      -0.2864
     17  CB        26.1970   15.1390    4.0630 C.3    63  PHE63       0.0560
     18  CG        27.4520   14.8700    3.2860 C.ar   63  PHE63      -0.0200
     19  CD1       27.5730   13.7150    2.5270 C.ar   63  PHE63      -0.0042
     20  CD2       28.5160   15.7620    3.3130 C.ar   63  PHE63      -0.0042
     21  CE1       28.7270   13.4610    1.7860 C.ar   63  PHE63      -0.0003
     22  CE2       29.6830   15.5030    2.5750 C.ar   63  PHE63      -0.0003
     23  CZ        29.7740   14.3470    1.8200 C.ar   63  PHE63      -0.0000
     24  N         20.7460   13.8570    2.2930 N.3    66  GLY66      -0.1210
     25  CA        20.9860   12.5100    1.8240 C.3    66  GLY66       0.1956
     26  C         20.8150   11.4790    2.9260 C.2    66  GLY66       0.2611
     27  O         20.1360   10.4720    2.7530 O.2    66  GLY66      -0.2717
     28  N         21.4230   11.7270    4.0880 N.am   67  GLU67      -0.1979
     29  CA        21.3630   10.7500    5.1650 C.3    67  GLU67       0.1602
     30  C         19.9550   10.6410    5.7230 C.2    67  GLU67       0.2287
     31  O         19.5140    9.5530    6.1180 O.2    67  GLU67      -0.2864
     32  CB        22.3320   11.1310    6.2940 C.3    67  GLU67       0.0415
     33  CG        23.8200   11.2290    5.9450 C.3    67  GLU67       0.1163
     34  CD        24.4080    9.9480    5.3800 C.2    67  GLU67       0.3649
     35  OE1       23.9470    8.8420    5.7520 O.co2  67  GLU67      -0.2457
     36  OE2       25.3480   10.0500    4.5620 O.co2  67  GLU67      -0.2457
     37  N         18.2290    8.5980    3.3020 N.3    70  LEU70      -0.1245
     38  CA        18.6600    7.2120    3.4760 C.3    70  LEU70       0.1561
     39  C         17.9610    6.5630    4.6850 C.2    70  LEU70       0.2260
     40  O         17.5670    5.3790    4.6390 O.2    70  LEU70      -0.2867
     41  CB        20.1840    7.1650    3.6340 C.3    70  LEU70       0.0270
     42  CG        21.1650    6.9230    2.4570 C.3    70  LEU70       0.0019
     43  CD1       20.5410    6.7220    1.1060 C.3    70  LEU70       0.0001
     44  CD2       22.1660    8.0480    2.3990 C.3    70  LEU70       0.0001
     45  N         20.0470   17.1210   -7.9500 N.3   129  TYR129     -0.1241
     46  CA        19.9590   16.5840   -6.5970 C.3   129  TYR129      0.1605
     47  C         18.5240   16.2450   -6.2470 C.2   129  TYR129      0.2264
     48  O         18.2400   15.1850   -5.6750 O.2   129  TYR129     -0.2867
     49  CB        20.5120   17.5920   -5.5960 C.3   129  TYR129      0.0534
     50  CG        20.6530   17.0370   -4.2090 C.ar  129  TYR129     -0.0201
     51  CD1       21.8680   16.5480   -3.7440 C.ar  129  TYR129     -0.0009
     52  CD2       19.5540   16.9770   -3.3680 C.ar  129  TYR129     -0.0009
     53  CE1       21.9770   16.0550   -2.4520 C.ar  129  TYR129      0.0417
     54  CE2       19.6470   16.4830   -2.1180 C.ar  129  TYR129      0.0417
     55  CZ        20.8540   16.0120   -1.6600 C.ar  129  TYR129      0.1957
     56  OH        20.9230   15.5240   -0.3940 O.3   129  TYR129     -0.2866
     57  N         17.2830   12.6050   -4.9120 N.3   133  PHE133     -0.1241
     58  CA        17.0260   12.4200   -3.4860 C.3   133  PHE133      0.1605
     59  C         15.6170   12.7520   -3.0720 C.2   133  PHE133      0.2264
     60  O         15.1210   12.1550   -2.1130 O.2   133  PHE133     -0.2867
     61  CB        17.9560   13.3020   -2.6500 C.3   133  PHE133      0.0534
     62  CG        19.3090   12.8040   -2.5730 C.ar  133  PHE133     -0.0203
     63  CD1       19.6380   11.8480   -1.6500 C.ar  133  PHE133     -0.0042
     64  CD2       20.2880   13.2700   -3.4420 C.ar  133  PHE133     -0.0042
     65  CE1       20.9230   11.3760   -1.5810 C.ar  133  PHE133     -0.0003
     66  CE2       21.5540   12.7950   -3.3790 C.ar  133  PHE133     -0.0003
     67  CZ        21.8800   11.8370   -2.4390 C.ar  133  PHE133     -0.0000
     68  N         23.4530    6.1750   -4.8070 N.3   164  VAL164     -0.1245
     69  CA        23.4730    7.2060   -3.7820 C.3   164  VAL164      0.1561
     70  C         24.6200    6.9590   -2.8120 C.2   164  VAL164      0.2260
     71  O         25.4530    7.8390   -2.5810 O.2   164  VAL164     -0.2867
     72  CB        22.1290    7.2580   -3.0600 C.3   164  VAL164      0.0252
     73  CG1       22.2780    7.9980   -1.7230 C.3   164  VAL164      0.0019
     74  CG2       21.0690    7.8620   -3.9460 C.3   164  VAL164      0.0019
     75  N         27.7230    8.5820   -5.0830 N.3   168  LEU168     -0.1231
     76  CA        27.6740    9.9610   -4.6180 C.3   168  LEU168      0.1693
     77  C         28.3120   10.1170   -3.2480 C.2   168  LEU168      0.2591
     78  O         29.1590   10.9960   -3.0400 O.2   168  LEU168     -0.2718
     79  CB        26.2340   10.4450   -4.5670 C.3   168  LEU168      0.0284
     80  CG        25.6150   10.9810   -5.8400 C.3   168  LEU168      0.0019
     81  CD1       24.1520   11.3460   -5.5340 C.3   168  LEU168      0.0001
     82  CD2       26.3630   12.1860   -6.3490 C.3   168  LEU168      0.0001
     83  N         27.8850    9.3070   -2.2890 N.am  169  ALA169     -0.1980
     84  CA        28.3110    9.5350   -0.9180 C.3   169  ALA169      0.1597
     85  C         29.7750    9.1680   -0.7210 C.2   169  ALA169      0.2287
     86  O         30.5060    9.8710   -0.0080 O.2   169  ALA169     -0.2864
     87  CB        27.4330    8.7450    0.0290 C.3   169  ALA169      0.0319
     88  N         32.0210    9.4450   -2.9310 N.3   171  SER171     -0.1202
     89  CA        32.7760   10.5460   -3.5240 C.3   171  SER171      0.2020
     90  C         32.7930   11.7900   -2.6450 C.2   171  SER171      0.2619
     91  O         33.7890   12.5140   -2.6310 O.2   171  SER171     -0.2717
     92  CB        32.2010   10.9040   -4.9000 C.3   171  SER171      0.2103
     93  OG        32.3470    9.8220   -5.7770 O.3   171  SER171     -0.2182
     94  N         31.6980   12.0860   -1.9340 N.am  172  GLY172     -0.1942
     95  CA        31.6520   13.3000   -1.1330 C.3   172  GLY172      0.2014
     96  C         32.4480   13.1850    0.1460 C.2   172  GLY172      0.2638
     97  O         33.0200   14.1720    0.6270 O.2   172  GLY172     -0.2714
     98  N         32.5010   11.9960    0.7160 N.am  173  TYR173     -0.1973
     99  CA        33.3860   11.7870    1.8470 C.3   173  TYR173      0.1639
    100  C         34.8460   11.8520    1.4170 C.2   173  TYR173      0.2290
    101  O         35.6550   12.4740    2.0940 O.2   173  TYR173     -0.2864
    102  CB        33.0190   10.4720    2.5440 C.3   173  TYR173      0.0560
    103  CG        31.5590   10.5360    2.9660 C.ar  173  TYR173     -0.0198
    104  CD1       31.0560   11.6980    3.5480 C.ar  173  TYR173     -0.0009
    105  CD2       30.6710    9.4920    2.7210 C.ar  173  TYR173     -0.0009
    106  CE1       29.7350   11.8130    3.9200 C.ar  173  TYR173      0.0417
    107  CE2       29.3170    9.6050    3.0770 C.ar  173  TYR173      0.0417
    108  CZ        28.8560   10.7750    3.6680 C.ar  173  TYR173      0.1957
    109  OH        27.5260   10.9210    4.0390 O.3   173  TYR173     -0.2866
    110  N         35.9460   13.6520   -1.0380 N.3   175  THR175     -0.1218
    111  CA        36.1100   15.0780   -1.2530 C.3   175  THR175      0.1862
    112  C         36.2530   15.8280    0.0680 C.2   175  THR175      0.2287
    113  O         37.0980   16.7140    0.1930 O.2   175  THR175     -0.2866
    114  CB        34.9100   15.6030   -2.0630 C.3   175  THR175      0.1770
    115  OG1       34.8290   14.9090   -3.3130 O.3   175  THR175     -0.2211
    116  CG2       35.0080   17.0870   -2.3440 C.3   175  THR175      0.0375
    117  N         24.6710   16.9090  -10.5580 N.3   239  TYR239     -0.1227
    118  CA        24.9080   17.4160   -9.2130 C.3   239  TYR239      0.1736
    119  C         26.3850   17.7830   -9.0430 C.2   239  TYR239      0.2595
    120  O         26.7150   18.8810   -8.5780 O.2   239  TYR239     -0.2718
    121  CB        24.4710   16.3820   -8.1870 C.3   239  TYR239      0.0548
    122  CG        24.6120   16.8550   -6.7730 C.ar  239  TYR239     -0.0200
    123  CD1       23.9800   18.0110   -6.3530 C.ar  239  TYR239     -0.0009
    124  CD2       25.3710   16.1390   -5.8510 C.ar  239  TYR239     -0.0009
    125  CE1       24.1030   18.4610   -5.0410 C.ar  239  TYR239      0.0417
    126  CE2       25.5280   16.5880   -4.5340 C.ar  239  TYR239      0.0417
    127  CZ        24.8700   17.7490   -4.1430 C.ar  239  TYR239      0.1957
    128  OH        24.9360   18.2250   -2.8690 O.3   239  TYR239     -0.2866
    129  N         27.2850   16.9190   -9.5130 N.am  240  VAL240     -0.1980
    130  CA        28.7170   17.2120   -9.4650 C.3   240  VAL240      0.1595
    131  C         29.0260   18.5200  -10.2000 C.2   240  VAL240      0.2287
    132  O         29.7090   19.4030   -9.6720 O.2   240  VAL240     -0.2864
    133  CB        29.5090   16.0270  -10.0440 C.3   240  VAL240      0.0276
    134  CG1       30.9160   16.4340  -10.4330 C.3   240  VAL240      0.0022
    135  CG2       29.5460   14.8930   -9.0440 C.3   240  VAL240      0.0022
    136  N         28.0460   21.4430   -8.1460 N.3   243  LEU243     -0.1231
    137  CA        28.8740   21.7170   -6.9740 C.3   243  LEU243      0.1693
    138  C         30.1810   22.3850   -7.3930 C.2   243  LEU243      0.2592
    139  O         30.6280   23.3520   -6.7630 O.2   243  LEU243     -0.2718
    140  CB        29.1440   20.4400   -6.1890 C.3   243  LEU243      0.0284
    141  CG        27.9900   19.9350   -5.3240 C.3   243  LEU243      0.0019
    142  CD1       28.4090   18.6410   -4.5960 C.3   243  LEU243      0.0001
    143  CD2       27.5200   20.9810   -4.3180 C.3   243  LEU243      0.0001
    144  N         30.7730   21.8980   -8.4840 N.am  244  THR244     -0.1953
    145  CA        32.0030   22.4600   -9.0300 C.3   244  THR244      0.1897
    146  C         31.8310   23.9300   -9.4030 C.2   244  THR244      0.2313
    147  O         32.6490   24.7760   -9.0210 O.2   244  THR244     -0.2863
    148  CB        32.4160   21.6000  -10.2230 C.3   244  THR244      0.1794
    149  OG1       32.9700   20.3760   -9.7140 O.3   244  THR244     -0.2208
    150  CG2       33.3900   22.3060  -11.1530 C.3   244  THR244      0.0378
    151  N         39.1950   20.1020   -8.7840 N.3   252  TYR252     -0.1241
    152  CA        37.8830   19.6220   -9.1870 C.3   252  TYR252      0.1605
    153  C         37.9870   18.5110  -10.2090 C.2   252  TYR252      0.2264
    154  O         37.1750   17.5820  -10.1890 O.2   252  TYR252     -0.2867
    155  CB        37.0810   20.7700   -9.7240 C.3   252  TYR252      0.0534
    156  CG        36.8520   21.7780   -8.6550 C.ar  252  TYR252     -0.0201
    157  CD1       36.0600   21.4630   -7.5610 C.ar  252  TYR252     -0.0009
    158  CD2       37.4550   23.0300   -8.7050 C.ar  252  TYR252     -0.0009
    159  CE1       35.8430   22.3660   -6.5630 C.ar  252  TYR252      0.0417
    160  CE2       37.2470   23.9550   -7.6950 C.ar  252  TYR252      0.0417
    161  CZ        36.4410   23.6210   -6.6250 C.ar  252  TYR252      0.1957
    162  OH        36.2180   24.5290   -5.6020 O.3   252  TYR252     -0.2866
    163  N         38.4540   15.2310   -8.5340 N.3   255  LEU255     -0.1231
    164  CA        37.2320   14.8260   -7.8540 C.3   255  LEU255      0.1693
    165  C         36.2330   14.2830   -8.8560 C.2   255  LEU255      0.2591
    166  O         35.6540   13.2080   -8.6520 O.2   255  LEU255     -0.2718
    167  CB        36.6360   16.0060   -7.0980 C.3   255  LEU255      0.0284
    168  CG        37.6320   16.5770   -6.0890 C.3   255  LEU255      0.0019
    169  CD1       37.1830   17.9660   -5.6760 C.3   255  LEU255      0.0001
    170  CD2       37.8060   15.6610   -4.8750 C.3   255  LEU255      0.0001
    171  N         36.0630   14.9990   -9.9630 N.am  256  ARG256     -0.1980
    172  CA        35.1940   14.5260  -11.0260 C.3   256  ARG256      0.1597
    173  C         35.6260   13.1360  -11.4950 C.2   256  ARG256      0.2287
    174  O         34.7820   12.2580  -11.7090 O.2   256  ARG256     -0.2864
    175  CB        35.1940   15.5510  -12.1660 C.3   256  ARG256      0.0334
    176  CG        33.9660   15.5230  -13.0320 C.3   256  ARG256      0.0492
    177  CD        33.7320   16.8380  -13.8430 C.3   256  ARG256      0.2205
    178  NE        32.6210   16.6560  -14.7870 N.pl3 256  ARG256     -0.0865
    179  CZ        32.6920   15.9160  -15.8930 C.cat 256  ARG256      0.5346
    180  NH1       33.8270   15.3000  -16.2260 N.pl3 256  ARG256      0.1354
    181  NH2       31.6270   15.7810  -16.6630 N.pl3 256  ARG256      0.1354
    182  N         34.4410   10.5210   -8.9500 N.3   259  VAL259     -0.1245
    183  CA        33.0200   10.1860   -9.0930 C.3   259  VAL259      0.1561
    184  C         32.8380    9.2100  -10.2410 C.2   259  VAL259      0.2260
    185  O         32.0830    8.2380  -10.1380 O.2   259  VAL259     -0.2867
    186  CB        32.1440   11.4380   -9.2960 C.3   259  VAL259      0.0252
    187  CG1       30.6710   11.0640   -9.2780 C.3   259  VAL259      0.0019
    188  CG2       32.3890   12.4460   -8.2270 C.3   259  VAL259      0.0019
@<TRIPOS>BOND
     1   181   179    1
     2   180   179    1
     3   179   178    2
     4   178   177    1
     5   177   176    1
     6   176   175    1
     7   175   172    1
     8   174   173    2
     9   173   172    1
    10   150   148    1
    11   172   171    1
    12   117   118    1
    13   134   133    1
    14   184   185    2
    15   184   183    1
    16   148   149    1
    17   148   145    1
    18   153   154    2
    19   153   152    1
    20   131   132    2
    21   131   130    1
    22   133   130    1
    23   133   135    1
    24   171   165   am
    25   155   152    1
    26   155   156    1
    27   129   130    1
    28   129   119   am
    29   146   145    1
    30   146   147    2
    31   186   187    1
    32   186   183    1
    33   186   188    1
    34   118   119    1
    35   118   121    1
    36   152   151    1
    37   183   182    1
    38   119   120    2
    39   145   144    1
    40   165   166    2
    41   165   164    1
    42   158   156   ar
    43   158   160   ar
    44   156   157   ar
    45   163   164    1
    46   144   138   am
    47   121   122    1
    48   136   137    1
    49    45    46    1
    50   164   167    1
    51   160   161   ar
    52   157   159   ar
    53   138   137    1
    54   138   139    2
    55   167   168    1
    56   137   140    1
    57   122   123   ar
    58   122   124   ar
    59   161   159   ar
    60   161   162    1
    61    46    47    1
    62    46    49    1
    63   123   125   ar
    64    82    80    1
    65    47    48    2
    66   140   141    1
    67   168   169    1
    68   168   170    1
    69   124   126   ar
    70    80    81    1
    71    80    79    1
    72    93    92    1
    73    49    50    1
    74   141   142    1
    75   141   143    1
    76    75    76    1
    77   125   127   ar
    78    57    58    1
    79    92    89    1
    80    68    69    1
    81    76    79    1
    82    76    77    1
    83   126   127   ar
    84    50    51   ar
    85    50    52   ar
    86   127   128    1
    87    74    72    1
    88    69    72    1
    89    69    70    1
    90    51    53   ar
    91    89    88    1
    92    89    90    1
    93    58    59    1
    94    58    61    1
    95    64    66   ar
    96    64    62   ar
    97    66    67   ar
    98    52    54   ar
    99   115   114    1
   100    77    78    2
   101    77    83   am
   102    59    60    2
   103    72    73    1
   104    70    71    2
   105    61    62    1
   106    90    91    2
   107    90    94   am
   108    62    63   ar
   109    53    55   ar
   110    67    65   ar
   111   116   114    1
   112    83    84    1
   113    54    55   ar
   114   114   111    1
   115    94    95    1
   116    55    56    1
   117    63    65   ar
   118     8     6    1
   119   111   110    1
   120   111   112    1
   121    95    96    1
   122    84    85    1
   123    84    87    1
   124    85    86    2
   125     6     7    1
   126     6     5    1
   127   112   113    2
   128    96    97    2
   129    96    98   am
   130     1     2    1
   131    10     9    1
   132    10    11    1
   133     2     5    1
   134     2     3    1
   135    98    99    1
   136    43    42    1
   137    12    11    2
   138    11    13   am
   139   100    99    1
   140   100   101    2
   141    21    23   ar
   142    21    19   ar
   143     4     3    2
   144    23    22   ar
   145    25    24    1
   146    25    26    1
   147    99   102    1
   148    13    14    1
   149    44    42    1
   150    42    41    1
   151    19    18   ar
   152   102   103    1
   153    22    20   ar
   154   105   103   ar
   155   105   107   ar
   156    27    26    2
   157    26    28   am
   158   103   104   ar
   159   107   108   ar
   160    14    17    1
   161    14    15    1
   162    18    20   ar
   163    18    17    1
   164    37    38    1
   165    38    41    1
   166    38    39    1
   167   104   106   ar
   168   108   106   ar
   169   108   109    1
   170    28    29    1
   171    15    16    2
   172    36    34   ar
   173    40    39    2
   174    29    30    1
   175    29    32    1
   176    34    35   ar
   177    34    33    1
   178    30    31    2
   179    33    32    1
