@<TRIPOS>MOLECULE
tmp/6f6nA02.pdb
 85 81 0 0 0
SMALL
GASTEIGER

@<TRIPOS>ATOM
      1  N        -53.0660   11.8710    2.3790 N.3     7  ILE7       -0.1245
      2  CA       -52.4490   10.7110    3.0150 C.3     7  ILE7        0.1561
      3  C        -52.8120   10.7080    4.4970 C.2     7  ILE7        0.2260
      4  O        -52.5390   11.6770    5.2150 O.2     7  ILE7       -0.2867
      5  CB       -50.9270   10.7180    2.8210 C.3     7  ILE7        0.0252
      6  CG1      -50.5820   10.6050    1.3390 C.3     7  ILE7        0.0019
      7  CG2      -50.2780    9.5830    3.5910 C.3     7  ILE7        0.0019
      8  CD1      -49.1050   10.6700    1.0610 C.3     7  ILE7        0.0001
      9  N        -53.8190    6.4510    1.1730 N.3    12  LEU12      -0.1245
     10  CA       -54.4200    7.5310    0.4330 C.3    12  LEU12       0.1561
     11  C        -55.9210    7.5190    0.6400 C.2    12  LEU12       0.2260
     12  O        -56.5740    6.5080    0.4430 O.2    12  LEU12      -0.2867
     13  CB       -54.1060    7.3920   -1.0520 C.3    12  LEU12       0.0270
     14  CG       -54.4410    8.5940   -1.9320 C.3    12  LEU12       0.0019
     15  CD1      -53.5270    9.7660   -1.6200 C.3    12  LEU12       0.0001
     16  CD2      -54.3430    8.2170   -3.3980 C.3    12  LEU12       0.0001
     17  N        -51.2460   19.6150   -5.7160 N.3    33  ARG33      -0.1231
     18  CA       -50.6950   19.1250   -6.9710 C.3    33  ARG33       0.1694
     19  C        -51.7700   18.4150   -7.7820 C.2    33  ARG33       0.2593
     20  O        -52.7210   17.8530   -7.2320 O.2    33  ARG33      -0.2718
     21  CB       -49.5200   18.1630   -6.7350 C.3    33  ARG33       0.0321
     22  CG       -48.3350   18.7910   -6.0240 C.3    33  ARG33       0.0489
     23  CD       -47.6340   19.8030   -6.9140 C.3    33  ARG33       0.2205
     24  NE       -46.6070   20.5470   -6.1930 N.pl3  33  ARG33      -0.0865
     25  CZ       -45.3730   20.1040   -5.9790 C.cat  33  ARG33       0.5346
     26  NH1      -45.0040   18.9110   -6.4290 N.pl3  33  ARG33       0.1354
     27  NH2      -44.5080   20.8540   -5.3110 N.pl3  33  ARG33       0.1354
     28  N        -51.5970   18.4470   -9.1020 N.am   34  SER34      -0.1938
     29  CA       -52.4520   17.7430  -10.0450 C.3    34  SER34       0.2055
     30  C        -51.5980   16.7720  -10.8490 C.2    34  SER34       0.2642
     31  O        -50.4830   17.1080  -11.2630 O.2    34  SER34      -0.2714
     32  CB       -53.1800   18.7150  -10.9800 C.3    34  SER34       0.2130
     33  OG       -52.2700   19.5680  -11.6560 O.3    34  SER34      -0.2179
     34  N        -52.1150   15.5610  -11.0530 N.am   35  VAL35      -0.1977
     35  CA       -51.3830   14.4980  -11.7310 C.3    35  VAL35       0.1596
     36  C        -52.2650   13.8920  -12.8060 C.2    35  VAL35       0.2287
     37  O        -53.4610   13.6700  -12.5900 O.2    35  VAL35      -0.2864
     38  CB       -50.9320   13.3860  -10.7640 C.3    35  VAL35       0.0276
     39  CG1      -49.6320   12.7630  -11.2480 C.3    35  VAL35       0.0022
     40  CG2      -50.8100   13.9090   -9.3490 C.3    35  VAL35       0.0022
     41  N        -50.0820   19.1630  -13.7180 N.3    69  GLU69      -0.1231
     42  CA       -48.6950   19.5690  -13.5190 C.3    69  GLU69       0.1699
     43  C        -47.6860   18.4480  -13.7180 C.2    69  GLU69       0.2592
     44  O        -46.5510   18.7220  -14.1230 O.2    69  GLU69      -0.2718
     45  CB       -48.5200   20.1580  -12.1170 C.3    69  GLU69       0.0402
     46  CG       -49.4440   21.3320  -11.8420 C.3    69  GLU69       0.1161
     47  CD       -49.4870   21.7170  -10.3770 C.2    69  GLU69       0.3649
     48  OE1      -49.7640   22.8990  -10.0870 O.co2  69  GLU69      -0.2457
     49  OE2      -49.2460   20.8410   -9.5200 O.co2  69  GLU69      -0.2457
     50  N        -48.0600   17.2000  -13.4440 N.am   70  ALA70      -0.1980
     51  CA       -47.1470   16.0750  -13.5780 C.3    70  ALA70       0.1597
     52  C        -47.8560   14.9300  -14.2790 C.2    70  ALA70       0.2287
     53  O        -49.0730   14.7660  -14.1620 O.2    70  ALA70      -0.2864
     54  CB       -46.6160   15.6030  -12.2160 C.3    70  ALA70       0.0319
     55  N        -54.2200   16.4230   -5.4040 N.3   153  LEU153     -0.1231
     56  CA       -53.6190   15.9240   -4.1780 C.3   153  LEU153      0.1693
     57  C        -53.2520   17.0590   -3.2330 C.2   153  LEU153      0.2592
     58  O        -52.9400   18.1720   -3.6610 O.2   153  LEU153     -0.2718
     59  CB       -52.3460   15.1130   -4.4720 C.3   153  LEU153      0.0284
     60  CG       -52.4350   13.9090   -5.4050 C.3   153  LEU153      0.0019
     61  CD1      -51.0400   13.4390   -5.7770 C.3   153  LEU153      0.0001
     62  CD2      -53.2130   12.7880   -4.7440 C.3   153  LEU153      0.0001
     63  N        -53.2860   16.7540   -1.9380 N.am  154  ILE154     -0.1966
     64  CA       -52.6410   17.5600   -0.9080 C.3   154  ILE154      0.1727
     65  C        -51.4570   16.7510   -0.4000 C.2   154  ILE154      0.2616
     66  O        -51.6370   15.6930    0.2160 O.2   154  ILE154     -0.2715
     67  CB       -53.5860   17.9140    0.2480 C.3   154  ILE154      0.0290
     68  CG1      -54.8790   18.5400   -0.2600 C.3   154  ILE154      0.0022
     69  CG2      -52.9020   18.8760    1.2080 C.3   154  ILE154      0.0023
     70  CD1      -55.8240   18.9070    0.8650 C.3   154  ILE154      0.0001
     71  N        -50.2480   17.2340   -0.6550 N.am  155  LEU155     -0.1964
     72  CA       -49.0660   16.5540   -0.1540 C.3   155  LEU155      0.1713
     73  C        -48.7890   16.9690    1.2890 C.2   155  LEU155      0.2458
     74  O        -49.2210   18.0360    1.7330 O.2   155  LEU155     -0.2730
     75  CB       -47.8610   16.8750   -1.0330 C.3   155  LEU155      0.0310
     76  CG       -48.0690   16.7910   -2.5470 C.3   155  LEU155      0.0022
     77  CD1      -46.7490   17.0000   -3.2710 C.3   155  LEU155      0.0001
     78  CD2      -48.7000   15.4660   -2.9410 C.3   155  LEU155      0.0001
     79  N        -48.0870   16.1360    2.0530 N.am  156  PRO156     -0.2727
     80  CA       -47.6430   16.5620    3.3840 C.3   156  PRO156      0.1402
     81  C        -46.5920   17.6560    3.2810 C.2   156  PRO156      0.2269
     82  O        -45.9880   17.8810    2.2300 O.2   156  PRO156     -0.2865
     83  CB       -47.0520   15.2840    3.9920 C.3   156  PRO156      0.0296
     84  CG       -47.6150   14.1650    3.1750 C.3   156  PRO156      0.0237
     85  CD       -47.7670   14.7220    1.7950 C.3   156  PRO156      0.0939
@<TRIPOS>BOND
     1    52    53    2
     2    52    51    1
     3    44    43    2
     4    41    42    1
     5    43    42    1
     6    43    50   am
     7    51    50    1
     8    51    54    1
     9    42    45    1
    10    36    37    2
    11    36    35    1
    12    45    46    1
    13    46    47    1
    14    35    34    1
    15    35    38    1
    16    33    32    1
    17    31    30    2
    18    39    38    1
    19    34    30   am
    20    32    29    1
    21    30    29    1
    22    38    40    1
    23    47    48   ar
    24    47    49   ar
    25    29    28    1
    26    28    19   am
    27    19    20    2
    28    19    18    1
    29    18    21    1
    30    18    17    1
    31    23    24    1
    32    23    22    1
    33    21    22    1
    34    26    25    1
    35    24    25    2
    36    25    27    1
    37    61    60    1
    38    60    62    1
    39    60    59    1
    40    55    56    1
    41    59    56    1
    42    56    57    1
    43    58    57    2
    44    16    14    1
    45    77    76    1
    46    57    63   am
    47    78    76    1
    48    76    75    1
    49    63    64    1
    50    14    15    1
    51    14    13    1
    52    13    10    1
    53    75    72    1
    54    64    65    1
    55    64    67    1
    56    71    65   am
    57    71    72    1
    58    65    66    2
    59    68    67    1
    60    68    70    1
    61    72    73    1
    62    67    69    1
    63    10    11    1
    64    10     9    1
    65    12    11    2
    66     8     6    1
    67    73    74    2
    68    73    79   am
    69     6     5    1
    70    85    79    1
    71    85    84    1
    72    79    80    1
    73    82    81    2
    74     1     2    1
    75     5     2    1
    76     5     7    1
    77     2     3    1
    78    84    83    1
    79    81    80    1
    80    80    83    1
    81     3     4    2
