@<TRIPOS>MOLECULE
tmp/6f74C01.pdb
 82 77 0 0 0
SMALL
GASTEIGER

@<TRIPOS>ATOM
      1  N         34.7110   45.6050  141.3750 N.3    75  TYR75      -0.1227
      2  CA        33.5390   46.4610  141.2520 C.3    75  TYR75       0.1736
      3  C         33.7630   47.8190  141.9260 C.2    75  TYR75       0.2595
      4  O         33.2220   48.8240  141.4820 O.2    75  TYR75      -0.2718
      5  CB        32.2810   45.7500  141.7810 C.3    75  TYR75       0.0548
      6  CG        31.0410   46.5760  141.6170 C.ar   75  TYR75      -0.0200
      7  CD1       30.4940   46.7640  140.3670 C.ar   75  TYR75      -0.0009
      8  CD2       30.4630   47.2370  142.6950 C.ar   75  TYR75      -0.0009
      9  CE1       29.3640   47.5520  140.1850 C.ar   75  TYR75       0.0417
     10  CE2       29.3290   48.0170  142.5380 C.ar   75  TYR75       0.0417
     11  CZ        28.7860   48.1780  141.2770 C.ar   75  TYR75       0.1957
     12  OH        27.6900   48.9690  141.0800 O.3    75  TYR75      -0.2866
     13  N         34.5940   47.8460  142.9680 N.am   76  ASN76      -0.1974
     14  CA        34.9320   49.0700  143.6950 C.3    76  ASN76       0.1688
     15  C         36.3060   48.9140  144.3270 C.2    76  ASN76       0.2292
     16  O         36.4490   48.2830  145.3740 O.2    76  ASN76      -0.2864
     17  CB        33.8860   49.3170  144.7820 C.3    76  ASN76       0.1181
     18  CG        33.9170   50.7320  145.3390 C.2    76  ASN76       0.2629
     19  OD1       34.5990   51.5980  144.8320 O.2    76  ASN76      -0.2716
     20  ND2       33.1510   50.9560  146.3910 N.am   76  ASN76      -0.0877
     21  N         38.7580   49.7260  146.5440 N.3    78  THR78      -0.1218
     22  CA        38.9080   50.4570  147.8150 C.3    78  THR78       0.1862
     23  C         40.2910   50.2420  148.4560 C.2    78  THR78       0.2287
     24  O         40.5600   50.7480  149.5380 O.2    78  THR78      -0.2866
     25  CB        37.8000   50.0630  148.8000 C.3    78  THR78       0.1770
     26  OG1       37.8000   48.6480  148.9920 O.3    78  THR78      -0.2211
     27  CG2       36.4580   50.4650  148.2810 C.3    78  THR78       0.0375
     28  N         41.0240   49.6920  152.3390 N.3    94  ILE94      -0.1245
     29  CA        40.0530   48.8660  153.0850 C.3    94  ILE94       0.1561
     30  C         39.5220   47.7300  152.2130 C.2    94  ILE94       0.2260
     31  O         39.6730   47.7250  150.9960 O.2    94  ILE94      -0.2867
     32  CB        38.8650   49.6820  153.6460 C.3    94  ILE94       0.0252
     33  CG1       37.9980   50.2560  152.5160 C.3    94  ILE94       0.0019
     34  CG2       39.3900   50.7910  154.5730 C.3    94  ILE94       0.0019
     35  CD1       36.6720   50.8320  153.0260 C.3    94  ILE94       0.0001
     36  N         36.3440   47.0310  151.8450 N.3    96  GLY96      -0.1210
     37  CA        35.1730   47.5410  151.1520 C.3    96  GLY96       0.1956
     38  C         34.0280   46.5440  151.1730 C.2    96  GLY96       0.2612
     39  O         33.6330   46.0400  152.2480 O.2    96  GLY96      -0.2717
     40  N         33.5000   46.2670  149.9990 N.am   97  SER97      -0.1952
     41  CA        32.3990   45.3420  149.8190 C.3    97  SER97       0.1924
     42  C         32.8700   43.9310  149.4560 C.2    97  SER97       0.2314
     43  O         32.0760   43.0700  149.0650 O.2    97  SER97      -0.2863
     44  CB        31.4570   45.8790  148.7500 C.3    97  SER97       0.2116
     45  OG        32.1310   46.0900  147.5330 O.3    97  SER97      -0.2180
     46  N         33.9480   59.3870  144.3910 N.3   485  ARG485     -0.1245
     47  CA        32.5230   59.0630  144.1670 C.3   485  ARG485      0.1563
     48  C         31.8980   59.9480  143.0790 C.2   485  ARG485      0.2260
     49  O         31.0750   59.4680  142.2940 O.2   485  ARG485     -0.2867
     50  CB        31.6970   59.1030  145.4420 C.3   485  ARG485      0.0307
     51  CG        31.5470   57.7100  146.0540 C.3   485  ARG485      0.0489
     52  CD        30.7940   57.6330  147.3550 C.3   485  ARG485      0.2205
     53  NE        31.6240   57.9050  148.5380 N.pl3 485  ARG485     -0.0865
     54  CZ        31.8320   59.1200  149.0700 C.cat 485  ARG485      0.5346
     55  NH1       31.2780   60.2210  148.5490 N.pl3 485  ARG485      0.1354
     56  NH2       32.5970   59.2560  150.1670 N.pl3 485  ARG485      0.1354
     57  N         32.9600   58.7900  139.5560 N.3   488  ARG488     -0.1245
     58  CA        32.2580   57.5530  139.2150 C.3   488  ARG488      0.1563
     59  C         30.7760   57.8020  138.8810 C.2   488  ARG488      0.2260
     60  O         30.2420   57.1830  137.9300 O.2   488  ARG488     -0.2867
     61  CB        32.4000   56.5140  140.3190 C.3   488  ARG488      0.0307
     62  CG        31.5420   55.2910  140.0820 C.3   488  ARG488      0.0489
     63  CD        32.1210   54.0750  140.7640 C.3   488  ARG488      0.2205
     64  NE        31.4650   52.8490  140.3110 N.pl3 488  ARG488     -0.0865
     65  CZ        31.8380   51.6250  140.6850 C.cat 488  ARG488      0.5346
     66  NH1       32.9010   51.4620  141.4790 N.pl3 488  ARG488      0.1354
     67  NH2       31.1720   50.5570  140.2380 N.pl3 488  ARG488      0.1354
     68  N         27.3100   49.2620  150.4370 N.3   564  PRO564     -0.2102
     69  CA        28.7250   48.9750  150.2690 C.3   564  PRO564      0.1504
     70  C         29.4770   48.8530  151.5880 C.2   564  PRO564      0.2575
     71  O         30.5800   48.2800  151.5990 O.2   564  PRO564     -0.2718
     72  CB        29.2290   50.2140  149.5090 C.3   564  PRO564      0.0282
     73  CG        28.3950   51.3210  150.0550 C.3   564  PRO564      0.0208
     74  CD        27.0230   50.6910  150.1690 C.3   564  PRO564      0.0893
     75  N         28.9060   49.4090  152.6690 N.am  565  ASP565     -0.1974
     76  CA        29.5870   49.5480  153.9490 C.3   565  ASP565      0.1708
     77  C         28.6880   49.2500  155.1680 C.2   565  ASP565      0.2293
     78  O         28.9990   49.6470  156.2920 O.2   565  ASP565     -0.2864
     79  CB        30.2020   50.9650  154.0600 C.3   565  ASP565      0.1436
     80  CG        29.1620   52.0870  153.9220 C.2   565  ASP565      0.3671
     81  OD1       27.9830   51.8380  153.5940 O.co2 565  ASP565     -0.2456
     82  OD2       29.5410   53.2450  154.1600 O.co2 565  ASP565     -0.2456
@<TRIPOS>BOND
     1    60    59    2
     2    59    58    1
     3    58    57    1
     4    58    61    1
     5    62    61    1
     6    62    63    1
     7     9     7   ar
     8     9    11   ar
     9    67    65    1
    10    64    65    2
    11    64    63    1
    12     7     6   ar
    13    65    66    1
    14    12    11    1
    15     2     1    1
    16     2     5    1
    17     2     3    1
    18    11    10   ar
    19     4     3    2
    20     6     5    1
    21     6     8   ar
    22     3    13   am
    23    49    48    2
    24    10     8   ar
    25    13    14    1
    26    48    47    1
    27    14    15    1
    28    14    17    1
    29    47    46    1
    30    47    50    1
    31    15    16    2
    32    17    18    1
    33    19    18    2
    34    18    20   am
    35    50    51    1
    36    51    52    1
    37    21    22    1
    38    52    53    1
    39    45    44    1
    40    22    23    1
    41    22    25    1
    42    27    25    1
    43    23    24    2
    44    53    54    2
    45    55    54    1
    46    44    41    1
    47    25    26    1
    48    43    42    2
    49    54    56    1
    50    42    41    1
    51    72    73    1
    52    72    69    1
    53    41    40    1
    54    40    38   am
    55    73    74    1
    56    74    68    1
    57    69    68    1
    58    69    70    1
    59    31    30    2
    60    37    38    1
    61    37    36    1
    62    38    39    2
    63    70    71    2
    64    70    75   am
    65    30    29    1
    66    28    29    1
    67    33    35    1
    68    33    32    1
    69    75    76    1
    70    29    32    1
    71    81    80   ar
    72    32    34    1
    73    80    79    1
    74    80    82   ar
    75    76    79    1
    76    76    77    1
    77    77    78    2
