@<TRIPOS>MOLECULE
tmp/6f76F01.pdb
 126 122 0 0 0
SMALL
GASTEIGER

@<TRIPOS>ATOM
      1  N         44.1380  126.1610   36.2740 N.3     7  GLU7       -0.1245
      2  CA        45.2330  126.7420   37.0190 C.3     7  GLU7        0.1567
      3  C         44.7550  127.0470   38.4590 C.2     7  GLU7        0.2260
      4  O         43.6390  127.5190   38.6340 O.2     7  GLU7       -0.2867
      5  CB        45.6830  127.9990   36.3170 C.3     7  GLU7        0.0388
      6  CG        47.0390  128.5170   36.7810 C.3     7  GLU7        0.1160
      7  CD        47.2900  129.9780   36.4600 C.2     7  GLU7        0.3649
      8  OE1       46.8170  130.3940   35.3670 O.co2   7  GLU7       -0.2457
      9  OE2       47.9270  130.6930   37.3030 O.co2   7  GLU7       -0.2457
     10  N         46.0150  128.9110   42.1120 N.3     9  LYS9       -0.1231
     11  CA        46.9930  129.7520   42.7850 C.3     9  LYS9        0.1693
     12  C         47.0160  129.4530   44.2660 C.2     9  LYS9        0.2592
     13  O         46.0540  129.7240   44.9480 O.2     9  LYS9       -0.2718
     14  CB        46.6720  131.2270   42.5250 C.3     9  LYS9        0.0285
     15  CG        46.7720  131.6090   41.0400 C.3     9  LYS9        0.0035
     16  CD        47.0440  133.0910   40.8980 C.3     9  LYS9        0.0206
     17  CE        47.4190  133.5080   39.5070 C.3     9  LYS9        0.1093
     18  NZ        46.1930  133.4790   38.6690 N.3     9  LYS9       -0.1314
     19  N         48.1140  128.8560   44.7310 N.am   10  LEU10      -0.1966
     20  CA        48.3000  128.4140   46.1040 C.3    10  LEU10       0.1728
     21  C         49.3520  129.2870   46.7880 C.2    10  LEU10       0.2616
     22  O         50.3590  129.5990   46.1940 O.2    10  LEU10      -0.2715
     23  CB        48.7430  126.9530   46.1390 C.3    10  LEU10       0.0311
     24  CG        47.9650  126.0170   45.2400 C.3    10  LEU10       0.0022
     25  CD1       48.4160  124.5810   45.4740 C.3    10  LEU10       0.0001
     26  CD2       46.4830  126.1350   45.5070 C.3    10  LEU10       0.0001
     27  N         49.1090  129.6590   48.0350 N.am   11  VAL11      -0.1977
     28  CA        50.0360  130.4770   48.8220 C.3    11  VAL11       0.1596
     29  C         50.3840  129.7050   50.0980 C.2    11  VAL11       0.2287
     30  O         49.5040  129.1970   50.7680 O.2    11  VAL11      -0.2864
     31  CB        49.3910  131.8180   49.1710 C.3    11  VAL11       0.0276
     32  CG1       50.3480  132.6940   49.9770 C.3    11  VAL11       0.0022
     33  CG2       48.9540  132.5440   47.8830 C.3    11  VAL11       0.0022
     34  N         59.0920  133.6910   46.4430 N.3    42  ASP42      -0.1225
     35  CA        59.4960  132.7720   45.3650 C.3    42  ASP42       0.1805
     36  C         58.2720  132.1400   44.7510 C.2    42  ASP42       0.2598
     37  O         57.2890  131.8940   45.4400 O.2    42  ASP42      -0.2718
     38  CB        60.4450  131.6800   45.8890 C.3    42  ASP42       0.1424
     39  CG        61.8690  132.1560   46.0380 C.2    42  ASP42       0.3668
     40  OD1       62.5390  132.3370   45.0120 O.co2  42  ASP42      -0.2456
     41  OD2       62.3320  132.3330   47.1690 O.co2  42  ASP42      -0.2456
     42  N         58.3300  131.8860   43.4510 N.am   43  SER43      -0.1938
     43  CA        57.1740  131.3960   42.6940 C.3    43  SER43       0.2055
     44  C         57.5140  130.0860   42.0410 C.2    43  SER43       0.2643
     45  O         58.5840  129.9430   41.4660 O.2    43  SER43      -0.2714
     46  CB        56.8730  132.3950   41.5990 C.3    43  SER43       0.2130
     47  OG        56.3060  133.5660   42.1400 O.3    43  SER43      -0.2179
     48  N         56.6200  129.1230   42.1010 N.am   44  TYR44      -0.1959
     49  CA        56.8630  127.8250   41.5120 C.3    44  TYR44       0.1771
     50  C         55.6450  127.3760   40.7510 C.2    44  TYR44       0.2619
     51  O         54.5360  127.8660   40.9760 O.2    44  TYR44      -0.2715
     52  CB        57.1820  126.7940   42.5800 C.3    44  TYR44       0.0574
     53  CG        58.4130  127.0760   43.4160 C.ar   44  TYR44      -0.0198
     54  CD1       58.3640  127.9510   44.4980 C.ar   44  TYR44      -0.0009
     55  CD2       59.6190  126.4510   43.1310 C.ar   44  TYR44      -0.0009
     56  CE1       59.4700  128.2050   45.2770 C.ar   44  TYR44       0.0417
     57  CE2       60.7600  126.7140   43.8850 C.ar   44  TYR44       0.0417
     58  CZ        60.6720  127.5880   44.9650 C.ar   44  TYR44       0.1957
     59  OH        61.7870  127.8210   45.7100 O.3    44  TYR44      -0.2866
     60  N         55.8550  126.4170   39.8620 N.am   45  ARG45      -0.1977
     61  CA        54.8020  125.9340   38.9970 C.3    45  ARG45       0.1597
     62  C         54.9560  124.4400   38.7790 C.2    45  ARG45       0.2287
     63  O         56.0630  123.9620   38.5780 O.2    45  ARG45      -0.2864
     64  CB        54.9090  126.6610   37.6930 C.3    45  ARG45       0.0334
     65  CG        53.6960  126.5030   36.8240 C.3    45  ARG45       0.0492
     66  CD        53.6670  127.4600   35.6560 C.3    45  ARG45       0.2205
     67  NE        52.6960  128.5310   35.8800 N.pl3  45  ARG45      -0.0865
     68  CZ        52.4470  129.5390   35.0380 C.cat  45  ARG45       0.5346
     69  NH1       51.5180  130.4420   35.3480 N.pl3  45  ARG45       0.1354
     70  NH2       53.1230  129.6540   33.8960 N.pl3  45  ARG45       0.1354
     71  N         50.2460  126.9530   40.5790 N.3    58  ASP58      -0.1225
     72  CA        51.1220  128.1140   40.7720 C.3    58  ASP58       0.1805
     73  C         51.2570  128.3370   42.2720 C.2    58  ASP58       0.2598
     74  O         50.2710  128.6110   42.9400 O.2    58  ASP58      -0.2718
     75  CB        50.5160  129.3790   40.1910 C.3    58  ASP58       0.1424
     76  CG        50.5970  129.4570   38.7070 C.2    58  ASP58       0.3668
     77  OD1       51.0220  128.5060   38.0110 O.co2  58  ASP58      -0.2456
     78  OD2       50.2750  130.5360   38.2130 O.co2  58  ASP58      -0.2456
     79  N         52.4730  128.2500   42.7770 N.am   59  ILE59      -0.1966
     80  CA        52.6940  128.2080   44.1890 C.3    59  ILE59       0.1727
     81  C         53.5850  129.3540   44.6200 C.2    59  ILE59       0.2616
     82  O         54.7010  129.4920   44.1330 O.2    59  ILE59      -0.2715
     83  CB        53.3260  126.8880   44.5970 C.3    59  ILE59       0.0290
     84  CG1       52.3920  125.7320   44.2050 C.3    59  ILE59       0.0022
     85  CG2       53.5850  126.8800   46.1010 C.3    59  ILE59       0.0023
     86  CD1       53.0660  124.4060   44.2630 C.3    59  ILE59       0.0001
     87  N         53.0620  130.1830   45.5190 N.am   60  LEU60      -0.1977
     88  CA        53.7850  131.2990   46.0680 C.3    60  LEU60       0.1596
     89  C         54.2890  130.9330   47.4630 C.2    60  LEU60       0.2287
     90  O         53.5100  130.6490   48.3680 O.2    60  LEU60      -0.2864
     91  CB        52.8990  132.5320   46.1180 C.3    60  LEU60       0.0297
     92  CG        53.6920  133.8380   46.3400 C.3    60  LEU60       0.0022
     93  CD1       54.5830  134.2410   45.1660 C.3    60  LEU60       0.0001
     94  CD2       52.7450  134.9620   46.6230 C.3    60  LEU60       0.0001
     95  N         48.8100  142.0770   48.6110 N.3    70  GLN70      -0.1231
     96  CA        48.7390  141.7020   47.2060 C.3    70  GLN70       0.1698
     97  C         48.5200  140.1980   47.0180 C.2    70  GLN70       0.2592
     98  O         47.4830  139.7710   46.4810 O.2    70  GLN70      -0.2718
     99  CB        50.0190  142.1440   46.4540 C.3    70  GLN70       0.0381
    100  CG        50.0770  141.8290   44.9570 C.3    70  GLN70       0.0905
    101  CD        48.8040  142.2010   44.2020 C.2    70  GLN70       0.2608
    102  OE1       48.1170  143.1660   44.5320 O.2    70  GLN70      -0.2717
    103  NE2       48.4910  141.4320   43.1760 N.am   70  GLN70      -0.0878
    104  N         49.4690  139.3900   47.4940 N.am   71  TYR71      -0.1976
    105  CA        49.3730  137.9540   47.2810 C.3    71  TYR71       0.1639
    106  C         48.2240  137.2550   48.0090 C.2    71  TYR71       0.2290
    107  O         47.7540  136.2230   47.5530 O.2    71  TYR71      -0.2864
    108  CB        50.7010  137.2560   47.5410 C.3    71  TYR71       0.0560
    109  CG        51.2320  137.1990   48.9620 C.ar   71  TYR71      -0.0198
    110  CD1       50.5580  136.4980   49.9610 C.ar   71  TYR71      -0.0009
    111  CD2       52.4780  137.7690   49.2800 C.ar   71  TYR71      -0.0009
    112  CE1       51.0690  136.4330   51.2670 C.ar   71  TYR71       0.0417
    113  CE2       53.0010  137.6790   50.5780 C.ar   71  TYR71       0.0417
    114  CZ        52.2880  137.0090   51.5690 C.ar   71  TYR71       0.1957
    115  OH        52.7650  136.9050   52.8570 O.3    71  TYR71      -0.2866
    116  N         45.3780  137.6940   45.5620 N.3    74  THR74      -0.1203
    117  CA        45.5260  136.8190   44.3970 C.3    74  THR74       0.1994
    118  C         45.2860  135.3300   44.6800 C.2    74  THR74       0.2618
    119  O         44.7400  134.6280   43.8390 O.2    74  THR74      -0.2717
    120  CB        46.9450  136.9740   43.7930 C.3    74  THR74       0.1784
    121  OG1       47.1280  138.3170   43.3660 O.3    74  THR74      -0.2211
    122  CG2       47.1610  136.0910   42.5700 C.3    74  THR74       0.0376
    123  N         45.7130  134.8340   45.8400 N.am   75  GLY75      -0.1956
    124  CA        45.6630  133.3990   46.1120 C.3    75  GLY75       0.1869
    125  C         44.2470  132.8580   46.1870 C.2    75  GLY75       0.2309
    126  O         43.3580  133.5220   46.6900 O.2    75  GLY75      -0.2863
@<TRIPOS>BOND
     1    70    68    1
     2    68    69    1
     3    68    67    2
     4     8     7   ar
     5    66    67    1
     6    66    65    1
     7     1     2    1
     8     5     6    1
     9     5     2    1
    10     7     6    1
    11     7     9   ar
    12    65    64    1
    13     2     3    1
    14    64    61    1
    15    77    76   ar
    16    78    76   ar
    17     3     4    2
    18    63    62    2
    19    18    17    1
    20    76    75    1
    21    62    61    1
    22    61    60    1
    23    17    16    1
    24    60    50   am
    25    75    72    1
    26    71    72    1
    27    50    51    2
    28    50    49    1
    29    72    73    1
    30    16    15    1
    31    15    14    1
    32    45    44    2
    33    49    48    1
    34    49    52    1
    35    46    47    1
    36    46    43    1
    37    44    48   am
    38    44    43    1
    39    10    11    1
    40    73    79   am
    41    73    74    2
    42    14    11    1
    43   122   120    1
    44    52    53    1
    45    43    42    1
    46    79    80    1
    47    11    12    1
    48    55    53   ar
    49    55    57   ar
    50   103   101   am
    51   121   120    1
    52    53    54   ar
    53    42    36   am
    54   120   117    1
    55   119   118    2
    56    57    58   ar
    57    82    81    2
    58    80    83    1
    59    80    81    1
    60   101   102    2
    61   101   100    1
    62    84    86    1
    63    84    83    1
    64    12    19   am
    65    12    13    2
    66   117   118    1
    67   117   116    1
    68    54    56   ar
    69    83    85    1
    70    81    87   am
    71   118   123   am
    72    19    20    1
    73    36    35    1
    74    36    37    2
    75   100    99    1
    76    58    56   ar
    77    58    59    1
    78    40    39   ar
    79    93    92    1
    80    24    25    1
    81    24    26    1
    82    24    23    1
    83    35    38    1
    84    35    34    1
    85    87    88    1
    86   123   124    1
    87    38    39    1
    88    39    41   ar
    89    88    91    1
    90    88    89    1
    91    20    23    1
    92    20    21    1
    93   124   125    1
    94    91    92    1
    95   125   126    2
    96    22    21    2
    97    92    94    1
    98    99    96    1
    99    98    97    2
   100    21    27   am
   101    97    96    1
   102    97   104   am
   103    96    95    1
   104   105   104    1
   105   105   108    1
   106   105   106    1
   107    89    90    2
   108   108   109    1
   109   107   106    2
   110    33    31    1
   111    27    28    1
   112    28    31    1
   113    28    29    1
   114   109   111   ar
   115   109   110   ar
   116    31    32    1
   117   111   113   ar
   118   110   112   ar
   119    29    30    2
   120   113   114   ar
   121   112   114   ar
   122   114   115    1
