@<TRIPOS>MOLECULE
tmp/6f77F00.pdb
 148 139 0 0 0
SMALL
GASTEIGER

@<TRIPOS>ATOM
      1  N        -22.8560  -82.5130   63.2950 N.3    38  GLY38      -0.1225
      2  CA       -23.6710  -82.3350   62.1120 C.3    38  GLY38       0.1811
      3  C        -23.1220  -83.0390   60.8920 C.2    38  GLY38       0.2280
      4  O        -22.8000  -82.3920   59.8940 O.2    38  GLY38      -0.2866
      5  N        -15.5720  -76.8800   50.4400 N.3    98  GLY98      -0.1210
      6  CA       -16.7130  -76.9330   51.3210 C.3    98  GLY98       0.1956
      7  C        -17.7090  -75.8330   51.0080 C.2    98  GLY98       0.2612
      8  O        -17.3910  -74.8070   50.3960 O.2    98  GLY98      -0.2717
      9  N        -18.9480  -76.0640   51.4370 N.am   99  GLY99      -0.1942
     10  CA       -19.8990  -74.9860   51.4350 C.3    99  GLY99       0.2014
     11  C        -19.4060  -73.7990   52.2330 C.2    99  GLY99       0.2638
     12  O        -19.7070  -72.6560   51.9000 O.2    99  GLY99      -0.2714
     13  N        -18.6190  -74.0520   53.2870 N.am  100  LYS100     -0.1977
     14  CA       -18.1000  -72.9600   54.1040 C.3   100  LYS100      0.1596
     15  C        -17.3210  -71.9440   53.2740 C.2   100  LYS100      0.2287
     16  O        -17.4610  -70.7330   53.4810 O.2   100  LYS100     -0.2864
     17  CB       -17.2090  -73.5150   55.2110 C.3   100  LYS100      0.0298
     18  CG       -17.4370  -72.8680   56.5510 C.3   100  LYS100      0.0038
     19  CD       -16.8680  -73.7380   57.6450 C.3   100  LYS100      0.0206
     20  CE       -17.4950  -73.4290   58.9840 C.3   100  LYS100      0.1093
     21  NZ       -16.9370  -74.3410   60.0020 N.3   100  LYS100     -0.1314
     22  N        -19.6820  -69.6740   51.2970 N.3   103  LEU103     -0.1245
     23  CA       -20.2430  -68.6570   52.1810 C.3   103  LEU103      0.1561
     24  C        -19.1940  -67.6240   52.5620 C.2   103  LEU103      0.2260
     25  O        -19.4350  -66.4150   52.4670 O.2   103  LEU103     -0.2867
     26  CB       -20.8370  -69.3180   53.4270 C.3   103  LEU103      0.0270
     27  CG       -21.9910  -70.2810   53.1330 C.3   103  LEU103      0.0019
     28  CD1      -22.3040  -71.1010   54.3760 C.3   103  LEU103      0.0001
     29  CD2      -23.2440  -69.5570   52.6210 C.3   103  LEU103      0.0001
     30  N        -27.3080  -71.2320   62.2080 N.3   124  TRP124     -0.1241
     31  CA       -26.0030  -71.8620   62.1920 C.3   124  TRP124      0.1605
     32  C        -24.9750  -70.8460   62.6690 C.2   124  TRP124      0.2264
     33  O        -24.8900  -69.7390   62.1310 O.2   124  TRP124     -0.2867
     34  CB       -25.6980  -72.3470   60.7780 C.3   124  TRP124      0.0550
     35  CG       -24.4260  -73.1400   60.6550 C.ar  124  TRP124      0.0003
     36  CD1      -23.9400  -74.0640   61.5320 C.ar  124  TRP124      0.0946
     37  CD2      -23.4800  -73.0620   59.5860 C.ar  124  TRP124      0.0152
     38  NE1      -22.7510  -74.5730   61.0700 N.ar  124  TRP124     -0.2442
     39  CE2      -22.4440  -73.9690   59.8780 C.ar  124  TRP124      0.0810
     40  CE3      -23.4040  -72.3030   58.4140 C.ar  124  TRP124      0.0012
     41  CZ2      -21.3480  -74.1520   59.0290 C.ar  124  TRP124      0.0191
     42  CZ3      -22.3100  -72.4850   57.5700 C.ar  124  TRP124      0.0001
     43  CH2      -21.3000  -73.4020   57.8840 C.ar  124  TRP124      0.0015
     44  N        -22.6550  -68.4060   60.4570 N.3   127  TYR127     -0.1241
     45  CA       -23.0890  -67.2350   59.6900 C.3   127  TYR127      0.1605
     46  C        -22.6630  -65.9370   60.3570 C.2   127  TYR127      0.2264
     47  O        -21.9720  -65.1290   59.7100 O.2   127  TYR127     -0.2867
     48  CB       -24.6080  -67.2390   59.4520 C.3   127  TYR127      0.0534
     49  CG       -25.1830  -68.3350   58.5750 C.ar  127  TYR127     -0.0201
     50  CD1      -24.5710  -68.7130   57.3810 C.ar  127  TYR127     -0.0009
     51  CD2      -26.3660  -68.9740   58.9460 C.ar  127  TYR127     -0.0009
     52  CE1      -25.1250  -69.7130   56.5870 C.ar  127  TYR127      0.0417
     53  CE2      -26.9150  -69.9630   58.1770 C.ar  127  TYR127      0.0417
     54  CZ       -26.2980  -70.3330   56.9980 C.ar  127  TYR127      0.1957
     55  OH       -26.8730  -71.3290   56.2500 O.3   127  TYR127     -0.2866
     56  N        -31.5730  -70.1640   54.9190 N.3   170  ASN170     -0.1240
     57  CA       -31.0780  -71.5260   55.0960 C.3   170  ASN170      0.1653
     58  C        -32.2920  -72.4220   55.3190 C.2   170  ASN170      0.2266
     59  O        -32.8620  -72.4570   56.4150 O.2   170  ASN170     -0.2867
     60  CB       -30.0760  -71.5530   56.2620 C.3   170  ASN170      0.1155
     61  CG       -29.6380  -72.9390   56.6470 C.2   170  ASN170      0.2627
     62  OD1      -29.4960  -73.2310   57.8330 O.2   170  ASN170     -0.2716
     63  ND2      -29.4010  -73.8060   55.6550 N.am  170  ASN170     -0.0877
     64  N        -30.2990  -75.6720   59.6360 N.3   174  ASN174     -0.1240
     65  CA       -29.4790  -75.9840   60.7950 C.3   174  ASN174      0.1653
     66  C        -29.5890  -74.7920   61.7300 C.2   174  ASN174      0.2266
     67  O        -29.1710  -73.6930   61.3430 O.2   174  ASN174     -0.2867
     68  CB       -28.0280  -76.2150   60.3640 C.3   174  ASN174      0.1155
     69  CG       -27.1090  -76.6120   61.5110 C.2   174  ASN174      0.2627
     70  OD1      -27.5140  -76.6670   62.6740 O.2   174  ASN174     -0.2716
     71  ND2      -25.8490  -76.9100   61.1770 N.am  174  ASN174     -0.0877
     72  N        -28.7510  -71.0220   51.3270 N.3   203  ASP203     -0.1239
     73  CA       -27.9190  -72.1600   51.7130 C.3   203  ASP203      0.1674
     74  C        -28.8110  -73.4010   51.6510 C.2   203  ASP203      0.2266
     75  O        -29.5850  -73.6790   52.5780 O.2   203  ASP203     -0.2867
     76  CB       -27.3190  -71.9040   53.0980 C.3   203  ASP203      0.1410
     77  CG       -26.4360  -73.0460   53.6030 C.2   203  ASP203      0.3668
     78  OD1      -26.3980  -74.1220   52.9720 O.co2 203  ASP203     -0.2456
     79  OD2      -25.7790  -72.8620   54.6540 O.co2 203  ASP203     -0.2456
     80  N        -27.9140  -76.5720   51.4060 N.3   205  MET205     -0.1230
     81  CA       -27.1720  -77.7520   51.8380 C.3   205  MET205      0.1702
     82  C        -28.0230  -78.9750   52.1890 C.2   205  MET205      0.2592
     83  O        -27.6360  -80.1010   51.8600 O.2   205  MET205     -0.2718
     84  CB       -26.3050  -77.3640   53.0420 C.3   205  MET205      0.0401
     85  CG       -25.2920  -78.3920   53.4630 C.3   205  MET205      0.0596
     86  SD       -24.0060  -78.7340   52.2360 S.3   205  MET205     -0.1393
     87  CE       -23.3290  -77.1040   52.0000 C.3   205  MET205      0.0692
     88  N        -29.1790  -78.7990   52.8430 N.am  206  TYR206     -0.1976
     89  CA       -29.9690  -79.9460   53.2770 C.3   206  TYR206      0.1639
     90  C        -31.1520  -80.2250   52.3600 C.2   206  TYR206      0.2290
     91  O        -32.1100  -80.8830   52.7790 O.2   206  TYR206     -0.2864
     92  CB       -30.4560  -79.7530   54.7180 C.3   206  TYR206      0.0560
     93  CG       -29.3190  -79.6330   55.7190 C.ar  206  TYR206     -0.0198
     94  CD1      -28.7820  -80.7520   56.3300 C.ar  206  TYR206     -0.0009
     95  CD2      -28.7820  -78.3950   56.0350 C.ar  206  TYR206     -0.0009
     96  CE1      -27.7410  -80.6320   57.2540 C.ar  206  TYR206      0.0417
     97  CE2      -27.7350  -78.2700   56.9390 C.ar  206  TYR206      0.0417
     98  CZ       -27.2240  -79.3920   57.5450 C.ar  206  TYR206      0.1957
     99  OH       -26.1840  -79.2600   58.4480 O.3   206  TYR206     -0.2866
    100  N        -26.4110  -71.4080   46.8070 N.3   233  MET233     -0.1245
    101  CA       -25.3170  -72.1960   47.3520 C.3   233  MET233      0.1570
    102  C        -25.8140  -73.5780   47.7650 C.2   233  MET233      0.2261
    103  O        -26.9500  -73.7370   48.2280 O.2   233  MET233     -0.2867
    104  CB       -24.6890  -71.4530   48.5380 C.3   233  MET233      0.0387
    105  CG       -23.5960  -72.1770   49.2650 C.3   233  MET233      0.0595
    106  SD       -24.3820  -73.0350   50.6430 S.3   233  MET233     -0.1393
    107  CE       -22.9780  -73.6520   51.5400 C.3   233  MET233      0.0692
    108  N        -21.7180  -82.2510   50.9260 N.3   237  SER237     -0.1202
    109  CA       -21.3490  -82.7230   52.2600 C.3   237  SER237      0.2020
    110  C        -22.4680  -83.5320   52.8900 C.2   237  SER237      0.2618
    111  O        -22.2550  -84.6660   53.3460 O.2   237  SER237     -0.2717
    112  CB       -21.0060  -81.5430   53.1720 C.3   237  SER237      0.2103
    113  OG       -19.6330  -81.2070   53.1040 O.3   237  SER237     -0.2182
    114  N        -23.6690  -82.9560   52.9460 N.am  238  LYS238     -0.1979
    115  CA       -24.7240  -83.5950   53.7240 C.3   238  LYS238      0.1596
    116  C        -25.4850  -84.6420   52.9160 C.2   238  LYS238      0.2287
    117  O        -25.7110  -85.7540   53.3990 O.2   238  LYS238     -0.2864
    118  CB       -25.6720  -82.5300   54.2850 C.3   238  LYS238      0.0298
    119  CG       -24.9600  -81.4220   55.1100 C.3   238  LYS238      0.0038
    120  CD       -23.9970  -81.9590   56.1590 C.3   238  LYS238      0.0206
    121  CE       -23.5080  -80.8960   57.1740 C.3   238  LYS238      0.1093
    122  NZ       -23.1690  -79.5210   56.6680 N.3   238  LYS238     -0.1314
    123  N        -18.6730  -85.1680   53.9100 N.3   243  THR243     -0.1218
    124  CA       -18.2110  -84.0140   54.6800 C.3   243  THR243      0.1862
    125  C        -16.6870  -83.8690   54.6330 C.2   243  THR243      0.2287
    126  O        -16.1730  -82.7570   54.4770 O.2   243  THR243     -0.2866
    127  CB       -18.6880  -84.1190   56.1190 C.3   243  THR243      0.1770
    128  OG1      -18.3690  -85.4210   56.6380 O.3   243  THR243     -0.2211
    129  CG2      -20.2030  -83.8620   56.1820 C.3   243  THR243      0.0375
    130  N        -14.8020  -82.0690   51.3800 N.3   246  ARG246     -0.1231
    131  CA       -14.8210  -80.6100   51.2790 C.3   246  ARG246      0.1694
    132  C        -15.1530  -80.1120   49.8690 C.2   246  ARG246      0.2591
    133  O        -14.3000  -79.5150   49.1980 O.2   246  ARG246     -0.2718
    134  CB       -13.4870  -79.9870   51.7210 C.3   246  ARG246      0.0321
    135  CG       -12.8230  -80.5460   52.9980 C.3   246  ARG246      0.0489
    136  CD       -13.7260  -80.4790   54.2530 C.3   246  ARG246      0.2205
    137  NE       -14.2630  -79.1270   54.4950 N.pl3 246  ARG246     -0.0865
    138  CZ       -15.5550  -78.7930   54.4620 C.cat 246  ARG246      0.5346
    139  NH1      -16.4870  -79.6890   54.2030 N.pl3 246  ARG246      0.1354
    140  NH2      -15.9220  -77.5310   54.6900 N.pl3 246  ARG246      0.1354
    141  N        -16.3870  -80.3190   49.4070 N.am  247  ILE247     -0.1980
    142  CA       -16.8220  -79.7610   48.1250 C.3   247  ILE247      0.1595
    143  C        -18.1430  -79.0360   48.3280 C.2   247  ILE247      0.2287
    144  O        -19.1620  -79.6550   48.6620 O.2   247  ILE247     -0.2864
    145  CB       -16.9530  -80.8240   47.0200 C.3   247  ILE247      0.0276
    146  CG1      -15.5700  -81.3940   46.6420 C.3   247  ILE247      0.0022
    147  CG2      -17.6820  -80.2380   45.7980 C.3   247  ILE247      0.0022
    148  CD1      -14.6490  -80.3970   45.9250 C.3   247  ILE247      0.0001
@<TRIPOS>BOND
     1   147   145    1
     2   148   146    1
     3   146   145    1
     4   100   101    1
     5   145   142    1
     6   101   102    1
     7   101   104    1
     8   102   103    2
     9   142   143    1
    10   142   141    1
    11   143   144    2
    12   104   105    1
    13   133   132    2
    14   105   106    1
    15   141   132   am
    16   132   131    1
    17     8     7    2
    18     5     6    1
    19   106   107    1
    20   108   109    1
    21     7     6    1
    22     7     9   am
    23   131   130    1
    24   131   134    1
    25    22    23    1
    26    72    73    1
    27    80    81    1
    28    10     9    1
    29    10    11    1
    30    74    73    1
    31    74    75    2
    32    73    76    1
    33   134   135    1
    34    81    82    1
    35    81    84    1
    36    83    82    2
    37    12    11    2
    38    87    86    1
    39    23    24    1
    40    23    26    1
    41    82    88   am
    42    11    13   am
    43    86    85    1
    44   109   110    1
    45   109   112    1
    46    90    91    2
    47    90    89    1
    48    25    24    2
    49    29    27    1
    50    88    89    1
    51   110   114   am
    52   110   111    2
    53   116   117    2
    54   116   115    1
    55   114   115    1
    56    78    77   ar
    57   135   136    1
    58    84    85    1
    59    76    77    1
    60   113   112    1
    61    27    26    1
    62    27    28    1
    63    15    16    2
    64    15    14    1
    65    89    92    1
    66    13    14    1
    67    77    79   ar
    68   115   118    1
    69   123   124    1
    70    14    17    1
    71   139   138    1
    72   136   137    1
    73   118   119    1
    74   138   137    2
    75   138   140    1
    76   126   125    2
    77   125   124    1
    78   124   127    1
    79    92    93    1
    80    56    57    1
    81    57    58    1
    82    57    60    1
    83   119   120    1
    84    17    18    1
    85    58    59    2
    86    63    61   am
    87    93    95   ar
    88    93    94   ar
    89    95    97   ar
    90   127   129    1
    91   127   128    1
    92   120   121    1
    93    55    54    1
    94    60    61    1
    95    94    96   ar
    96    18    19    1
    97    52    54   ar
    98    52    50   ar
    99    61    62    2
   100   122   121    1
   101    97    98   ar
   102    54    53   ar
   103    96    98   ar
   104    50    49   ar
   105    98    99    1
   106    42    43   ar
   107    42    40   ar
   108    19    20    1
   109    43    41   ar
   110    53    51   ar
   111    40    37   ar
   112    49    51   ar
   113    49    48    1
   114    20    21    1
   115    41    39   ar
   116    48    45    1
   117    37    39   ar
   118    37    35   ar
   119    64    65    1
   120    45    46    1
   121    45    44    1
   122    47    46    2
   123    39    38   ar
   124     4     3    2
   125    68    65    1
   126    68    69    1
   127    35    34    1
   128    35    36   ar
   129    34    31    1
   130    65    66    1
   131     3     2    1
   132    38    36   ar
   133    71    69   am
   134    67    66    2
   135    69    70    2
   136     2     1    1
   137    33    32    2
   138    31    30    1
   139    31    32    1
