@<TRIPOS>MOLECULE
tmp/6f78B00.pdb
 190 189 0 0 0
SMALL
GASTEIGER

@<TRIPOS>ATOM
      1  N          8.9710   42.3710   87.1330 N.3    19  TYR19      -0.1241
      2  CA        10.3940   42.6720   87.0480 C.3    19  TYR19       0.1605
      3  C         11.2200   41.4000   87.1610 C.2    19  TYR19       0.2264
      4  O         11.0170   40.5850   88.0670 O.2    19  TYR19      -0.2867
      5  CB        10.8600   43.6670   88.1160 C.3    19  TYR19       0.0534
      6  CG        12.3460   43.9090   87.9600 C.ar   19  TYR19      -0.0201
      7  CD1       12.8190   44.7670   86.9820 C.ar   19  TYR19      -0.0009
      8  CD2       13.2800   43.2200   88.7300 C.ar   19  TYR19      -0.0009
      9  CE1       14.1730   44.9680   86.7910 C.ar   19  TYR19       0.0417
     10  CE2       14.6500   43.4120   88.5450 C.ar   19  TYR19       0.0417
     11  CZ        15.0850   44.2900   87.5760 C.ar   19  TYR19       0.1957
     12  OH        16.4370   44.4860   87.3860 O.3    19  TYR19      -0.2866
     13  N         11.1710   51.2330   83.5300 N.3    49  LEU49      -0.1231
     14  CA        12.4370   50.7810   84.0940 C.3    49  LEU49       0.1693
     15  C         12.7000   49.3040   83.8190 C.2    49  LEU49       0.2592
     16  O         13.8600   48.8860   83.7590 O.2    49  LEU49      -0.2718
     17  CB        12.4240   51.0180   85.6070 C.3    49  LEU49       0.0284
     18  CG        13.6970   50.6610   86.3740 C.3    49  LEU49       0.0019
     19  CD1       14.8310   51.6200   86.0200 C.3    49  LEU49       0.0001
     20  CD2       13.4210   50.6500   87.8770 C.3    49  LEU49       0.0001
     21  N         11.6490   48.4950   83.6600 N.am   50  TYR50      -0.1976
     22  CA        11.8250   47.0490   83.6870 C.3    50  TYR50       0.1639
     23  C         12.3050   46.4820   82.3620 C.2    50  TYR50       0.2290
     24  O         12.6530   45.3000   82.3070 O.2    50  TYR50      -0.2864
     25  CB        10.5330   46.3380   84.1050 C.3    50  TYR50       0.0560
     26  CG         9.9870   46.7650   85.4520 C.ar   50  TYR50      -0.0198
     27  CD1       10.7340   47.5600   86.3210 C.ar   50  TYR50      -0.0009
     28  CD2        8.7140   46.3690   85.8540 C.ar   50  TYR50      -0.0009
     29  CE1       10.2270   47.9520   87.5440 C.ar   50  TYR50       0.0417
     30  CE2        8.1960   46.7570   87.0800 C.ar   50  TYR50       0.0417
     31  CZ         8.9620   47.5490   87.9200 C.ar   50  TYR50       0.1957
     32  OH         8.4440   47.9620   89.1140 O.3    50  TYR50      -0.2866
     33  N          4.7850   52.7880   84.7200 N.3    79  LYS79      -0.1245
     34  CA         5.3230   53.7930   85.6250 C.3    79  LYS79       0.1561
     35  C          6.2550   54.7160   84.8600 C.2    79  LYS79       0.2260
     36  O          7.0340   54.2690   84.0100 O.2    79  LYS79      -0.2867
     37  CB         6.0770   53.1540   86.7960 C.3    79  LYS79       0.0271
     38  CG         5.3250   52.0210   87.4800 C.3    79  LYS79       0.0035
     39  CD         6.0420   51.5530   88.7380 C.3    79  LYS79       0.0206
     40  CE         5.4000   50.3030   89.3450 C.3    79  LYS79       0.1093
     41  NZ         5.8350   49.0930   88.6070 N.3    79  LYS79      -0.1314
     42  N          9.4160   56.8660   84.6440 N.3    81  TRP81      -0.1227
     43  CA        10.7260   56.8260   85.2730 C.3    81  TRP81       0.1737
     44  C         11.2030   58.2400   85.6510 C.2    81  TRP81       0.2596
     45  O         10.7370   59.2560   85.1270 O.2    81  TRP81      -0.2718
     46  CB        11.7410   56.0230   84.4290 C.3    81  TRP81       0.0564
     47  CG        13.0300   55.9160   85.1610 C.ar   81  TRP81       0.0003
     48  CD1       14.2390   56.3960   84.7630 C.ar   81  TRP81       0.0946
     49  CD2       13.2210   55.3770   86.4780 C.ar   81  TRP81       0.0152
     50  NE1       15.1750   56.1730   85.7380 N.ar   81  TRP81      -0.2442
     51  CE2       14.5780   55.5530   86.8050 C.ar   81  TRP81       0.0810
     52  CE3       12.3760   54.7490   87.4060 C.ar   81  TRP81       0.0012
     53  CZ2       15.1190   55.1280   88.0220 C.ar   81  TRP81       0.0191
     54  CZ3       12.9060   54.3550   88.6220 C.ar   81  TRP81       0.0001
     55  CH2       14.2690   54.5330   88.9140 C.ar   81  TRP81       0.0015
     56  N         12.1380   58.2870   86.6030 N.am   82  SER82      -0.1952
     57  CA        12.5000   59.5170   87.2980 C.3    82  SER82       0.1924
     58  C         13.2730   60.5080   86.4400 C.2    82  SER82       0.2314
     59  O         13.4530   61.6560   86.8630 O.2    82  SER82      -0.2863
     60  CB        13.3060   59.1360   88.5290 C.3    82  SER82       0.2116
     61  OG        12.5710   58.1770   89.2650 O.3    82  SER82      -0.2180
     62  N          7.0290   56.6600   89.3450 N.3   112  HIS112     -0.1226
     63  CA         7.7400   55.5050   89.9010 C.3   112  HIS112      0.1752
     64  C          8.4190   55.8320   91.2260 C.2   112  HIS112      0.2597
     65  O          8.4960   54.9750   92.1180 O.2   112  HIS112     -0.2718
     66  CB         8.7710   55.0110   88.8790 C.3   112  HIS112      0.0759
     67  CG         9.1800   53.5780   89.0420 C.ar  112  HIS112      0.0818
     68  ND1        9.5030   52.7850   87.9610 N.ar  112  HIS112     -0.2268
     69  CD2        9.3680   52.8100   90.1460 C.ar  112  HIS112      0.1154
     70  CE1        9.8430   51.5830   88.3890 C.ar  112  HIS112      0.1986
     71  NE2        9.7720   51.5720   89.7100 N.ar  112  HIS112     -0.2212
     72  N          8.9230   57.0510   91.3730 N.am  113  SER113     -0.1938
     73  CA         9.7090   57.4160   92.5370 C.3   113  SER113      0.2040
     74  C          9.7010   58.9280   92.6310 C.2   113  SER113      0.2485
     75  O          9.6940   59.6050   91.5970 O.2   113  SER113     -0.2729
     76  CB        11.1480   56.9210   92.3490 C.3   113  SER113      0.2129
     77  OG        12.0490   57.6260   93.1770 O.3   113  SER113     -0.2179
     78  N          9.7220   59.4940   93.8380 N.am  114  PRO114     -0.2715
     79  CA         9.7900   60.9530   93.9580 C.3   114  PRO114      0.1536
     80  C         11.1760   61.5190   93.6980 C.2   114  PRO114      0.2598
     81  O         11.3370   62.7460   93.6980 O.2   114  PRO114     -0.2715
     82  CB         9.3560   61.2010   95.4070 C.3   114  PRO114      0.0310
     83  CG         9.8020   59.9560   96.1400 C.3   114  PRO114      0.0237
     84  CD         9.6590   58.8210   95.1460 C.3   114  PRO114      0.0939
     85  N         12.1850   60.6740   93.4840 N.am  115  MET115     -0.1978
     86  CA        13.5690   61.1460   93.4060 C.3   115  MET115      0.1605
     87  C         13.9360   61.4450   91.9560 C.2   115  MET115      0.2287
     88  O         14.4840   60.6060   91.2420 O.2   115  MET115     -0.2864
     89  CB        14.5050   60.1340   94.0490 C.3   115  MET115      0.0413
     90  CG        14.2960   60.0110   95.5420 C.3   115  MET115      0.0598
     91  SD        15.4360   58.8620   96.3090 S.3   115  MET115     -0.1393
     92  CE        14.8150   57.3020   95.6920 C.3   115  MET115      0.0692
     93  N         15.6460   62.5620   88.5590 N.3   117  LEU117     -0.1245
     94  CA        16.9880   62.3860   88.0230 C.3   117  LEU117      0.1561
     95  C         17.1490   63.2230   86.7580 C.2   117  LEU117      0.2260
     96  O         16.1660   63.6130   86.1220 O.2   117  LEU117     -0.2867
     97  CB        17.2500   60.9050   87.7050 C.3   117  LEU117      0.0270
     98  CG        17.1320   59.9440   88.8930 C.3   117  LEU117      0.0019
     99  CD1       17.3770   58.5140   88.4390 C.3   117  LEU117      0.0001
    100  CD2       18.1040   60.3420   90.0050 C.3   117  LEU117      0.0001
    101  N          6.4260   54.9240   96.0180 N.3   162  ASN162     -0.1240
    102  CA         7.5570   55.2740   96.8710 C.3   162  ASN162      0.1653
    103  C          7.4380   56.6670   97.4800 C.2   162  ASN162      0.2266
    104  O          8.4450   57.2820   97.8230 O.2   162  ASN162     -0.2867
    105  CB         8.8860   55.0880   96.1370 C.3   162  ASN162      0.1155
    106  CG         9.1090   53.6540   95.7450 C.2   162  ASN162      0.2627
    107  OD1        9.1310   52.7780   96.6150 O.2   162  ASN162     -0.2716
    108  ND2        9.2440   53.3910   94.4400 N.am  162  ASN162     -0.0877
    109  N          2.1760   52.8830   95.6270 N.3   185  GLN185     -0.1245
    110  CA         2.8210   51.5740   95.5820 C.3   185  GLN185      0.1566
    111  C          4.1650   51.6690   96.3050 C.2   185  GLN185      0.2260
    112  O          5.0430   52.4450   95.9010 O.2   185  GLN185     -0.2867
    113  CB         3.0180   51.1180   94.1340 C.3   185  GLN185      0.0367
    114  CG         3.6620   49.7520   94.0630 C.3   185  GLN185      0.0905
    115  CD         3.9310   49.2680   92.6650 C.2   185  GLN185      0.2608
    116  OE1        5.0560   48.8770   92.3490 O.2   185  GLN185     -0.2717
    117  NE2        2.8940   49.2580   91.8190 N.am  185  GLN185     -0.0878
    118  N          4.7600   46.1820   97.2240 N.3   211  TYR211     -0.1241
    119  CA         5.7720   45.4480   96.4800 C.3   211  TYR211      0.1605
    120  C          6.7980   44.8400   97.4310 C.2   211  TYR211      0.2264
    121  O          6.8920   45.2050   98.6070 O.2   211  TYR211     -0.2867
    122  CB         6.4370   46.2990   95.4010 C.3   211  TYR211      0.0534
    123  CG         7.4020   47.3770   95.8470 C.ar  211  TYR211     -0.0201
    124  CD1        8.6580   47.0730   96.3650 C.ar  211  TYR211     -0.0009
    125  CD2        7.0790   48.7060   95.6700 C.ar  211  TYR211     -0.0009
    126  CE1        9.5540   48.0780   96.7130 C.ar  211  TYR211      0.0417
    127  CE2        7.9620   49.7140   95.9980 C.ar  211  TYR211      0.0417
    128  CZ         9.2020   49.3960   96.5020 C.ar  211  TYR211      0.1957
    129  OH        10.0980   50.3760   96.8310 O.3   211  TYR211     -0.2866
    130  N         21.5020   45.1000   94.9150 N.3   222  TRP222     -0.1241
    131  CA        20.7870   46.1230   95.6680 C.3   222  TRP222      0.1605
    132  C         20.1040   45.6140   96.9340 C.2   222  TRP222      0.2264
    133  O         19.3140   46.3560   97.5310 O.2   222  TRP222     -0.2867
    134  CB        19.8030   46.9150   94.7880 C.3   222  TRP222      0.0550
    135  CG        18.9540   46.0910   93.8570 C.ar  222  TRP222      0.0003
    136  CD1       17.8000   45.4330   94.1690 C.ar  222  TRP222      0.0946
    137  CD2       19.1760   45.8670   92.4560 C.ar  222  TRP222      0.0152
    138  NE1       17.2950   44.8040   93.0540 N.ar  222  TRP222     -0.2442
    139  CE2       18.1200   45.0560   91.9890 C.ar  222  TRP222      0.0810
    140  CE3       20.1660   46.2690   91.5530 C.ar  222  TRP222      0.0012
    141  CZ2       18.0300   44.6350   90.6610 C.ar  222  TRP222      0.0191
    142  CZ3       20.0760   45.8490   90.2340 C.ar  222  TRP222      0.0001
    143  CH2       19.0140   45.0430   89.8010 C.ar  222  TRP222      0.0015
    144  N         15.4800   46.9530   99.5680 N.3   301  PHE301     -0.1241
    145  CA        16.2240   47.7230   98.5890 C.3   301  PHE301      0.1605
    146  C         17.1930   48.6440   99.3050 C.2   301  PHE301      0.2264
    147  O         16.7820   49.4680  100.1300 O.2   301  PHE301     -0.2867
    148  CB        15.2820   48.5360   97.7190 C.3   301  PHE301      0.0534
    149  CG        15.9890   49.2930   96.6480 C.ar  301  PHE301     -0.0203
    150  CD1       16.6890   48.6220   95.6550 C.ar  301  PHE301     -0.0042
    151  CD2       15.9740   50.6780   96.6340 C.ar  301  PHE301     -0.0042
    152  CE1       17.3550   49.3250   94.6600 C.ar  301  PHE301     -0.0003
    153  CE2       16.6350   51.3820   95.6440 C.ar  301  PHE301     -0.0003
    154  CZ        17.3260   50.7050   94.6560 C.ar  301  PHE301     -0.0000
    155  N         18.7780   51.6040   99.2950 N.3   303  SER303     -0.1217
    156  CA        18.6760   52.9330   98.7120 C.3   303  SER303      0.1889
    157  C         19.5830   53.9400   99.4130 C.2   303  SER303      0.2288
    158  O         19.3290   55.1480   99.3390 O.2   303  SER303     -0.2866
    159  CB        17.2240   53.4090   98.7540 C.3   303  SER303      0.2089
    160  OG        16.7230   53.3540  100.0810 O.3   303  SER303     -0.2183
    161  N         20.9800   57.0030   97.6670 N.3   306  PHE306     -0.1241
    162  CA        20.0070   58.0480   97.4000 C.3   306  PHE306      0.1605
    163  C         19.5590   58.7610   98.6660 C.2   306  PHE306      0.2264
    164  O         18.6730   59.6200   98.5980 O.2   306  PHE306     -0.2867
    165  CB        18.7890   57.4450   96.6950 C.3   306  PHE306      0.0534
    166  CG        19.0440   57.0740   95.2650 C.ar  306  PHE306     -0.0203
    167  CD1       19.4830   55.8040   94.9320 C.ar  306  PHE306     -0.0042
    168  CD2       18.8580   58.0020   94.2500 C.ar  306  PHE306     -0.0042
    169  CE1       19.7270   55.4630   93.6150 C.ar  306  PHE306     -0.0003
    170  CE2       19.0970   57.6650   92.9320 C.ar  306  PHE306     -0.0003
    171  CZ        19.5320   56.3920   92.6150 C.ar  306  PHE306     -0.0000
    172  N         12.4730   59.1050  100.3170 N.3   313  PRO313     -0.2102
    173  CA        11.2160   58.9350  101.0580 C.3   313  PRO313      0.1504
    174  C         11.3800   58.4250  102.4700 C.2   313  PRO313      0.2575
    175  O         10.4240   58.5240  103.2520 O.2   313  PRO313     -0.2718
    176  CB        10.4390   57.9200  100.2130 C.3   313  PRO313      0.0282
    177  CG        11.4890   57.1300   99.5220 C.3   313  PRO313      0.0208
    178  CD        12.6260   58.1030   99.2480 C.3   313  PRO313      0.0893
    179  N         12.5440   57.8880  102.8310 N.am  314  TYR314     -0.1977
    180  CA        12.6820   57.1480  104.0750 C.3   314  TYR314      0.1639
    181  C         13.2960   57.9590  105.2140 C.2   314  TYR314      0.2290
    182  O         13.6150   57.3810  106.2500 O.2   314  TYR314     -0.2864
    183  CB        13.4630   55.8490  103.8430 C.3   314  TYR314      0.0560
    184  CG        12.7680   54.8200  102.9670 C.ar  314  TYR314     -0.0198
    185  CD1       11.3990   54.5810  103.0700 C.ar  314  TYR314     -0.0009
    186  CD2       13.4900   54.0760  102.0450 C.ar  314  TYR314     -0.0009
    187  CE1       10.7720   53.6250  102.2710 C.ar  314  TYR314      0.0417
    188  CE2       12.8760   53.1220  101.2470 C.ar  314  TYR314      0.0417
    189  CZ        11.5140   52.9000  101.3600 C.ar  314  TYR314      0.1957
    190  OH        10.8970   51.9400  100.5730 O.3   314  TYR314     -0.2866
@<TRIPOS>BOND
     1    24    23    2
     2    23    22    1
     3    13    14    1
     4    21    22    1
     5    21    15   am
     6    22    25    1
     7    16    15    2
     8    15    14    1
     9    36    35    2
    10    14    17    1
    11    25    26    1
    12    46    47    1
    13    46    43    1
    14    42    43    1
    15    33    34    1
    16    48    47   ar
    17    48    50   ar
    18    35    34    1
    19    45    44    2
    20    47    49   ar
    21    43    44    1
    22    26    28   ar
    23    26    27   ar
    24    17    18    1
    25    34    37    1
    26    44    56   am
    27    50    51   ar
    28    28    30   ar
    29    19    18    1
    30    96    95    2
    31    27    29   ar
    32    18    20    1
    33    58    59    2
    34    58    57    1
    35    49    51   ar
    36    49    52   ar
    37    56    57    1
    38    95    94    1
    39     9     7   ar
    40     9    11   ar
    41    37    38    1
    42    51    53   ar
    43     7     6   ar
    44     2     1    1
    45     2     3    1
    46     2     5    1
    47    30    31   ar
    48     3     4    2
    49    57    60    1
    50    12    11    1
    51    52    54   ar
    52    38    39    1
    53    29    31   ar
    54    11    10   ar
    55    97    94    1
    56    97    98    1
    57    31    32    1
    58     6     5    1
    59     6     8   ar
    60    68    70   ar
    61    68    67   ar
    62    53    55   ar
    63    94    93    1
    64    70    71   ar
    65    99    98    1
    66    60    61    1
    67    10     8   ar
    68    41    40    1
    69    54    55   ar
    70    39    40    1
    71    66    67    1
    72    66    63    1
    73    98   100    1
    74    67    69   ar
    75    62    63    1
    76    71    69   ar
    77   143   142   ar
    78   143   141   ar
    79    63    64    1
    80   142   140   ar
    81   141   139   ar
    82    64    72   am
    83    64    65    2
    84    88    87    2
    85    72    73    1
    86   140   137   ar
    87    75    74    2
    88   117   115   am
    89    87    86    1
    90   139   137   ar
    91   139   138   ar
    92   116   115    2
    93    76    73    1
    94    76    77    1
    95   137   135   ar
    96    73    74    1
    97   171   170   ar
    98   171   169   ar
    99    74    78   am
   100   115   114    1
   101   170   168   ar
   102   138   136   ar
   103    86    85    1
   104    86    89    1
   105    85    80   am
   106   169   167   ar
   107    80    81    2
   108    80    79    1
   109    78    79    1
   110    78    84    1
   111   135   136   ar
   112   135   134    1
   113    79    82    1
   114    89    90    1
   115   114   113    1
   116   113   110    1
   117   168   166   ar
   118   108   106   am
   119   154   152   ar
   120   154   153   ar
   121   152   150   ar
   122   134   131    1
   123   130   131    1
   124   167   166   ar
   125    84    83    1
   126   166   165    1
   127   122   123    1
   128   122   119    1
   129    82    83    1
   130    90    91    1
   131   110   109    1
   132   110   111    1
   133   153   151   ar
   134   150   149   ar
   135   131   132    1
   136   125   123   ar
   137   125   127   ar
   138    92    91    1
   139   106   105    1
   140   106   107    2
   141   123   124   ar
   142   112   111    2
   143   127   128   ar
   144   101   102    1
   145   105   102    1
   146   124   126   ar
   147   119   118    1
   148   119   120    1
   149   128   126   ar
   150   128   129    1
   151   151   149   ar
   152   149   148    1
   153   165   162    1
   154   102   103    1
   155   132   133    2
   156   162   161    1
   157   162   163    1
   158   120   121    2
   159   103   104    2
   160   148   145    1
   161   145   146    1
   162   145   144    1
   163   164   163    2
   164   156   159    1
   165   156   155    1
   166   156   157    1
   167   159   160    1
   168   178   177    1
   169   178   172    1
   170   146   147    2
   171   158   157    2
   172   177   176    1
   173   176   173    1
   174   172   173    1
   175   190   189    1
   176   173   174    1
   177   188   189   ar
   178   188   186   ar
   179   189   187   ar
   180   186   184   ar
   181   187   185   ar
   182   174   179   am
   183   174   175    2
   184   179   180    1
   185   184   185   ar
   186   184   183    1
   187   183   180    1
   188   180   181    1
   189   181   182    2
