@<TRIPOS>MOLECULE
tmp/6f7bA00.pdb
 220 210 0 0 0
SMALL
GASTEIGER

@<TRIPOS>ATOM
      1  N          8.2390  -36.2610  -14.6230 N.3    61  LEU61      -0.1231
      2  CA         8.3510  -34.8140  -14.5160 C.3    61  LEU61       0.1693
      3  C          8.6520  -34.1740  -15.8640 C.2    61  LEU61       0.2592
      4  O          8.3380  -33.0120  -16.0740 O.2    61  LEU61      -0.2718
      5  CB         9.4410  -34.4360  -13.4760 C.3    61  LEU61       0.0284
      6  CG         9.1890  -34.7940  -12.0100 C.3    61  LEU61       0.0019
      7  CD1       10.3870  -34.4370  -11.1410 C.3    61  LEU61       0.0001
      8  CD2        7.9230  -34.1300  -11.4520 C.3    61  LEU61       0.0001
      9  N          9.3130  -34.8950  -16.7630 N.am   62  GLY62      -0.1957
     10  CA         9.5880  -34.3730  -18.0950 C.3    62  GLY62       0.1869
     11  C         10.2550  -35.4350  -18.9630 C.2    62  GLY62       0.2309
     12  O         10.7990  -36.4020  -18.4490 O.2    62  GLY62      -0.2863
     13  N         12.7780  -37.6660  -17.0250 N.3    69  VAL69      -0.1245
     14  CA        12.9890  -37.2030  -15.6510 C.3    69  VAL69       0.1561
     15  C         11.8160  -37.5950  -14.7620 C.2    69  VAL69       0.2260
     16  O         10.6720  -37.2850  -15.0950 O.2    69  VAL69      -0.2867
     17  CB        13.1870  -35.6800  -15.5990 C.3    69  VAL69       0.0252
     18  CG1       13.4410  -35.2270  -14.1710 C.3    69  VAL69       0.0019
     19  CG2       14.3480  -35.2630  -16.5120 C.3    69  VAL69       0.0019
     20  N         14.8260  -36.9820   -7.4390 N.3    81  VAL81      -0.1245
     21  CA        14.6260  -37.0020   -8.8760 C.3    81  VAL81       0.1561
     22  C         15.6640  -37.8610   -9.5460 C.2    81  VAL81       0.2260
     23  O         16.8300  -37.8560   -9.1760 O.2    81  VAL81      -0.2867
     24  CB        14.6360  -35.5740   -9.4650 C.3    81  VAL81       0.0252
     25  CG1       14.6850  -35.5600  -10.9920 C.3    81  VAL81       0.0019
     26  CG2       13.3850  -34.8540   -8.9860 C.3    81  VAL81       0.0019
     27  N         17.1470  -38.7610  -13.4490 N.3    83  LYS83      -0.1245
     28  CA        17.1900  -38.4160  -14.8640 C.3    83  LYS83       0.1561
     29  C         17.7950  -39.6010  -15.5850 C.2    83  LYS83       0.2260
     30  O         18.9560  -39.9250  -15.3620 O.2    83  LYS83      -0.2867
     31  CB        18.0120  -37.1590  -15.1020 C.3    83  LYS83       0.0271
     32  CG        18.0660  -36.7720  -16.5730 C.3    83  LYS83       0.0035
     33  CD        18.4640  -35.3330  -16.7220 C.3    83  LYS83       0.0206
     34  CE        18.3490  -34.8630  -18.1610 C.3    83  LYS83       0.1093
     35  NZ        18.4910  -33.4080  -18.2890 N.3    83  LYS83      -0.1314
     36  N         26.3590  -34.5540  -18.9250 N.3    92  GLU92      -0.1231
     37  CA        25.6680  -33.7400  -17.9160 C.3    92  GLU92       0.1699
     38  C         26.3410  -33.8230  -16.5490 C.2    92  GLU92       0.2592
     39  O         26.5220  -32.8090  -15.8790 O.2    92  GLU92      -0.2718
     40  CB        24.1960  -34.1220  -17.7760 C.3    92  GLU92       0.0402
     41  CG        23.3590  -33.5630  -18.8970 C.3    92  GLU92       0.1161
     42  CD        21.8830  -33.6830  -18.6580 C.2    92  GLU92       0.3649
     43  OE1       21.3490  -34.7360  -19.0570 O.co2  92  GLU92      -0.2457
     44  OE2       21.2560  -32.7190  -18.1370 O.co2  92  GLU92      -0.2457
     45  N         26.7090  -35.0390  -16.1570 N.am   93  PHE93      -0.1976
     46  CA        27.3080  -35.2790  -14.8650 C.3    93  PHE93       0.1639
     47  C         28.6770  -34.6080  -14.8340 C.2    93  PHE93       0.2290
     48  O         29.0450  -33.9960  -13.8220 O.2    93  PHE93      -0.2864
     49  CB        27.4000  -36.7950  -14.5550 C.3    93  PHE93       0.0560
     50  CG        27.6220  -37.1000  -13.0880 C.ar   93  PHE93      -0.0200
     51  CD1       26.6190  -36.8300  -12.1490 C.ar   93  PHE93      -0.0042
     52  CD2       28.8080  -37.6780  -12.6460 C.ar   93  PHE93      -0.0042
     53  CE1       26.7990  -37.1160  -10.8040 C.ar   93  PHE93      -0.0003
     54  CE2       29.0000  -37.9700  -11.2950 C.ar   93  PHE93      -0.0003
     55  CZ        28.0010  -37.6860  -10.3760 C.ar   93  PHE93      -0.0000
     56  N         28.0040  -30.7330  -14.4680 N.3    96  GLY96      -0.1225
     57  CA        27.4980  -30.4890  -13.1320 C.3    96  GLY96       0.1811
     58  C         28.5760  -30.6080  -12.0670 C.2    96  GLY96       0.2280
     59  O         28.6240  -29.8000  -11.1330 O.2    96  GLY96      -0.2866
     60  N         30.9610  -27.5110  -12.5680 N.3    99  LEU99      -0.1231
     61  CA        30.2570  -26.3520  -12.0370 C.3    99  LEU99       0.1693
     62  C         30.4030  -26.2720  -10.5050 C.2    99  LEU99       0.2591
     63  O         30.8250  -25.2340   -9.9730 O.2    99  LEU99      -0.2718
     64  CB        28.7840  -26.4160  -12.4560 C.3    99  LEU99       0.0284
     65  CG        27.9110  -25.1810  -12.3990 C.3    99  LEU99       0.0019
     66  CD1       28.5760  -23.9730  -13.0160 C.3    99  LEU99       0.0001
     67  CD2       26.6100  -25.5320  -13.1130 C.3    99  LEU99       0.0001
     68  N         30.1050  -27.3690   -9.8080 N.am  100  MET100     -0.1979
     69  CA        30.1590  -27.3720   -8.3450 C.3   100  MET100      0.1605
     70  C         31.5550  -27.2110   -7.7770 C.2   100  MET100      0.2287
     71  O         31.6920  -26.6660   -6.6980 O.2   100  MET100     -0.2864
     72  CB        29.5310  -28.6300   -7.7500 C.3   100  MET100      0.0413
     73  CG        28.0080  -28.6030   -7.7660 C.3   100  MET100      0.0598
     74  SD        27.2490  -27.2180   -6.8730 S.3   100  MET100     -0.1393
     75  CE        27.5850  -27.7080   -5.1870 C.3   100  MET100      0.0692
     76  N         21.8500  -23.6440   -6.9700 N.3   111  PHE111     -0.1227
     77  CA        21.8920  -24.7740   -7.8750 C.3   111  PHE111      0.1736
     78  C         21.3370  -26.0330   -7.1980 C.2   111  PHE111      0.2595
     79  O         21.4580  -26.2170   -5.9590 O.2   111  PHE111     -0.2718
     80  CB        23.3170  -24.9780   -8.3360 C.3   111  PHE111      0.0547
     81  CG        23.8470  -23.8050   -9.0830 C.ar  111  PHE111     -0.0202
     82  CD1       24.4140  -22.7180   -8.3950 C.ar  111  PHE111     -0.0042
     83  CD2       23.7220  -23.7400  -10.4670 C.ar  111  PHE111     -0.0042
     84  CE1       24.8630  -21.5990   -9.0860 C.ar  111  PHE111     -0.0003
     85  CE2       24.1830  -22.6350  -11.1660 C.ar  111  PHE111     -0.0003
     86  CZ        24.7390  -21.5460  -10.4750 C.ar  111  PHE111     -0.0000
     87  N         20.7000  -26.8710   -8.0150 N.am  112  MET112     -0.1979
     88  CA        20.1610  -28.1470   -7.5780 C.3   112  MET112      0.1605
     89  C         21.3210  -29.0250   -7.1720 C.2   112  MET112      0.2287
     90  O         22.3110  -29.1350   -7.8920 O.2   112  MET112     -0.2864
     91  CB        19.3400  -28.8170   -8.7260 C.3   112  MET112      0.0413
     92  CG        18.8400  -30.2380   -8.4460 C.3   112  MET112      0.0598
     93  SD        18.4640  -31.3050   -9.8830 S.3   112  MET112     -0.1393
     94  CE        20.0750  -31.5630  -10.5720 C.3   112  MET112      0.0692
     95  N         23.1860  -32.6420   -6.6070 N.3   114  PHE114     -0.1241
     96  CA        23.1730  -33.9810   -7.2170 C.3   114  PHE114      0.1605
     97  C         23.9180  -34.9780   -6.3270 C.2   114  PHE114      0.2264
     98  O         24.7380  -34.5850   -5.4960 O.2   114  PHE114     -0.2867
     99  CB        23.6910  -33.9810   -8.6520 C.3   114  PHE114      0.0534
    100  CG        25.0700  -33.4550   -8.8010 C.ar  114  PHE114     -0.0203
    101  CD1       25.2960  -32.0820   -8.8880 C.ar  114  PHE114     -0.0042
    102  CD2       26.1570  -34.3190   -8.8680 C.ar  114  PHE114     -0.0042
    103  CE1       26.5800  -31.5830   -9.0160 C.ar  114  PHE114     -0.0003
    104  CE2       27.4500  -33.8220   -8.9950 C.ar  114  PHE114     -0.0003
    105  CZ        27.6610  -32.4470   -9.0710 C.ar  114  PHE114     -0.0000
    106  N         20.8890  -40.4380  -13.3170 N.3   126  LEU126     -0.1231
    107  CA        21.4400  -39.4540  -12.3840 C.3   126  LEU126      0.1693
    108  C         20.4230  -39.1930  -11.3050 C.2   126  LEU126      0.2592
    109  O         19.2350  -39.1080  -11.5900 O.2   126  LEU126     -0.2718
    110  CB        21.7630  -38.1520  -13.1050 C.3   126  LEU126      0.0284
    111  CG        22.6630  -38.2530  -14.3280 C.3   126  LEU126      0.0019
    112  CD1       22.8420  -36.8940  -14.9960 C.3   126  LEU126      0.0001
    113  CD2       24.0060  -38.8670  -13.9490 C.3   126  LEU126      0.0001
    114  N         20.8950  -39.0060  -10.0730 N.am  127  VAL127     -0.1966
    115  CA        20.0330  -38.7600   -8.9390 C.3   127  VAL127      0.1727
    116  C         20.2570  -37.3370   -8.4120 C.2   127  VAL127      0.2617
    117  O         21.3960  -36.9560   -8.1000 O.2   127  VAL127     -0.2715
    118  CB        20.3160  -39.7670   -7.8250 C.3   127  VAL127      0.0290
    119  CG1       19.2930  -39.6380   -6.7100 C.3   127  VAL127      0.0023
    120  CG2       20.3100  -41.1710   -8.3940 C.3   127  VAL127      0.0023
    121  N         19.1690  -36.5880   -8.3090 N.am  128  GLY128     -0.1940
    122  CA        19.2080  -35.1870   -7.9570 C.3   128  GLY128      0.2014
    123  C         18.1880  -34.8000   -6.9160 C.2   128  GLY128      0.2639
    124  O         17.2430  -35.5460   -6.6180 O.2   128  GLY128     -0.2714
    125  N         18.3480  -33.5800   -6.4320 N.am  129  GLU129     -0.1963
    126  CA        17.4510  -32.9830   -5.4780 C.3   129  GLU129      0.1733
    127  C         16.1730  -32.5120   -6.1140 C.2   129  GLU129      0.2616
    128  O         16.2070  -31.7600   -7.0830 O.2   129  GLU129     -0.2715
    129  CB        18.1540  -31.7800   -4.8260 C.3   129  GLU129      0.0429
    130  CG        17.3450  -30.9890   -3.8220 C.3   129  GLU129      0.1163
    131  CD        18.1010  -29.7610   -3.3210 C.2   129  GLU129      0.3649
    132  OE1       17.7510  -29.2820   -2.2430 O.co2 129  GLU129     -0.2457
    133  OE2       19.0280  -29.2750   -3.9960 O.co2 129  GLU129     -0.2457
    134  N         15.0430  -32.8730   -5.5000 N.am  130  LEU130     -0.1963
    135  CA        13.7370  -32.5030   -5.9800 C.3   130  LEU130      0.1728
    136  C         13.3600  -31.0760   -5.6440 C.2   130  LEU130      0.2616
    137  O         13.3820  -30.6700   -4.4900 O.2   130  LEU130     -0.2715
    138  CB        12.6660  -33.4300   -5.3980 C.3   130  LEU130      0.0311
    139  CG        11.1940  -33.1240   -5.7120 C.3   130  LEU130      0.0022
    140  CD1       10.9110  -33.2400   -7.2040 C.3   130  LEU130      0.0001
    141  CD2       10.2620  -34.0490   -4.9180 C.3   130  LEU130      0.0001
    142  N         12.9410  -30.3510   -6.6660 N.am  131  TYR131     -0.1974
    143  CA        12.3410  -29.0510   -6.5400 C.3   131  TYR131      0.1639
    144  C         10.8820  -29.3640   -6.8240 C.2   131  TYR131      0.2290
    145  O         10.5190  -29.6670   -7.9720 O.2   131  TYR131     -0.2864
    146  CB        12.9530  -28.0770   -7.5570 C.3   131  TYR131      0.0560
    147  CG        14.2740  -27.4680   -7.0680 C.ar  131  TYR131     -0.0198
    148  CD1       15.3310  -28.2720   -6.6810 C.ar  131  TYR131     -0.0009
    149  CD2       14.4430  -26.0890   -6.9820 C.ar  131  TYR131     -0.0009
    150  CE1       16.5210  -27.7220   -6.2000 C.ar  131  TYR131      0.0417
    151  CE2       15.6280  -25.5330   -6.5100 C.ar  131  TYR131      0.0417
    152  CZ        16.6480  -26.3550   -6.1140 C.ar  131  TYR131      0.1957
    153  OH        17.8290  -25.8330   -5.6790 O.3   131  TYR131     -0.2866
    154  N          7.5420  -27.5070   -9.5510 N.3   134  GLY134     -0.1210
    155  CA         7.4270  -27.5800  -11.0040 C.3   134  GLY134      0.1956
    156  C          8.3360  -26.5800  -11.6820 C.2   134  GLY134      0.2612
    157  O          9.2050  -25.9860  -11.0390 O.2   134  GLY134     -0.2717
    158  N          8.1070  -26.3680  -12.9690 N.am  135  THR135     -0.1952
    159  CA         8.9630  -25.5000  -13.7540 C.3   135  THR135      0.1897
    160  C          8.4330  -24.0930  -13.7900 C.2   135  THR135      0.2313
    161  O          7.2650  -23.8420  -13.5160 O.2   135  THR135     -0.2863
    162  CB         9.0620  -25.9730  -15.2080 C.3   135  THR135      0.1794
    163  OG1        7.7800  -25.8070  -15.8480 O.3   135  THR135     -0.2208
    164  CG2        9.4930  -27.4360  -15.2520 C.3   135  THR135      0.0378
    165  N         11.2290  -23.7040  -19.2420 N.3   183  ASP183     -0.1225
    166  CA        11.0150  -25.0750  -18.8210 C.3   183  ASP183      0.1805
    167  C         12.2670  -25.7720  -18.2700 C.2   183  ASP183      0.2597
    168  O         12.1870  -26.9550  -17.9090 O.2   183  ASP183     -0.2718
    169  CB        10.4230  -25.8650  -19.9640 C.3   183  ASP183      0.1424
    170  CG        11.2780  -25.8380  -21.1470 C.2   183  ASP183      0.3668
    171  OD1       12.2660  -26.5830  -21.1440 O.co2 183  ASP183     -0.2456
    172  OD2       10.9700  -25.0480  -22.0610 O.co2 183  ASP183     -0.2456
    173  N         13.3970  -25.0440  -18.2280 N.am  184  ASN184     -0.1974
    174  CA        14.6400  -25.4780  -17.6030 C.3   184  ASN184      0.1688
    175  C         14.9180  -24.7700  -16.2770 C.2   184  ASN184      0.2292
    176  O         15.9270  -25.0650  -15.6220 O.2   184  ASN184     -0.2864
    177  CB        15.8180  -25.3680  -18.6130 C.3   184  ASN184      0.1181
    178  CG        15.8530  -26.5500  -19.5900 C.2   184  ASN184      0.2629
    179  OD1       15.3040  -27.5900  -19.2930 O.2   184  ASN184     -0.2716
    180  ND2       16.5360  -26.4050  -20.7140 N.am  184  ASN184     -0.0877
    181  N         13.3740  -24.4650  -12.4190 N.3   186  ILE186     -0.1245
    182  CA        12.5510  -25.2180  -11.5020 C.3   186  ILE186      0.1561
    183  C         12.4060  -24.4480  -10.1790 C.2   186  ILE186      0.2260
    184  O         13.2610  -23.6260   -9.8120 O.2   186  ILE186     -0.2867
    185  CB        13.0860  -26.6590  -11.2850 C.3   186  ILE186      0.0252
    186  CG1       14.5030  -26.6450  -10.7050 C.3   186  ILE186      0.0019
    187  CG2       13.0340  -27.4190  -12.6080 C.3   186  ILE186      0.0019
    188  CD1       15.0830  -27.9940  -10.3900 C.3   186  ILE186      0.0001
    189  N         18.3730  -23.7520  -12.1590 N.3   206  LEU206     -0.1231
    190  CA        18.4510  -23.9440  -13.5770 C.3   206  LEU206      0.1693
    191  C         19.0320  -25.3200  -13.7820 C.2   206  LEU206      0.2592
    192  O         20.1200  -25.5960  -13.3050 O.2   206  LEU206     -0.2718
    193  CB        19.3540  -22.8630  -14.1770 C.3   206  LEU206      0.0284
    194  CG        19.6890  -22.9570  -15.6730 C.3   206  LEU206      0.0019
    195  CD1       18.4520  -22.8770  -16.5530 C.3   206  LEU206      0.0001
    196  CD2       20.7060  -21.8770  -16.0040 C.3   206  LEU206      0.0001
    197  N         18.3310  -26.1740  -14.5290 N.am  207  ILE207     -0.1966
    198  CA        18.7690  -27.5520  -14.7300 C.3   207  ILE207      0.1727
    199  C         18.8450  -27.8760  -16.2360 C.2   207  ILE207      0.2616
    200  O         18.7110  -26.9740  -17.0760 O.2   207  ILE207     -0.2715
    201  CB        17.9350  -28.5520  -13.8770 C.3   207  ILE207      0.0290
    202  CG1       16.4320  -28.3380  -14.0260 C.3   207  ILE207      0.0022
    203  CG2       18.3350  -28.4340  -12.4130 C.3   207  ILE207      0.0023
    204  CD1       15.9170  -28.4840  -15.4350 C.3   207  ILE207      0.0001
    205  N         19.1200  -29.1360  -16.5390 N.am  208  ASP208     -0.1957
    206  CA        19.2930  -29.6560  -17.8910 C.3   208  ASP208      0.1840
    207  C         20.5510  -29.1660  -18.5660 C.2   208  ASP208      0.2621
    208  O         20.5830  -28.0820  -19.1360 O.2   208  ASP208     -0.2715
    209  CB        18.0450  -29.4310  -18.7690 C.3   208  ASP208      0.1450
    210  CG        18.0480  -30.3220  -20.0120 C.2   208  ASP208      0.3671
    211  OD1       19.1510  -30.6440  -20.5130 O.co2 208  ASP208     -0.2456
    212  OD2       16.9350  -30.7470  -20.4560 O.co2 208  ASP208     -0.2456
    213  N         21.5980  -29.9720  -18.4800 N.am  209  LEU209     -0.1977
    214  CA        22.9110  -29.6070  -18.9650 C.3   209  LEU209      0.1596
    215  C         23.2430  -30.2680  -20.3000 C.2   209  LEU209      0.2287
    216  O         24.4150  -30.3180  -20.7000 O.2   209  LEU209     -0.2864
    217  CB        23.9760  -29.9190  -17.8950 C.3   209  LEU209      0.0297
    218  CG        23.7490  -29.2420  -16.5190 C.3   209  LEU209      0.0022
    219  CD1       24.8980  -29.5750  -15.5550 C.3   209  LEU209      0.0001
    220  CD2       23.5790  -27.7460  -16.6520 C.3   209  LEU209      0.0001
@<TRIPOS>BOND
     1   172   170   ar
     2   170   171   ar
     3   170   169    1
     4   180   178   am
     5   216   215    2
     6   211   210   ar
     7   212   210   ar
     8   215   214    1
     9   210   209    1
    10   169   166    1
    11   178   179    2
    12   178   177    1
    13   165   166    1
    14   208   207    2
    15    43    42   ar
    16   214   213    1
    17   214   217    1
    18    11    12    2
    19    11    10    1
    20    36    37    1
    21    41    42    1
    22    41    40    1
    23   166   167    1
    24   209   206    1
    25    42    44   ar
    26   177   174    1
    27   207   213   am
    28   207   206    1
    29    35    34    1
    30   167   173   am
    31   167   168    2
    32   173   174    1
    33    34    33    1
    34    10     9    1
    35    37    40    1
    36    37    38    1
    37   217   218    1
    38   206   205    1
    39   174   175    1
    40   200   199    2
    41    13    14    1
    42     9     3   am
    43    33    32    1
    44   220   218    1
    45    32    31    1
    46   195   194    1
    47    38    45   am
    48    38    39    2
    49   205   199   am
    50   218   219    1
    51    19    17    1
    52   175   176    2
    53   199   198    1
    54    45    46    1
    55     4     3    2
    56   196   194    1
    57     3     2    1
    58   163   162    1
    59   194   193    1
    60    14    17    1
    61    14    15    1
    62    17    18    1
    63    29    30    2
    64    29    28    1
    65   204   202    1
    66   164   162    1
    67   162   159    1
    68    31    28    1
    69    16    15    2
    70   112   111    1
    71    46    47    1
    72    46    49    1
    73    28    27    1
    74    47    48    2
    75   198   197    1
    76   198   201    1
    77     1     2    1
    78    49    50    1
    79   197   191   am
    80     2     5    1
    81    56    57    1
    82   111   113    1
    83   111   110    1
    84   193   190    1
    85   202   201    1
    86   201   203    1
    87   160   159    1
    88   160   161    2
    89   191   190    1
    90   191   192    2
    91   159   158    1
    92   190   189    1
    93     5     6    1
    94   106   107    1
    95    57    58    1
    96    67    65    1
    97   110   107    1
    98    50    52   ar
    99    50    51   ar
   100    66    65    1
   101   158   156   am
   102    52    54   ar
   103   187   185    1
   104    60    61    1
   105    64    65    1
   106    64    61    1
   107   181   182    1
   108   107   108    1
   109    51    53   ar
   110    58    59    2
   111    61    62    1
   112     6     8    1
   113     6     7    1
   114   156   157    2
   115   156   155    1
   116   109   108    2
   117   182   185    1
   118   182   183    1
   119   108   114   am
   120    54    55   ar
   121   185   186    1
   122    85    86   ar
   123    85    83   ar
   124   155   154    1
   125    25    24    1
   126    53    55   ar
   127   186   188    1
   128    94    93    1
   129    62    63    2
   130    62    68   am
   131    86    84   ar
   132    83    81   ar
   133   183   184    2
   134   114   115    1
   135    93    92    1
   136    68    69    1
   137    22    23    2
   138    22    21    1
   139    24    26    1
   140    24    21    1
   141    84    82   ar
   142    81    82   ar
   143    81    80    1
   144   105   103   ar
   145   105   104   ar
   146   103   101   ar
   147   104   102   ar
   148   115   116    1
   149   115   118    1
   150   101   100   ar
   151    21    20    1
   152   102   100   ar
   153   100    99    1
   154    91    92    1
   155    91    88    1
   156    99    96    1
   157   116   121   am
   158   116   117    2
   159   120   118    1
   160    69    70    1
   161    69    72    1
   162    80    77    1
   163   121   122    1
   164    87    88    1
   165    87    78   am
   166   145   144    2
   167   122   123    1
   168    90    89    2
   169    77    78    1
   170    77    76    1
   171   118   119    1
   172    70    71    2
   173    73    72    1
   174    73    74    1
   175    88    89    1
   176   146   147    1
   177   146   143    1
   178    96    95    1
   179    96    97    1
   180   140   139    1
   181    78    79    2
   182   128   127    2
   183   147   149   ar
   184   147   148   ar
   185   149   151   ar
   186   123   124    2
   187   123   125   am
   188    74    75    1
   189   144   143    1
   190   148   150   ar
   191   142   143    1
   192   142   136   am
   193   151   152   ar
   194   125   126    1
   195    97    98    2
   196   150   152   ar
   197   152   153    1
   198   127   134   am
   199   127   126    1
   200   135   136    1
   201   135   134    1
   202   135   138    1
   203   139   138    1
   204   139   141    1
   205   136   137    2
   206   126   129    1
   207   129   130    1
   208   133   131   ar
   209   130   131    1
   210   131   132   ar
