@<TRIPOS>MOLECULE
tmp/6f7cB01.pdb
 180 171 0 0 0
SMALL
GASTEIGER

@<TRIPOS>ATOM
      1  N         17.8490   55.7800   32.8030 N.3   199  TYR199     -0.1241
      2  CA        16.4110   55.6010   32.9310 C.3   199  TYR199      0.1605
      3  C         16.0330   54.3190   32.1940 C.2   199  TYR199      0.2264
      4  O         16.2860   54.1910   30.9890 O.2   199  TYR199     -0.2867
      5  CB        15.6540   56.8090   32.3760 C.3   199  TYR199      0.0534
      6  CG        15.9680   58.0990   33.0840 C.ar  199  TYR199     -0.0201
      7  CD1       15.3950   58.3970   34.3080 C.ar  199  TYR199     -0.0009
      8  CD2       16.8380   59.0250   32.5300 C.ar  199  TYR199     -0.0009
      9  CE1       15.6850   59.5730   34.9660 C.ar  199  TYR199      0.0417
     10  CE2       17.1380   60.2120   33.1840 C.ar  199  TYR199      0.0417
     11  CZ        16.5620   60.4780   34.4040 C.ar  199  TYR199      0.1957
     12  OH        16.8370   61.6620   35.0830 O.3   199  TYR199     -0.2866
     13  N         11.2310   64.1310   33.2120 N.3   235  VAL235     -0.1245
     14  CA        12.4510   63.9420   33.9920 C.3   235  VAL235      0.1561
     15  C         13.4900   65.0180   33.7030 C.2   235  VAL235      0.2260
     16  O         14.4460   65.1620   34.4700 O.2   235  VAL235     -0.2867
     17  CB        13.0770   62.5420   33.7800 C.3   235  VAL235      0.0252
     18  CG1       12.0280   61.4370   33.9390 C.3   235  VAL235      0.0019
     19  CG2       13.7730   62.4260   32.4460 C.3   235  VAL235      0.0019
     20  N         13.5700   69.8370   35.4570 N.3   238  CYS238     -0.1221
     21  CA        14.4190   70.6290   36.3400 C.3   238  CYS238      0.1808
     22  C         15.6460   71.1560   35.6140 C.2   238  CYS238      0.2601
     23  O         16.1710   72.2180   35.9720 O.2   238  CYS238     -0.2717
     24  CB        14.8220   69.8030   37.5520 C.3   238  CYS238      0.0970
     25  SG        13.4510   69.5920   38.6590 S.3   238  CYS238     -0.0800
     26  N         16.1070   70.4370   34.5900 N.am  239  LEU239     -0.1979
     27  CA        17.2120   70.9280   33.7800 C.3   239  LEU239      0.1596
     28  C         16.7840   72.0960   32.9090 C.2   239  LEU239      0.2287
     29  O         17.5900   72.9890   32.6370 O.2   239  LEU239     -0.2864
     30  CB        17.7580   69.7910   32.9150 C.3   239  LEU239      0.0297
     31  CG        18.3190   68.6080   33.7050 C.3   239  LEU239      0.0022
     32  CD1       18.3830   67.3410   32.8520 C.3   239  LEU239      0.0001
     33  CD2       19.7010   68.9690   34.2440 C.3   239  LEU239      0.0001
     34  N         15.8800   74.6410   43.4390 N.3   245  LEU245     -0.1231
     35  CA        17.1620   73.9850   43.2150 C.3   245  LEU245      0.1693
     36  C         17.8170   74.5270   41.9540 C.2   245  LEU245      0.2592
     37  O         17.1420   74.9450   41.0080 O.2   245  LEU245     -0.2718
     38  CB        16.9970   72.4720   43.0680 C.3   245  LEU245      0.0284
     39  CG        16.7560   71.6160   44.3100 C.3   245  LEU245      0.0019
     40  CD1       16.6300   70.1480   43.9130 C.3   245  LEU245      0.0001
     41  CD2       17.8650   71.8020   45.3330 C.3   245  LEU245      0.0001
     42  N         19.1490   74.5200   41.9540 N.am  246  ASN246     -0.1960
     43  CA        19.9280   74.7640   40.7400 C.3   246  ASN246      0.1819
     44  C         20.2870   73.3940   40.1630 C.2   246  ASN246      0.2621
     45  O         21.4020   72.8900   40.3060 O.2   246  ASN246     -0.2715
     46  CB        21.1540   75.6180   41.0550 C.3   246  ASN246      0.1195
     47  CG        21.8370   76.1600   39.8030 C.2   246  ASN246      0.2630
     48  OD1       21.4150   75.8970   38.6710 O.2   246  ASN246     -0.2716
     49  ND2       22.8950   76.9310   40.0080 N.am  246  ASN246     -0.0877
     50  N         19.3060   72.7860   39.4970 N.am  247  ALA247     -0.1963
     51  CA        19.3750   71.3700   39.1550 C.3   247  ALA247      0.1728
     52  C         20.3600   71.0950   38.0190 C.2   247  ALA247      0.2616
     53  O         20.4780   71.8750   37.0740 O.2   247  ALA247     -0.2715
     54  CB        17.9910   70.8740   38.7630 C.3   247  ALA247      0.0334
     55  N         21.0590   69.9650   38.1080 N.am  248  ASP248     -0.1957
     56  CA        21.9600   69.5330   37.0430 C.3   248  ASP248      0.1840
     57  C         22.2160   68.0380   37.1800 C.2   248  ASP248      0.2621
     58  O         21.8580   67.4070   38.1800 O.2   248  ASP248     -0.2715
     59  CB        23.2750   70.3370   37.0440 C.3   248  ASP248      0.1450
     60  CG        24.1660   70.0340   38.2320 C.2   248  ASP248      0.3671
     61  OD1       24.3470   68.8690   38.5970 O.co2 248  ASP248     -0.2456
     62  OD2       24.7390   70.9820   38.7930 O.co2 248  ASP248     -0.2456
     63  N         22.8570   67.4780   36.1520 N.am  249  LEU249     -0.1977
     64  CA        23.0220   66.0320   36.0690 C.3   249  LEU249      0.1596
     65  C         23.9140   65.4870   37.1780 C.2   249  LEU249      0.2287
     66  O         23.7010   64.3610   37.6380 O.2   249  LEU249     -0.2864
     67  CB        23.6050   65.6430   34.7090 C.3   249  LEU249      0.0297
     68  CG        22.7580   65.8950   33.4680 C.3   249  LEU249      0.0022
     69  CD1       23.5730   65.5670   32.2140 C.3   249  LEU249      0.0001
     70  CD2       21.4720   65.0710   33.5170 C.3   249  LEU249      0.0001
     71  N         24.4670   66.7620   40.3560 N.3   251  LYS251     -0.1231
     72  CA        23.7610   66.7830   41.6320 C.3   251  LYS251      0.1693
     73  C         22.6930   65.6980   41.6890 C.2   251  LYS251      0.2591
     74  O         22.4840   65.0830   42.7400 O.2   251  LYS251     -0.2718
     75  CB        23.1550   68.1700   41.8790 C.3   251  LYS251      0.0285
     76  CG        24.1910   69.2230   42.3050 C.3   251  LYS251      0.0035
     77  CD        23.5390   70.5640   42.6710 C.3   251  LYS251      0.0206
     78  CE        24.1210   71.7170   41.8610 C.3   251  LYS251      0.1093
     79  NZ        23.4360   73.0480   42.1130 N.3   251  LYS251     -0.1314
     80  N         22.0200   65.4280   40.5650 N.am  252  LEU252     -0.1980
     81  CA        21.0530   64.3340   40.5330 C.3   252  LEU252      0.1596
     82  C         21.7370   63.0040   40.8350 C.2   252  LEU252      0.2287
     83  O         21.2340   62.1960   41.6230 O.2   252  LEU252     -0.2864
     84  CB        20.3450   64.2830   39.1700 C.3   252  LEU252      0.0297
     85  CG        19.2380   63.2290   39.0440 C.3   252  LEU252      0.0022
     86  CD1       18.0050   63.5980   39.8780 C.3   252  LEU252      0.0001
     87  CD2       18.8310   63.0020   37.5970 C.3   252  LEU252      0.0001
     88  N         22.8190   62.5920   44.5280 N.3   255  ASN255     -0.1225
     89  CA        21.7360   62.3640   45.4640 C.3   255  ASN255      0.1785
     90  C         20.9460   61.0870   45.1890 C.2   255  ASN255      0.2597
     91  O         20.2710   60.5940   46.1050 O.2   255  ASN255     -0.2718
     92  CB        20.8370   63.6000   45.4700 C.3   255  ASN255      0.1169
     93  CG        21.5160   64.7830   46.1570 C.2   255  ASN255      0.2627
     94  OD1       21.5700   64.8170   47.3720 O.2   255  ASN255     -0.2716
     95  ND2       22.0940   65.7130   45.3860 N.am  255  ASN255     -0.0877
     96  N         21.0510   60.5110   43.9810 N.am  256  MET256     -0.1979
     97  CA        20.2710   59.3300   43.6220 C.3   256  MET256      0.1605
     98  C         21.0470   58.0200   43.7210 C.2   256  MET256      0.2287
     99  O         20.4270   56.9740   43.9240 O.2   256  MET256     -0.2864
    100  CB        19.7340   59.4610   42.1930 C.3   256  MET256      0.0413
    101  CG        18.6680   60.5230   41.9920 C.3   256  MET256      0.0598
    102  SD        17.0860   60.0910   42.6980 S.3   256  MET256     -0.1393
    103  CE        16.5030   58.7170   41.7290 C.3   256  MET256      0.0692
    104  N         16.3120   55.8830   46.7390 N.3   308  THR308     -0.1203
    105  CA        16.1220   57.3200   46.5870 C.3   308  THR308      0.1994
    106  C         14.9780   57.5400   45.6100 C.2   308  THR308      0.2618
    107  O         14.6950   56.6910   44.7580 O.2   308  THR308     -0.2717
    108  CB        17.3680   58.0220   46.0420 C.3   308  THR308      0.1784
    109  OG1       17.7800   57.3540   44.8360 O.3   308  THR308     -0.2211
    110  CG2       18.5120   58.0210   47.0550 C.3   308  THR308      0.0376
    111  N         14.3320   58.6960   45.7290 N.am  309  VAL309     -0.1965
    112  CA        13.2490   59.0850   44.8320 C.3   309  VAL309      0.1727
    113  C         13.3600   60.5720   44.5430 C.2   309  VAL309      0.2616
    114  O         13.5370   61.3810   45.4640 O.2   309  VAL309     -0.2715
    115  CB        11.8550   58.7700   45.4170 C.3   309  VAL309      0.0290
    116  CG1       10.7430   59.2650   44.4790 C.3   309  VAL309      0.0023
    117  CG2       11.6970   57.2830   45.6830 C.3   309  VAL309      0.0023
    118  N         13.2240   60.9330   43.2700 N.am  310  ALA310     -0.1963
    119  CA        12.9740   62.3090   42.8660 C.3   310  ALA310      0.1728
    120  C         11.5900   62.4010   42.2320 C.2   310  ALA310      0.2616
    121  O         11.2000   61.5300   41.4540 O.2   310  ALA310     -0.2715
    122  CB        14.0380   62.8020   41.8870 C.3   310  ALA310      0.0334
    123  N         10.8520   63.4570   42.5800 N.am  311  ALA311     -0.1963
    124  CA         9.5130   63.7170   42.0680 C.3   311  ALA311      0.1728
    125  C          9.4490   65.1460   41.5540 C.2   311  ALA311      0.2616
    126  O          9.9620   66.0690   42.2000 O.2   311  ALA311     -0.2715
    127  CB         8.4450   63.5090   43.1570 C.3   311  ALA311      0.0334
    128  N          8.8330   65.3260   40.3890 N.am  312  ILE312     -0.1977
    129  CA         8.6440   66.6490   39.7960 C.3   312  ILE312      0.1596
    130  C          7.1560   66.8320   39.5220 C.2   312  ILE312      0.2287
    131  O          6.5480   66.0110   38.8260 O.2   312  ILE312     -0.2864
    132  CB         9.4650   66.8330   38.5060 C.3   312  ILE312      0.0276
    133  CG1       10.9320   66.4550   38.7450 C.3   312  ILE312      0.0022
    134  CG2        9.3900   68.2750   38.0430 C.3   312  ILE312      0.0022
    135  CD1       11.8170   66.5170   37.4960 C.3   312  ILE312      0.0001
    136  N         15.4350   60.6650   54.7940 N.3   343  ASN343     -0.1225
    137  CA        14.8850   61.7440   53.9820 C.3   343  ASN343      0.1785
    138  C         15.2960   61.5810   52.5140 C.2   343  ASN343      0.2597
    139  O         15.8320   62.4930   51.8870 O.2   343  ASN343     -0.2718
    140  CB        15.3240   63.0990   54.5630 C.3   343  ASN343      0.1169
    141  CG        15.0790   63.2070   56.0930 C.2   343  ASN343      0.2627
    142  OD1       16.0270   63.3000   56.8890 O.2   343  ASN343     -0.2716
    143  ND2       13.8050   63.2130   56.4980 N.am  343  ASN343     -0.0877
    144  N         15.0340   60.3960   51.9530 N.am  344  ASN344     -0.1960
    145  CA        15.5420   60.0400   50.6260 C.3   344  ASN344      0.1819
    146  C         14.5920   60.4100   49.4740 C.2   344  ASN344      0.2621
    147  O         14.7580   59.8920   48.3630 O.2   344  ASN344     -0.2715
    148  CB        15.8800   58.5440   50.5670 C.3   344  ASN344      0.1195
    149  CG        14.6660   57.6440   50.7780 C.2   344  ASN344      0.2630
    150  OD1       13.6130   58.0910   51.2100 O.2   344  ASN344     -0.2716
    151  ND2       14.8360   56.3610   50.5250 N.am  344  ASN344     -0.0877
    152  N         13.6360   61.3110   49.6960 N.am  345  VAL345     -0.1963
    153  CA        12.6960   61.7500   48.6650 C.3   345  VAL345      0.1727
    154  C         12.7960   63.2620   48.5220 C.2   345  VAL345      0.2616
    155  O         12.6030   63.9950   49.5000 O.2   345  VAL345     -0.2715
    156  CB        11.2510   61.3500   48.9960 C.3   345  VAL345      0.0290
    157  CG1       10.3070   61.8080   47.8800 C.3   345  VAL345      0.0023
    158  CG2       11.1470   59.8550   49.2170 C.3   345  VAL345      0.0023
    159  N         13.0540   63.7330   47.3050 N.am  346  LYS346     -0.1977
    160  CA        13.1010   65.1620   47.0250 C.3   346  LYS346      0.1596
    161  C         12.0440   65.5170   45.9930 C.2   346  LYS346      0.2287
    162  O         11.9010   64.8310   44.9750 O.2   346  LYS346     -0.2864
    163  CB        14.4770   65.6100   46.5160 C.3   346  LYS346      0.0298
    164  CG        14.5290   67.0960   46.1190 C.3   346  LYS346      0.0038
    165  CD        14.2020   68.0110   47.3130 C.3   346  LYS346      0.0206
    166  CE        14.3290   69.5080   46.9820 C.3   346  LYS346      0.1093
    167  NZ        13.8120   70.3790   48.0930 N.3   346  LYS346     -0.1314
    168  N         10.2900   68.5370   43.4970 N.3   348  ALA348     -0.1245
    169  CA        10.4560   69.7790   42.7620 C.3   348  ALA348      0.1562
    170  C          9.1250   70.1530   42.1230 C.2   348  ALA348      0.2260
    171  O          8.2990   69.2850   41.8210 O.2   348  ALA348     -0.2867
    172  CB        11.5530   69.6530   41.6890 C.3   348  ALA348      0.0290
    173  N         10.8670   59.5000   39.5720 N.3   364  ILE364     -0.1245
    174  CA        12.1560   58.8630   39.2930 C.3   364  ILE364      0.1561
    175  C         12.5810   58.1010   40.5450 C.2   364  ILE364      0.2260
    176  O         12.9990   58.7150   41.5340 O.2   364  ILE364     -0.2867
    177  CB        13.2360   59.8730   38.8940 C.3   364  ILE364      0.0252
    178  CG1       12.7650   60.7370   37.7320 C.3   364  ILE364      0.0019
    179  CG2       14.5360   59.1370   38.4930 C.3   364  ILE364      0.0019
    180  CD1       13.5820   62.0080   37.5790 C.3   364  ILE364      0.0001
@<TRIPOS>BOND
     1     4     3    2
     2     3     2    1
     3    69    68    1
     4     5     2    1
     5     5     6    1
     6    19    17    1
     7     8     6   ar
     8     8    10   ar
     9    29    28    2
    10     1     2    1
    11    32    31    1
    12    28    27    1
    13    30    31    1
    14    30    27    1
    15     6     7   ar
    16    10    11   ar
    17    13    14    1
    18    68    70    1
    19    68    67    1
    20    15    14    1
    21    15    16    2
    22    31    33    1
    23    27    26    1
    24    17    18    1
    25    17    14    1
    26     7     9   ar
    27    11     9   ar
    28    11    12    1
    29    26    22   am
    30    67    64    1
    31    20    21    1
    32    22    23    2
    33    22    21    1
    34    64    63    1
    35    64    65    1
    36    63    57   am
    37    21    24    1
    38    56    59    1
    39    56    57    1
    40    56    55    1
    41    59    60    1
    42    53    52    2
    43    65    66    2
    44    57    58    2
    45   135   133    1
    46    24    25    1
    47   180   178    1
    48    87    85    1
    49   178   177    1
    50    52    55   am
    51    52    51    1
    52   134   132    1
    53    60    61   ar
    54    60    62   ar
    55   179   177    1
    56   132   133    1
    57   132   129    1
    58    48    47    2
    59    54    51    1
    60   131   130    2
    61   177   174    1
    62    85    84    1
    63    85    86    1
    64    51    50    1
    65    84    81    1
    66   174   173    1
    67   174   175    1
    68    50    44   am
    69   130   129    1
    70   129   128    1
    71    47    49   am
    72    47    46    1
    73    44    45    2
    74    44    43    1
    75    71    72    1
    76   128   125   am
    77    81    80    1
    78    81    82    1
    79   175   176    2
    80    80    73   am
    81    43    46    1
    82    43    42    1
    83    82    83    2
    84    37    36    2
    85   121   120    2
    86   125   124    1
    87   125   126    2
    88    72    73    1
    89    72    75    1
    90   172   169    1
    91    73    74    2
    92   103   102    1
    93   171   170    2
    94    78    79    1
    95    78    77    1
    96    75    76    1
    97   122   119    1
    98    36    42   am
    99    36    35    1
   100   101   100    1
   101   101   102    1
   102   124   123    1
   103   124   127    1
   104   170   169    1
   105   100    97    1
   106   120   123   am
   107   120   119    1
   108    76    77    1
   109   169   168    1
   110   119   118    1
   111    38    35    1
   112    38    39    1
   113    35    34    1
   114   118   113   am
   115    97    98    1
   116    97    96    1
   117    98    99    2
   118    40    39    1
   119    96    90   am
   120    39    41    1
   121   116   115    1
   122    88    89    1
   123   113   112    1
   124   113   114    2
   125   107   106    2
   126   112   115    1
   127   112   111    1
   128   109   108    1
   129   162   161    2
   130    90    89    1
   131    90    91    2
   132    95    93   am
   133   115   117    1
   134    89    92    1
   135    92    93    1
   136   106   111   am
   137   106   105    1
   138   161   160    1
   139   108   105    1
   140   108   110    1
   141   164   163    1
   142   164   165    1
   143    93    94    2
   144   163   160    1
   145   105   104    1
   146   166   165    1
   147   166   167    1
   148   160   159    1
   149   159   154   am
   150   157   156    1
   151   147   146    2
   152   154   153    1
   153   154   155    2
   154   153   156    1
   155   153   152    1
   156   156   158    1
   157   146   152   am
   158   146   145    1
   159   151   149   am
   160   148   145    1
   161   148   149    1
   162   145   144    1
   163   149   150    2
   164   139   138    2
   165   144   138   am
   166   138   137    1
   167   137   140    1
   168   137   136    1
   169   140   141    1
   170   141   143   am
   171   141   142    2
