@<TRIPOS>MOLECULE
tmp/6f7cF00.pdb
 162 153 0 0 0
SMALL
GASTEIGER

@<TRIPOS>ATOM
      1  N         14.5650   57.8070   94.3510 N.3    74  LYS74      -0.1245
      2  CA        14.4610   57.9980   95.7940 C.3    74  LYS74       0.1561
      3  C         15.3770   59.1150   96.2760 C.2    74  LYS74       0.2260
      4  O         14.9820   59.9390   97.1070 O.2    74  LYS74      -0.2867
      5  CB        14.7760   56.6830   96.5090 C.3    74  LYS74       0.0271
      6  CG        13.8670   55.5420   96.0750 C.3    74  LYS74       0.0035
      7  CD        14.0940   54.2750   96.8720 C.3    74  LYS74       0.0206
      8  CE        13.1610   53.1610   96.3980 C.3    74  LYS74       0.1093
      9  NZ        13.3980   52.7900   94.9640 N.3    74  LYS74      -0.1314
     10  N          7.9840   61.4910  105.0970 N.3    95  PRO95      -0.2116
     11  CA         8.8290   61.2660  106.2740 C.3    95  PRO95       0.1372
     12  C         10.1470   62.0170  106.1690 C.2    95  PRO95       0.2244
     13  O         10.6530   62.2820  105.0750 O.2    95  PRO95      -0.2868
     14  CB         9.0510   59.7470  106.2750 C.3    95  PRO95       0.0268
     15  CG         7.9570   59.1880  105.4400 C.3    95  PRO95       0.0207
     16  CD         7.6670   60.2320  104.4020 C.3    95  PRO95       0.0892
     17  N         14.6550   53.4240  108.2940 N.3   117  ILE117     -0.1245
     18  CA        14.8140   52.5090  107.1720 C.3   117  ILE117      0.1561
     19  C         15.7900   53.1270  106.1810 C.2   117  ILE117      0.2260
     20  O         15.8710   54.3530  106.0370 O.2   117  ILE117     -0.2867
     21  CB        13.4610   52.1940  106.4960 C.3   117  ILE117      0.0252
     22  CG1       13.6550   51.2610  105.2940 C.3   117  ILE117      0.0019
     23  CG2       12.7610   53.4840  106.0690 C.3   117  ILE117      0.0019
     24  CD1       12.3530   50.7150  104.7150 C.3   117  ILE117      0.0001
     25  N         17.3290   52.6880  102.1080 N.3   119  LYS119     -0.1245
     26  CA        17.0290   52.1390  100.7930 C.3   119  LYS119      0.1561
     27  C         17.7330   52.9760   99.7350 C.2   119  LYS119      0.2260
     28  O         18.1410   54.1140   99.9850 O.2   119  LYS119     -0.2867
     29  CB        15.5160   52.1060  100.5380 C.3   119  LYS119      0.0271
     30  CG        14.7600   53.2600  101.1910 C.3   119  LYS119      0.0035
     31  CD        13.2620   53.1720  100.9490 C.3   119  LYS119      0.0206
     32  CE        12.5280   54.3380  101.6070 C.3   119  LYS119      0.1093
     33  NZ        11.0710   54.3460  101.3040 N.3   119  LYS119     -0.1314
     34  N         15.3160   57.3690  105.7090 N.3   124  GLN124     -0.1231
     35  CA        14.1570   58.0960  106.2170 C.3   124  GLN124      0.1698
     36  C         13.5620   57.3560  107.4120 C.2   124  GLN124      0.2592
     37  O         13.9410   56.2260  107.7250 O.2   124  GLN124     -0.2718
     38  CB        13.0900   58.2960  105.1260 C.3   124  GLN124      0.0381
     39  CG        12.0610   57.1750  105.0150 C.3   124  GLN124      0.0905
     40  CD        11.1400   57.3190  103.8170 C.2   124  GLN124      0.2608
     41  OE1       10.5060   56.3490  103.4010 O.2   124  GLN124     -0.2717
     42  NE2       11.0550   58.5260  103.2590 N.am  124  GLN124     -0.0878
     43  N         12.6180   58.0140  108.0850 N.am  125  LYS125     -0.1966
     44  CA        11.9450   57.4000  109.2220 C.3   125  LYS125      0.1728
     45  C         11.1930   56.1470  108.7950 C.2   125  LYS125      0.2616
     46  O         10.5590   56.1100  107.7360 O.2   125  LYS125     -0.2715
     47  CB        10.9540   58.3760  109.8560 C.3   125  LYS125      0.0311
     48  CG        11.5560   59.4670  110.7190 C.3   125  LYS125      0.0038
     49  CD        10.4430   60.3570  111.2750 C.3   125  LYS125      0.0206
     50  CE        10.9800   61.5560  112.0390 C.3   125  LYS125      0.1093
     51  NZ         9.8790   62.4460  112.5070 N.3   125  LYS125     -0.1314
     52  N         11.2520   55.1210  109.6370 N.am  126  TYR126     -0.1960
     53  CA        10.3760   53.9660  109.5060 C.3   126  TYR126      0.1771
     54  C          9.1140   54.2230  110.3230 C.2   126  TYR126      0.2619
     55  O          9.1920   54.5470  111.5120 O.2   126  TYR126     -0.2715
     56  CB        11.0800   52.6930  109.9780 C.3   126  TYR126      0.0574
     57  CG        10.2610   51.4420  109.7850 C.ar  126  TYR126     -0.0198
     58  CD1       10.2710   50.7630  108.5740 C.ar  126  TYR126     -0.0009
     59  CD2        9.4750   50.9390  110.8110 C.ar  126  TYR126     -0.0009
     60  CE1        9.5210   49.6210  108.3910 C.ar  126  TYR126      0.0417
     61  CE2        8.7220   49.7950  110.6390 C.ar  126  TYR126      0.0417
     62  CZ         8.7500   49.1400  109.4260 C.ar  126  TYR126      0.1957
     63  OH         8.0010   48.0000  109.2440 O.3   126  TYR126     -0.2866
     64  N          7.9570   54.0970  109.6790 N.am  127  LEU127     -0.1977
     65  CA         6.6820   54.4380  110.3090 C.3   127  LEU127      0.1596
     66  C          6.3250   53.3590  111.3250 C.2   127  LEU127      0.2287
     67  O          5.8070   52.2980  110.9720 O.2   127  LEU127     -0.2864
     68  CB         5.5990   54.5920  109.2480 C.3   127  LEU127      0.0297
     69  CG         5.9430   55.6220  108.1650 C.3   127  LEU127      0.0022
     70  CD1        4.9900   55.5220  106.9830 C.3   127  LEU127      0.0001
     71  CD2        5.9430   57.0320  108.7420 C.3   127  LEU127      0.0001
     72  N          0.2320   44.5720  107.9380 N.3   139  LYS139     -0.1231
     73  CA         0.6630   45.8280  107.3410 C.3   139  LYS139      0.1693
     74  C          0.3300   45.8610  105.8530 C.2   139  LYS139      0.2592
     75  O          0.2350   44.8190  105.1990 O.2   139  LYS139     -0.2718
     76  CB         2.1690   45.9930  107.5490 C.3   139  LYS139      0.0285
     77  CG         2.7180   47.3730  107.3000 C.3   139  LYS139      0.0035
     78  CD         4.2050   47.3990  107.6060 C.3   139  LYS139      0.0206
     79  CE         4.8390   48.7370  107.2650 C.3   139  LYS139      0.1093
     80  NZ         6.3180   48.6830  107.4450 N.3   139  LYS139     -0.1314
     81  N          0.1570   47.0690  105.3140 N.am  140  PHE140     -0.1962
     82  CA        -0.1900   47.2170  103.9040 C.3   140  PHE140      0.1771
     83  C          0.3660   48.5220  103.3480 C.2   140  PHE140      0.2619
     84  O          0.7800   49.4200  104.0840 O.2   140  PHE140     -0.2715
     85  CB        -1.7070   47.1740  103.6920 C.3   140  PHE140      0.0574
     86  CG        -2.4330   48.3630  104.2620 C.ar  140  PHE140     -0.0200
     87  CD1       -2.5350   49.5460  103.5390 C.ar  140  PHE140     -0.0042
     88  CD2       -3.0190   48.2980  105.5220 C.ar  140  PHE140     -0.0042
     89  CE1       -3.1990   50.6360  104.0590 C.ar  140  PHE140     -0.0003
     90  CE2       -3.6900   49.3910  106.0450 C.ar  140  PHE140     -0.0003
     91  CZ        -3.7800   50.5600  105.3100 C.ar  140  PHE140     -0.0000
     92  N          0.3590   48.6140  102.0210 N.am  141  ASP141     -0.1971
     93  CA         0.6400   49.8640  101.3270 C.3   141  ASP141      0.1709
     94  C         -0.3450   50.0030  100.1760 C.2   141  ASP141      0.2293
     95  O         -0.8720   49.0150   99.6580 O.2   141  ASP141     -0.2864
     96  CB         2.0910   49.9360  100.8170 C.3   141  ASP141      0.1436
     97  CG         2.3290   49.0840   99.5750 C.2   141  ASP141      0.3671
     98  OD1        1.4150   48.3280   99.1840 O.co2 141  ASP141     -0.2456
     99  OD2        3.4210   49.1870   98.9790 O.co2 141  ASP141     -0.2456
    100  N         -1.1520   51.3560   96.3870 N.3   143  ARG143     -0.1245
    101  CA        -0.6800   51.7680   95.0720 C.3   143  ARG143      0.1563
    102  C         -1.7970   52.5130   94.3490 C.2   143  ARG143      0.2260
    103  O         -2.9220   52.0110   94.2530 O.2   143  ARG143     -0.2867
    104  CB        -0.2280   50.5590   94.2490 C.3   143  ARG143      0.0307
    105  CG        -0.1450   50.8030   92.7350 C.3   143  ARG143      0.0489
    106  CD         0.8510   51.9010   92.3730 C.3   143  ARG143      0.2205
    107  NE         2.2270   51.5110   92.6670 N.pl3 143  ARG143     -0.0865
    108  CZ         2.9560   50.6910   91.9110 C.cat 143  ARG143      0.5346
    109  NH1        2.4490   50.1620   90.8040 N.pl3 143  ARG143      0.1354
    110  NH2        4.1990   50.3940   92.2690 N.pl3 143  ARG143      0.1354
    111  N         -1.2750   46.4500   98.7850 N.3   163  ARG163     -0.1245
    112  CA        -0.3060   45.3560   98.8310 C.3   163  ARG163      0.1563
    113  C         -0.1450   44.9650  100.2930 C.2   163  ARG163      0.2260
    114  O          0.5980   45.6080  101.0390 O.2   163  ARG163     -0.2867
    115  CB         1.0260   45.7670   98.2140 C.3   163  ARG163      0.0307
    116  CG         1.0170   45.8300   96.6910 C.3   163  ARG163      0.0489
    117  CD         1.0430   47.2550   96.1450 C.3   163  ARG163      0.2205
    118  NE         2.1830   47.4590   95.2520 N.pl3 163  ARG163     -0.0865
    119  CZ         3.1550   48.3520   95.4230 C.cat 163  ARG163      0.5346
    120  NH1        3.1520   49.1820   96.4560 N.pl3 163  ARG163      0.1354
    121  NH2        4.1380   48.4250   94.5360 N.pl3 163  ARG163      0.1354
    122  N          3.0020   55.2980   95.6800 N.3   230  ASP230     -0.1239
    123  CA         2.9900   54.3420   96.7880 C.3   230  ASP230      0.1674
    124  C          2.7890   55.0900   98.1010 C.2   230  ASP230      0.2266
    125  O          3.5810   55.9760   98.4380 O.2   230  ASP230     -0.2867
    126  CB         4.2970   53.5390   96.8350 C.3   230  ASP230      0.1410
    127  CG         4.3890   52.4840   95.7320 C.2   230  ASP230      0.3668
    128  OD1        3.3710   52.2290   95.0510 O.co2 230  ASP230     -0.2456
    129  OD2        5.4860   51.9020   95.5480 O.co2 230  ASP230     -0.2456
    130  N          1.6100   55.0530  102.4610 N.3   232  MET232     -0.1245
    131  CA         1.4350   54.3810  103.7390 C.3   232  MET232      0.1570
    132  C          0.3670   55.1030  104.5470 C.2   232  MET232      0.2261
    133  O          0.1780   56.3150  104.4140 O.2   232  MET232     -0.2867
    134  CB         2.7430   54.3340  104.5420 C.3   232  MET232      0.0387
    135  CG         3.6700   53.1840  104.1690 C.3   232  MET232      0.0595
    136  SD         3.0460   51.5670  104.6820 S.3   232  MET232     -0.1393
    137  CE         3.1240   51.7090  106.4670 C.3   232  MET232      0.0692
    138  N          5.5010   57.3210  100.0530 N.3   242  ILE242     -0.1231
    139  CA         6.7230   56.5320  100.1700 C.3   242  ILE242      0.1692
    140  C          7.5740   56.6990   98.9210 C.2   242  ILE242      0.2591
    141  O          8.7480   57.0850   99.0010 O.2   242  ILE242     -0.2718
    142  CB         6.3970   55.0470  100.4090 C.3   242  ILE242      0.0266
    143  CG1        5.7140   54.8570  101.7610 C.3   242  ILE242      0.0019
    144  CG2        7.6570   54.1860  100.3330 C.3   242  ILE242      0.0020
    145  CD1        6.5700   55.2500  102.9680 C.3   242  ILE242      0.0001
    146  N          6.9810   56.4060   97.7630 N.am  243  GLU243     -0.1979
    147  CA         7.7270   56.3620   96.5130 C.3   243  GLU243      0.1602
    148  C          6.8200   56.7360   95.3490 C.2   243  GLU243      0.2287
    149  O          5.5990   56.5880   95.4160 O.2   243  GLU243     -0.2864
    150  CB         8.3300   54.9660   96.2710 C.3   243  GLU243      0.0415
    151  CG         9.4200   54.9170   95.1990 C.3   243  GLU243      0.1163
    152  CD         9.6920   53.5090   94.6930 C.2   243  GLU243      0.3649
    153  OE1        8.9420   52.5830   95.0620 O.co2 243  GLU243     -0.2457
    154  OE2       10.6600   53.3290   93.9230 O.co2 243  GLU243     -0.2457
    155  N          6.7660   55.7210   91.2810 N.3   245  ASN245     -0.1240
    156  CA         7.3300   54.8710   90.2370 C.3   245  ASN245      0.1653
    157  C          6.9000   55.3540   88.8580 C.2   245  ASN245      0.2266
    158  O          5.7020   55.4750   88.5800 O.2   245  ASN245     -0.2867
    159  CB         6.8990   53.4200   90.4250 C.3   245  ASN245      0.1155
    160  CG         7.3810   52.8460   91.7320 C.2   245  ASN245      0.2627
    161  OD1        6.7660   53.0600   92.7820 O.2   245  ASN245     -0.2716
    162  ND2        8.4910   52.1070   91.6820 N.am  245  ASN245     -0.0877
@<TRIPOS>BOND
     1   158   157    2
     2   157   156    1
     3   156   159    1
     4   156   155    1
     5   159   160    1
     6   109   108    1
     7   162   160   am
     8   160   161    2
     9   108   110    1
    10   108   107    2
    11   106   107    1
    12   106   105    1
    13   105   104    1
    14   154   152   ar
    15   104   101    1
    16   103   102    2
    17   102   101    1
    18     1     2    1
    19   121   119    1
    20   152   153   ar
    21   152   151    1
    22     9     8    1
    23   128   127   ar
    24   101   100    1
    25   151   150    1
    26   118   119    2
    27   118   117    1
    28   148   149    2
    29   148   147    1
    30   119   120    1
    31   129   127   ar
    32   122   123    1
    33   127   126    1
    34     2     3    1
    35     2     5    1
    36     6     5    1
    37     6     7    1
    38   117   116    1
    39   150   147    1
    40     3     4    2
    41     8     7    1
    42   147   146    1
    43   116   115    1
    44   123   126    1
    45   123   124    1
    46   146   140   am
    47   124   125    2
    48   115   112    1
    49   111   112    1
    50   112   113    1
    51   140   141    2
    52   140   139    1
    53    99    97   ar
    54    98    97   ar
    55    97    96    1
    56    95    94    2
    57    27    28    2
    58    27    26    1
    59   138   139    1
    60   139   142    1
    61    94    93    1
    62   113   114    2
    63   144   142    1
    64   142   143    1
    65    29    26    1
    66    29    30    1
    67    26    25    1
    68    96    93    1
    69    31    30    1
    70    31    32    1
    71    33    32    1
    72    93    92    1
    73   143   145    1
    74    92    83   am
    75   130   131    1
    76    42    40   am
    77    83    82    1
    78    83    84    2
    79    41    40    2
    80    87    89   ar
    81    87    86   ar
    82    85    82    1
    83    85    86    1
    84   131   134    1
    85   131   132    1
    86    40    39    1
    87    82    81    1
    88    89    91   ar
    89   135   134    1
    90   135   136    1
    91    86    88   ar
    92    16    10    1
    93    16    15    1
    94   133   132    2
    95   136   137    1
    96    24    22    1
    97    39    38    1
    98    13    12    2
    99    10    11    1
   100    38    35    1
   101    75    74    2
   102    22    21    1
   103    91    90   ar
   104    81    74   am
   105    15    14    1
   106    88    90   ar
   107    34    35    1
   108    74    73    1
   109    20    19    2
   110    23    21    1
   111    12    11    1
   112    19    18    1
   113    35    36    1
   114    11    14    1
   115    21    18    1
   116    70    69    1
   117    18    17    1
   118    79    80    1
   119    79    78    1
   120    77    76    1
   121    77    78    1
   122    73    76    1
   123    73    72    1
   124    36    37    2
   125    36    43   am
   126    46    45    2
   127    43    44    1
   128    69    71    1
   129    69    68    1
   130    60    58   ar
   131    60    62   ar
   132    58    57   ar
   133    45    44    1
   134    45    52   am
   135    44    47    1
   136    63    62    1
   137    68    65    1
   138    62    61   ar
   139    53    52    1
   140    53    56    1
   141    53    54    1
   142    64    65    1
   143    64    54   am
   144    57    56    1
   145    57    59   ar
   146    47    48    1
   147    65    66    1
   148    54    55    2
   149    61    59   ar
   150    48    49    1
   151    67    66    2
   152    49    50    1
   153    50    51    1
