@<TRIPOS>MOLECULE
tmp/6f7hD00.pdb
 79 73 0 0 0
SMALL
GASTEIGER

@<TRIPOS>ATOM
      1  N         69.8550   44.5570   57.9400 N.3   157  MET157     -0.1245
      2  CA        69.5360   45.5390   58.9720 C.3   157  MET157      0.1570
      3  C         69.0760   46.8540   58.3590 C.2   157  MET157      0.2261
      4  O         68.1110   47.4620   58.8410 O.2   157  MET157     -0.2867
      5  CB        70.7420   45.7740   59.8860 C.3   157  MET157      0.0387
      6  CG        71.0560   44.5820   60.7810 C.3   157  MET157      0.0595
      7  SD        72.3490   44.9940   61.9440 S.3   157  MET157     -0.1393
      8  CE        71.5360   46.3430   62.8250 C.3   157  MET157      0.0692
      9  N         65.4210   46.4380   57.0090 N.3   160  VAL160     -0.1231
     10  CA        64.4390   46.3640   58.0750 C.3   160  VAL160      0.1692
     11  C         64.1700   47.7570   58.6250 C.2   160  VAL160      0.2592
     12  O         63.0100   48.1440   58.8260 O.2   160  VAL160     -0.2718
     13  CB        64.9140   45.3720   59.1540 C.3   160  VAL160      0.0266
     14  CG1       64.2070   45.6040   60.4800 C.3   160  VAL160      0.0020
     15  CG2       64.7070   43.9310   58.6750 C.3   160  VAL160      0.0020
     16  N         65.2280   48.5510   58.8280 N.am  161  GLY161     -0.1957
     17  CA        65.0380   49.9210   59.2890 C.3   161  GLY161      0.1869
     18  C         64.2210   50.7470   58.3080 C.2   161  GLY161      0.2309
     19  O         63.2430   51.4060   58.6890 O.2   161  GLY161     -0.2863
     20  N         60.7080   49.7550   58.4960 N.3   164  ALA164     -0.1245
     21  CA        60.0230   50.2450   59.6910 C.3   164  ALA164      0.1562
     22  C         59.7360   51.7410   59.5780 C.2   164  ALA164      0.2260
     23  O         58.6690   52.2080   59.9940 O.2   164  ALA164     -0.2867
     24  CB        60.8350   49.9230   60.9650 C.3   164  ALA164      0.0290
     25  N         53.4130   51.8730   61.9830 N.3   170  ASN170     -0.1225
     26  CA        54.2330   52.3150   63.1090 C.3   170  ASN170      0.1785
     27  C         53.9770   53.7970   63.3930 C.2   170  ASN170      0.2597
     28  O         53.3730   54.5180   62.5900 O.2   170  ASN170     -0.2718
     29  CB        55.7220   52.0780   62.8450 C.3   170  ASN170      0.1169
     30  CG        56.0420   50.6270   62.4870 C.2   170  ASN170      0.2627
     31  OD1       55.3740   49.6900   62.9320 O.2   170  ASN170     -0.2716
     32  ND2       57.0800   50.4410   61.6820 N.am  170  ASN170     -0.0877
     33  N         54.4400   54.2530   64.5610 N.am  171  LYS171     -0.1980
     34  CA        54.2270   55.6440   64.9490 C.3   171  LYS171      0.1596
     35  C         55.0930   56.5920   64.1320 C.2   171  LYS171      0.2287
     36  O         54.7400   57.7670   63.9600 O.2   171  LYS171     -0.2864
     37  CB        54.5110   55.8260   66.4430 C.3   171  LYS171      0.0298
     38  CG        53.5710   55.0530   67.3350 C.3   171  LYS171      0.0038
     39  CD        53.5610   55.6310   68.7430 C.3   171  LYS171      0.0206
     40  CE        52.8430   54.6900   69.6990 C.3   171  LYS171      0.1093
     41  NZ        53.6470   53.4540   69.9530 N.3   171  LYS171     -0.1314
     42  N         71.3950   55.6320   60.8110 N.3   185  LEU185     -0.1245
     43  CA        71.5290   54.1840   60.6630 C.3   185  LEU185      0.1561
     44  C         72.7570   53.8240   59.8380 C.2   185  LEU185      0.2260
     45  O         73.4840   52.8750   60.1700 O.2   185  LEU185     -0.2867
     46  CB        70.2960   53.6010   59.9900 C.3   185  LEU185      0.0270
     47  CG        69.8750   52.1700   60.3450 C.3   185  LEU185      0.0019
     48  CD1       69.0760   51.5100   59.1960 C.3   185  LEU185      0.0001
     49  CD2       70.9740   51.2510   60.9590 C.3   185  LEU185      0.0001
     50  N         61.1250   41.2040   58.6780 N.3   248  TYR248     -0.1241
     51  CA        60.1950   42.2700   59.0360 C.3   248  TYR248      0.1605
     52  C         58.7490   41.8020   58.9180 C.2   248  TYR248      0.2264
     53  O         57.9160   42.1080   59.7810 O.2   248  TYR248     -0.2867
     54  CB        60.4130   43.5050   58.1580 C.3   248  TYR248      0.0534
     55  CG        59.5380   44.6620   58.5950 C.ar  248  TYR248     -0.0201
     56  CD1       59.8940   45.4410   59.6860 C.ar  248  TYR248     -0.0009
     57  CD2       58.3440   44.9620   57.9360 C.ar  248  TYR248     -0.0009
     58  CE1       59.0950   46.4970   60.1180 C.ar  248  TYR248      0.0417
     59  CE2       57.5320   46.0130   58.3590 C.ar  248  TYR248      0.0417
     60  CZ        57.9170   46.7800   59.4490 C.ar  248  TYR248      0.1957
     61  OH        57.1330   47.8260   59.8890 O.3   248  TYR248     -0.2866
     62  N         57.5540   39.2460   61.6130 N.3   251  LEU251     -0.1245
     63  CA        57.4980   39.9800   62.8760 C.3   251  LEU251      0.1561
     64  C         56.1970   40.7520   62.9820 C.2   251  LEU251      0.2260
     65  O         55.5010   40.6770   63.9950 O.2   251  LEU251     -0.2867
     66  CB        58.6850   40.9270   62.9930 C.3   251  LEU251      0.0270
     67  CG        59.9600   40.2110   63.4190 C.3   251  LEU251      0.0019
     68  CD1       61.1380   41.1860   63.3590 C.3   251  LEU251      0.0001
     69  CD2       59.7490   39.5980   64.8120 C.3   251  LEU251      0.0001
     70  N         52.4880   39.9250   65.4930 N.3   255  HIS255     -0.1241
     71  CA        51.9890   40.9080   66.4010 C.3   255  HIS255      0.1621
     72  C         50.5880   41.2090   66.0020 C.2   255  HIS255      0.2264
     73  O         49.9070   41.9430   66.6740 O.2   255  HIS255     -0.2867
     74  CB        52.8500   42.1540   66.3870 C.3   255  HIS255      0.0745
     75  CG        54.1400   41.9780   67.1030 C.ar  255  HIS255      0.0817
     76  ND1       55.2060   41.3180   66.5510 N.ar  255  HIS255     -0.2268
     77  CD2       54.5260   42.3480   68.3380 C.ar  255  HIS255      0.1154
     78  CE1       56.1980   41.2940   67.4120 C.ar  255  HIS255      0.1986
     79  NE2       55.8090   41.9110   68.5060 N.ar  255  HIS255     -0.2212
@<TRIPOS>BOND
     1     9    10    1
     2    57    59   ar
     3    57    55   ar
     4     1     2    1
     5    10    11    1
     6    10    13    1
     7    54    55    1
     8    54    51    1
     9    18    19    2
    10    18    17    1
    11    59    60   ar
    12     3     4    2
    13     3     2    1
    14    20    21    1
    15    55    56   ar
    16    11    12    2
    17    11    16   am
    18    15    13    1
    19    50    51    1
    20    16    17    1
    21    52    51    1
    22    52    53    2
    23     2     5    1
    24    13    14    1
    25    48    47    1
    26    60    61    1
    27    60    58   ar
    28    22    21    1
    29    22    23    2
    30    56    58   ar
    31    21    24    1
    32    44    45    2
    33    44    43    1
    34     5     6    1
    35    46    47    1
    36    46    43    1
    37    47    49    1
    38    43    42    1
    39     6     7    1
    40    62    63    1
    41    32    30   am
    42     7     8    1
    43    25    26    1
    44    30    29    1
    45    30    31    2
    46    28    27    2
    47    29    26    1
    48    63    64    1
    49    63    66    1
    50    64    65    2
    51    66    67    1
    52    26    27    1
    53    68    67    1
    54    27    33   am
    55    67    69    1
    56    36    35    2
    57    35    34    1
    58    33    34    1
    59    34    37    1
    60    70    71    1
    61    72    71    1
    62    72    73    2
    63    74    71    1
    64    74    75    1
    65    37    38    1
    66    76    75   ar
    67    76    78   ar
    68    75    77   ar
    69    38    39    1
    70    78    79   ar
    71    77    79   ar
    72    39    40    1
    73    40    41    1
