@<TRIPOS>MOLECULE
tmp/6f7hD04.pdb
 87 84 0 0 0
SMALL
GASTEIGER

@<TRIPOS>ATOM
      1  N         65.4210   46.4380   57.0090 N.3   160  VAL160     -0.1245
      2  CA        64.4390   46.3640   58.0750 C.3   160  VAL160      0.1561
      3  C         64.1700   47.7570   58.6250 C.2   160  VAL160      0.2260
      4  O         63.0100   48.1440   58.8260 O.2   160  VAL160     -0.2867
      5  CB        64.9140   45.3720   59.1540 C.3   160  VAL160      0.0252
      6  CG1       64.2070   45.6040   60.4800 C.3   160  VAL160      0.0019
      7  CG2       64.7070   43.9310   58.6750 C.3   160  VAL160      0.0019
      8  N         60.7080   49.7550   58.4960 N.3   164  ALA164     -0.1245
      9  CA        60.0230   50.2450   59.6910 C.3   164  ALA164      0.1562
     10  C         59.7360   51.7410   59.5780 C.2   164  ALA164      0.2260
     11  O         58.6690   52.2080   59.9940 O.2   164  ALA164     -0.2867
     12  CB        60.8350   49.9230   60.9650 C.3   164  ALA164      0.0290
     13  N         51.8130   51.8520   59.7600 N.3   169  ARG169     -0.1231
     14  CA        51.2680   51.2300   60.9560 C.3   169  ARG169      0.1694
     15  C         52.1420   51.4920   62.1750 C.2   169  ARG169      0.2592
     16  O         51.6610   51.3410   63.3020 O.2   169  ARG169     -0.2718
     17  CB        51.0880   49.7230   60.7440 C.3   169  ARG169      0.0321
     18  CG        50.0990   49.3590   59.6160 C.3   169  ARG169      0.0489
     19  CD        50.1870   47.8980   59.1580 C.3   169  ARG169      0.2205
     20  NE        51.5190   47.5470   58.6550 N.pl3 169  ARG169     -0.0865
     21  CZ        51.8000   46.4060   58.0320 C.cat 169  ARG169      0.5346
     22  NH1       50.8390   45.5100   57.8350 N.pl3 169  ARG169      0.1354
     23  NH2       53.0350   46.1540   57.6200 N.pl3 169  ARG169      0.1354
     24  N         53.4130   51.8730   61.9830 N.am  170  ASN170     -0.1960
     25  CA        54.2330   52.3150   63.1090 C.3   170  ASN170      0.1819
     26  C         53.9770   53.7970   63.3930 C.2   170  ASN170      0.2621
     27  O         53.3730   54.5180   62.5900 O.2   170  ASN170     -0.2715
     28  CB        55.7220   52.0780   62.8450 C.3   170  ASN170      0.1195
     29  CG        56.0420   50.6270   62.4870 C.2   170  ASN170      0.2630
     30  OD1       55.3740   49.6900   62.9320 O.2   170  ASN170     -0.2716
     31  ND2       57.0800   50.4410   61.6820 N.am  170  ASN170     -0.0877
     32  N         54.4400   54.2530   64.5610 N.am  171  LYS171     -0.1977
     33  CA        54.2270   55.6440   64.9490 C.3   171  LYS171      0.1596
     34  C         55.0930   56.5920   64.1320 C.2   171  LYS171      0.2287
     35  O         54.7400   57.7670   63.9600 O.2   171  LYS171     -0.2864
     36  CB        54.5110   55.8260   66.4430 C.3   171  LYS171      0.0298
     37  CG        53.5710   55.0530   67.3350 C.3   171  LYS171      0.0038
     38  CD        53.5610   55.6310   68.7430 C.3   171  LYS171      0.0206
     39  CE        52.8430   54.6900   69.6990 C.3   171  LYS171      0.1093
     40  NZ        53.6470   53.4540   69.9530 N.3   171  LYS171     -0.1314
     41  N         61.1250   41.2040   58.6780 N.3   248  TYR248     -0.1241
     42  CA        60.1950   42.2700   59.0360 C.3   248  TYR248      0.1605
     43  C         58.7490   41.8020   58.9180 C.2   248  TYR248      0.2264
     44  O         57.9160   42.1080   59.7810 O.2   248  TYR248     -0.2867
     45  CB        60.4130   43.5050   58.1580 C.3   248  TYR248      0.0534
     46  CG        59.5380   44.6620   58.5950 C.ar  248  TYR248     -0.0201
     47  CD1       59.8940   45.4410   59.6860 C.ar  248  TYR248     -0.0009
     48  CD2       58.3440   44.9620   57.9360 C.ar  248  TYR248     -0.0009
     49  CE1       59.0950   46.4970   60.1180 C.ar  248  TYR248      0.0417
     50  CE2       57.5320   46.0130   58.3590 C.ar  248  TYR248      0.0417
     51  CZ        57.9170   46.7800   59.4490 C.ar  248  TYR248      0.1957
     52  OH        57.1330   47.8260   59.8890 O.3   248  TYR248     -0.2866
     53  N         57.5540   39.2460   61.6130 N.3   251  LEU251     -0.1231
     54  CA        57.4980   39.9800   62.8760 C.3   251  LEU251      0.1693
     55  C         56.1970   40.7520   62.9820 C.2   251  LEU251      0.2591
     56  O         55.5010   40.6770   63.9950 O.2   251  LEU251     -0.2718
     57  CB        58.6850   40.9270   62.9930 C.3   251  LEU251      0.0284
     58  CG        59.9600   40.2110   63.4190 C.3   251  LEU251      0.0019
     59  CD1       61.1380   41.1860   63.3590 C.3   251  LEU251      0.0001
     60  CD2       59.7490   39.5980   64.8120 C.3   251  LEU251      0.0001
     61  N         55.8490   41.4590   61.9250 N.am  252  VAL252     -0.1980
     62  CA        54.6170   42.1980   61.8810 C.3   252  VAL252      0.1595
     63  C         53.5260   41.1600   61.9980 C.2   252  VAL252      0.2287
     64  O         52.5710   41.3300   62.7190 O.2   252  VAL252     -0.2864
     65  CB        54.4810   42.9460   60.5670 C.3   252  VAL252      0.0276
     66  CG1       53.0750   43.4680   60.3860 C.3   252  VAL252      0.0022
     67  CG2       55.4880   44.0680   60.5160 C.3   252  VAL252      0.0022
     68  N         52.4880   39.9250   65.4930 N.3   255  HIS255     -0.1226
     69  CA        51.9890   40.9080   66.4010 C.3   255  HIS255      0.1752
     70  C         50.5880   41.2090   66.0020 C.2   255  HIS255      0.2596
     71  O         49.9070   41.9430   66.6740 O.2   255  HIS255     -0.2718
     72  CB        52.8500   42.1540   66.3870 C.3   255  HIS255      0.0759
     73  CG        54.1400   41.9780   67.1030 C.ar  255  HIS255      0.0818
     74  ND1       55.2060   41.3180   66.5510 N.ar  255  HIS255     -0.2268
     75  CD2       54.5260   42.3480   68.3380 C.ar  255  HIS255      0.1154
     76  CE1       56.1980   41.2940   67.4120 C.ar  255  HIS255      0.1986
     77  NE2       55.8090   41.9110   68.5060 N.ar  255  HIS255     -0.2212
     78  N         50.1360   40.6410   64.8970 N.am  256  HIS256     -0.1975
     79  CA        48.7460   40.8750   64.5480 C.3   256  HIS256      0.1656
     80  C         47.8160   39.9240   65.3100 C.2   256  HIS256      0.2291
     81  O         46.9110   40.3640   66.0300 O.2   256  HIS256     -0.2864
     82  CB        48.5360   40.7300   63.0460 C.3   256  HIS256      0.0771
     83  CG        47.2300   41.2870   62.5800 C.ar  256  HIS256      0.0820
     84  ND1       47.1280   42.5010   61.9340 N.ar  256  HIS256     -0.2267
     85  CD2       45.9650   40.8120   62.6970 C.ar  256  HIS256      0.1154
     86  CE1       45.8580   42.7420   61.6560 C.ar  256  HIS256      0.1986
     87  NE2       45.1320   41.7350   62.1110 N.ar  256  HIS256     -0.2212
@<TRIPOS>BOND
     1     1     2    1
     2    23    21    1
     3    22    21    1
     4    48    50   ar
     5    48    46   ar
     6    21    20    2
     7     2     3    1
     8     2     5    1
     9    45    46    1
    10    45    42    1
    11    50    51   ar
    12     8     9    1
    13    46    47   ar
    14     3     4    2
    15    20    19    1
    16     7     5    1
    17    41    42    1
    18    43    42    1
    19    43    44    2
    20     5     6    1
    21    19    18    1
    22    51    52    1
    23    51    49   ar
    24    10     9    1
    25    10    11    2
    26    18    17    1
    27    47    49   ar
    28     9    12    1
    29    13    14    1
    30    66    65    1
    31    67    65    1
    32    65    62    1
    33    17    14    1
    34    14    15    1
    35    53    54    1
    36    86    84   ar
    37    86    87   ar
    38    31    29   am
    39    62    61    1
    40    62    63    1
    41    61    55   am
    42    84    83   ar
    43    24    15   am
    44    24    25    1
    45    63    64    2
    46    87    85   ar
    47    15    16    2
    48    29    28    1
    49    29    30    2
    50    83    85   ar
    51    83    82    1
    52    27    26    2
    53    28    25    1
    54    54    55    1
    55    54    57    1
    56    55    56    2
    57    57    58    1
    58    82    79    1
    59    25    26    1
    60    59    58    1
    61    26    32   am
    62    58    60    1
    63    35    34    2
    64    34    33    1
    65    79    78    1
    66    79    80    1
    67    32    33    1
    68    78    70   am
    69    33    36    1
    70    80    81    2
    71    68    69    1
    72    70    69    1
    73    70    71    2
    74    72    69    1
    75    72    73    1
    76    36    37    1
    77    74    73   ar
    78    74    76   ar
    79    73    75   ar
    80    37    38    1
    81    76    77   ar
    82    75    77   ar
    83    38    39    1
    84    39    40    1
