@<TRIPOS>MOLECULE
tmp/6f7hB04.pdb
 106 99 0 0 0
SMALL
GASTEIGER

@<TRIPOS>ATOM
      1  N         63.4330   78.2710   78.1280 N.3    60  SER60      -0.1217
      2  CA        62.6420   79.1540   78.9710 C.3    60  SER60       0.1889
      3  C         62.6050   78.6900   80.4290 C.2    60  SER60       0.2288
      4  O         61.9360   79.3300   81.2460 O.2    60  SER60      -0.2866
      5  CB        61.2210   79.3020   78.4010 C.3    60  SER60       0.2089
      6  OG        60.5270   78.0790   78.4800 O.3    60  SER60      -0.2183
      7  N         68.3970   88.0280   81.5330 N.3    72  MET72      -0.1245
      8  CA        66.9850   87.9820   81.9150 C.3    72  MET72       0.1570
      9  C         66.5690   89.2060   82.7350 C.2    72  MET72       0.2261
     10  O         65.4670   89.7340   82.5410 O.2    72  MET72      -0.2867
     11  CB        66.6860   86.6890   82.6600 C.3    72  MET72       0.0387
     12  CG        66.7250   85.4720   81.7480 C.3    72  MET72       0.0595
     13  SD        65.6610   85.5730   80.2680 S.3    72  MET72      -0.1393
     14  CE        66.6700   86.4320   79.0810 C.3    72  MET72       0.0692
     15  N         66.3090   92.3970   80.2630 N.3    75  VAL75      -0.1245
     16  CA        65.0930   92.4210   79.4530 C.3    75  VAL75       0.1561
     17  C         63.8340   92.3410   80.2920 C.2    75  VAL75       0.2260
     18  O         62.7370   92.3230   79.7300 O.2    75  VAL75      -0.2867
     19  CB        65.0180   91.3030   78.3910 C.3    75  VAL75       0.0252
     20  CG1       66.2350   91.3480   77.4470 C.3    75  VAL75       0.0019
     21  CG2       64.8340   89.9130   79.0360 C.3    75  VAL75       0.0019
     22  N         62.7010   89.9780   82.4770 N.3    77  ARG77      -0.1245
     23  CA        62.0750   88.6920   82.7580 C.3    77  ARG77       0.1563
     24  C         62.4290   88.1350   84.1350 C.2    77  ARG77       0.2260
     25  O         61.6150   87.4100   84.7220 O.2    77  ARG77      -0.2867
     26  CB        62.4520   87.6630   81.7010 C.3    77  ARG77       0.0307
     27  CG        61.7950   86.3240   81.9930 C.3    77  ARG77       0.0489
     28  CD        61.9590   85.4240   80.8170 C.3    77  ARG77       0.2205
     29  NE        61.2780   84.1420   80.9450 N.pl3  77  ARG77      -0.0865
     30  CZ        61.9270   82.9840   80.9510 C.cat  77  ARG77       0.5346
     31  NH1       63.2480   82.9830   80.8190 N.pl3  77  ARG77       0.1354
     32  NH2       61.2610   81.8380   81.0570 N.pl3  77  ARG77       0.1354
     33  N         68.5380   84.7080   73.3420 N.3   158  LEU158     -0.1245
     34  CA        67.4400   85.6640   73.2730 C.3   158  LEU158      0.1561
     35  C         66.5550   85.3960   72.0620 C.2   158  LEU158      0.2260
     36  O         65.3170   85.4100   72.1780 O.2   158  LEU158     -0.2867
     37  CB        67.9770   87.0970   73.2440 C.3   158  LEU158      0.0270
     38  CG        68.6110   87.5690   74.5730 C.3   158  LEU158      0.0019
     39  CD1       69.2510   88.9460   74.4680 C.3   158  LEU158      0.0001
     40  CD2       67.6140   87.5000   75.7620 C.3   158  LEU158      0.0001
     41  N         64.4280   82.3770   72.5360 N.3   161  LEU161     -0.1231
     42  CA        63.4110   82.5780   73.5680 C.3   161  LEU161      0.1693
     43  C         62.3040   83.5310   73.1050 C.2   161  LEU161      0.2592
     44  O         61.1630   83.4340   73.5620 O.2   161  LEU161     -0.2718
     45  CB        64.0920   83.1240   74.8190 C.3   161  LEU161      0.0284
     46  CG        63.3890   83.1410   76.1700 C.3   161  LEU161      0.0019
     47  CD1       63.0130   81.7390   76.6580 C.3   161  LEU161      0.0001
     48  CD2       64.2610   83.8420   77.1910 C.3   161  LEU161      0.0001
     49  N         62.6210   84.4460   72.1920 N.am  162  ASP162     -0.1960
     50  CA        61.7320   85.5480   71.8520 C.3   162  ASP162      0.1840
     51  C         60.6200   85.0200   70.9470 C.2   162  ASP162      0.2622
     52  O         60.8680   84.6530   69.7960 O.2   162  ASP162     -0.2715
     53  CB        62.5290   86.6690   71.1850 C.3   162  ASP162      0.1450
     54  CG        61.6530   87.8370   70.7700 C.2   162  ASP162      0.3671
     55  OD1       60.4090   87.7040   70.7990 O.co2 162  ASP162     -0.2456
     56  OD2       62.2040   88.8910   70.3940 O.co2 162  ASP162     -0.2456
     57  N         59.3910   84.9800   71.4650 N.am  163  ARG163     -0.1963
     58  CA        58.2870   84.3610   70.7380 C.3   163  ARG163      0.1729
     59  C         57.8180   85.1830   69.5370 C.2   163  ARG163      0.2616
     60  O         56.9570   84.7100   68.7930 O.2   163  ARG163     -0.2715
     61  CB        57.1080   84.1120   71.6850 C.3   163  ARG163      0.0348
     62  CG        57.4040   83.0940   72.7570 C.3   163  ARG163      0.0492
     63  CD        57.1850   81.6940   72.2470 C.3   163  ARG163      0.2205
     64  NE        55.8190   81.5600   71.7430 N.pl3 163  ARG163     -0.0865
     65  CZ        54.7750   81.1000   72.4420 C.cat 163  ARG163      0.5346
     66  NH1       54.9310   80.6880   73.7060 N.pl3 163  ARG163      0.1354
     67  NH2       53.5670   81.0450   71.8650 N.pl3 163  ARG163      0.1354
     68  N         58.3440   86.3970   69.3380 N.am  164  ARG164     -0.1977
     69  CA        58.0960   87.1170   68.0950 C.3   164  ARG164      0.1597
     70  C         58.8980   86.5460   66.9270 C.2   164  ARG164      0.2287
     71  O         58.5940   86.8650   65.7720 O.2   164  ARG164     -0.2864
     72  CB        58.4040   88.6050   68.2740 C.3   164  ARG164      0.0334
     73  CG        57.4320   89.2970   69.2260 C.3   164  ARG164      0.0492
     74  CD        57.9730   90.6060   69.7550 C.3   164  ARG164      0.2205
     75  NE        59.2850   90.4590   70.3770 N.pl3 164  ARG164     -0.0865
     76  CZ        59.8960   91.4270   71.0620 C.cat 164  ARG164      0.5346
     77  NH1       59.2840   92.5910   71.2240 N.pl3 164  ARG164      0.1354
     78  NH2       61.1070   91.2420   71.5900 N.pl3 164  ARG164      0.1354
     79  N         70.7560   92.7930   70.8190 N.3   243  TYR243     -0.1227
     80  CA        69.5070   92.1560   70.4220 C.3   243  TYR243      0.1736
     81  C         68.3310   93.1260   70.5450 C.2   243  TYR243      0.2595
     82  O         67.4920   93.2000   69.6370 O.2   243  TYR243     -0.2718
     83  CB        69.2550   90.8820   71.2210 C.3   243  TYR243      0.0548
     84  CG        67.9820   90.1770   70.7740 C.ar  243  TYR243     -0.0200
     85  CD1       68.0000   89.3120   69.6730 C.ar  243  TYR243     -0.0009
     86  CD2       66.7600   90.3950   71.4130 C.ar  243  TYR243     -0.0009
     87  CE1       66.8520   88.6640   69.2350 C.ar  243  TYR243      0.0417
     88  CE2       65.5970   89.7430   70.9780 C.ar  243  TYR243      0.0417
     89  CZ        65.6540   88.8830   69.8850 C.ar  243  TYR243      0.1957
     90  OH        64.5330   88.2340   69.4200 O.3   243  TYR243     -0.2866
     91  N         68.2840   93.9290   71.6240 N.am  244  GLN244     -0.1979
     92  CA        67.1470   94.8390   71.8110 C.3   244  GLN244      0.1601
     93  C         67.1720   96.0040   70.8170 C.2   244  GLN244      0.2287
     94  O         66.1150   96.4500   70.3450 O.2   244  GLN244     -0.2864
     95  CB        67.1120   95.3600   73.2480 C.3   244  GLN244      0.0394
     96  CG        66.6560   94.3110   74.2630 C.3   244  GLN244      0.0908
     97  CD        66.5860   94.8670   75.6760 C.2   244  GLN244      0.2608
     98  OE1       67.5600   95.4440   76.1920 O.2   244  GLN244     -0.2717
     99  NE2       65.4200   94.7180   76.3070 N.am  244  GLN244     -0.0878
    100  N         65.6530   94.7810   66.6440 N.3   247  VAL247     -0.1245
    101  CA        64.3530   94.3630   67.1540 C.3   247  VAL247      0.1561
    102  C         63.6660   95.6910   67.1250 C.2   247  VAL247      0.2260
    103  O         62.7840   95.8940   66.3470 O.2   247  VAL247     -0.2867
    104  CB        64.2850   93.7840   68.5810 C.3   247  VAL247      0.0252
    105  CG1       62.8810   93.8560   69.1440 C.3   247  VAL247      0.0019
    106  CG2       64.6560   92.3240   68.5710 C.3   247  VAL247      0.0019
@<TRIPOS>BOND
     1    71    70    2
     2   103   102    2
     3   100   101    1
     4    70    69    1
     5   102   101    1
     6   101   104    1
     7    69    72    1
     8    69    68    1
     9    72    73    1
    10   106   104    1
    11   104   105    1
    12    60    59    2
    13    73    74    1
    14    87    85   ar
    15    87    89   ar
    16    68    59   am
    17    90    89    1
    18    59    58    1
    19    82    81    2
    20    85    84   ar
    21    74    75    1
    22    52    51    2
    23    89    88   ar
    24    94    93    2
    25    75    76    2
    26    56    54   ar
    27    80    81    1
    28    80    79    1
    29    80    83    1
    30    81    91   am
    31    58    57    1
    32    58    61    1
    33    54    55   ar
    34    54    53    1
    35    84    83    1
    36    84    86   ar
    37    93    92    1
    38    51    57   am
    39    51    50    1
    40    88    86   ar
    41    76    77    1
    42    76    78    1
    43    53    50    1
    44    91    92    1
    45    61    62    1
    46    64    63    1
    47    64    65    2
    48    92    95    1
    49    50    49    1
    50    67    65    1
    51    35    36    2
    52    35    34    1
    53    49    43   am
    54    63    62    1
    55    65    66    1
    56    41    42    1
    57    43    44    2
    58    43    42    1
    59    37    34    1
    60    37    38    1
    61    95    96    1
    62    34    33    1
    63    42    45    1
    64    96    97    1
    65    39    38    1
    66    38    40    1
    67    45    46    1
    68    97    98    2
    69    97    99   am
    70    46    47    1
    71    46    48    1
    72    20    19    1
    73     1     2    1
    74    19    21    1
    75    19    16    1
    76     5     6    1
    77     5     2    1
    78     2     3    1
    79    14    13    1
    80    16    15    1
    81    16    17    1
    82    18    17    2
    83    13    12    1
    84     3     4    2
    85    28    29    1
    86    28    27    1
    87    31    30    1
    88    29    30    2
    89    30    32    1
    90     7     8    1
    91    26    27    1
    92    26    23    1
    93    12    11    1
    94     8    11    1
    95     8     9    1
    96    22    23    1
    97    10     9    2
    98    23    24    1
    99    24    25    2
