@<TRIPOS>MOLECULE
tmp/6f7hD01.pdb
 68 63 0 0 0
SMALL
GASTEIGER

@<TRIPOS>ATOM
      1  N         65.2280   48.5510   58.8280 N.3   161  GLY161     -0.1225
      2  CA        65.0380   49.9210   59.2890 C.3   161  GLY161      0.1811
      3  C         64.2210   50.7470   58.3080 C.2   161  GLY161      0.2280
      4  O         63.2430   51.4060   58.6890 O.2   161  GLY161     -0.2866
      5  N         60.7080   49.7550   58.4960 N.3   164  ALA164     -0.1231
      6  CA        60.0230   50.2450   59.6910 C.3   164  ALA164      0.1694
      7  C         59.7360   51.7410   59.5780 C.2   164  ALA164      0.2591
      8  O         58.6690   52.2080   59.9940 O.2   164  ALA164     -0.2718
      9  CB        60.8350   49.9230   60.9650 C.3   164  ALA164      0.0304
     10  N         60.6650   52.5070   59.0170 N.am  165  ILE165     -0.1980
     11  CA        60.4130   53.9340   58.8370 C.3   165  ILE165      0.1595
     12  C         59.2700   54.1570   57.8570 C.2   165  ILE165      0.2287
     13  O         58.4510   55.0600   58.0420 O.2   165  ILE165     -0.2864
     14  CB        61.6970   54.6520   58.3860 C.3   165  ILE165      0.0276
     15  CG1       62.7400   54.5980   59.5020 C.3   165  ILE165      0.0022
     16  CG2       61.3820   56.1010   57.9820 C.3   165  ILE165      0.0022
     17  CD1       64.1360   54.9500   59.0310 C.3   165  ILE165      0.0001
     18  N         53.4130   51.8730   61.9830 N.3   170  ASN170     -0.1225
     19  CA        54.2330   52.3150   63.1090 C.3   170  ASN170      0.1785
     20  C         53.9770   53.7970   63.3930 C.2   170  ASN170      0.2597
     21  O         53.3730   54.5180   62.5900 O.2   170  ASN170     -0.2718
     22  CB        55.7220   52.0780   62.8450 C.3   170  ASN170      0.1169
     23  CG        56.0420   50.6270   62.4870 C.2   170  ASN170      0.2627
     24  OD1       55.3740   49.6900   62.9320 O.2   170  ASN170     -0.2716
     25  ND2       57.0800   50.4410   61.6820 N.am  170  ASN170     -0.0877
     26  N         54.4400   54.2530   64.5610 N.am  171  LYS171     -0.1966
     27  CA        54.2270   55.6440   64.9490 C.3   171  LYS171      0.1728
     28  C         55.0930   56.5920   64.1320 C.2   171  LYS171      0.2617
     29  O         54.7400   57.7670   63.9600 O.2   171  LYS171     -0.2715
     30  CB        54.5110   55.8260   66.4430 C.3   171  LYS171      0.0311
     31  CG        53.5710   55.0530   67.3350 C.3   171  LYS171      0.0038
     32  CD        53.5610   55.6310   68.7430 C.3   171  LYS171      0.0206
     33  CE        52.8430   54.6900   69.6990 C.3   171  LYS171      0.1093
     34  NZ        53.6470   53.4540   69.9530 N.3   171  LYS171     -0.1314
     35  N         56.2290   56.1100   63.6450 N.am  172  GLY172     -0.1940
     36  CA        57.0610   56.8720   62.7380 C.3   172  GLY172      0.2014
     37  C         57.8700   57.9510   63.4220 C.2   172  GLY172      0.2638
     38  O         57.4950   58.4300   64.4930 O.2   172  GLY172     -0.2714
     39  N         58.9850   58.3360   62.8140 N.am  173  VAL173     -0.1977
     40  CA        59.7460   59.4890   63.2730 C.3   173  VAL173      0.1596
     41  C         59.1280   60.7310   62.6440 C.2   173  VAL173      0.2287
     42  O         58.2620   60.6120   61.7660 O.2   173  VAL173     -0.2864
     43  CB        61.2370   59.3370   62.9510 C.3   173  VAL173      0.0276
     44  CG1       61.7290   57.9770   63.4540 C.3   173  VAL173      0.0022
     45  CG2       61.5180   59.5210   61.4260 C.3   173  VAL173      0.0022
     46  N         67.4270   60.2020   60.1320 N.3   181  VAL181     -0.1245
     47  CA        67.4910   58.9660   60.8980 C.3   181  VAL181      0.1561
     48  C         68.0680   57.8240   60.0620 C.2   181  VAL181      0.2260
     49  O         68.8220   56.9830   60.5770 O.2   181  VAL181     -0.2867
     50  CB        66.0900   58.6510   61.4470 C.3   181  VAL181      0.0252
     51  CG1       65.9780   57.1960   61.8430 C.3   181  VAL181      0.0019
     52  CG2       65.8240   59.5510   62.6620 C.3   181  VAL181      0.0019
     53  N         71.6770   58.3860   60.2150 N.3   184  MET184     -0.1230
     54  CA        72.1860   57.8590   61.4910 C.3   184  MET184      0.1702
     55  C         72.3380   56.3380   61.4590 C.2   184  MET184      0.2592
     56  O         73.2850   55.7960   62.0460 O.2   184  MET184     -0.2718
     57  CB        71.2820   58.2370   62.6640 C.3   184  MET184      0.0401
     58  CG        71.1520   59.7180   62.9830 C.3   184  MET184      0.0596
     59  SD        70.1070   59.9250   64.4690 S.3   184  MET184     -0.1393
     60  CE        69.9450   61.7210   64.5280 C.3   184  MET184      0.0692
     61  N         71.3950   55.6320   60.8110 N.am  185  LEU185     -0.1980
     62  CA        71.5290   54.1840   60.6630 C.3   185  LEU185      0.1596
     63  C         72.7570   53.8240   59.8380 C.2   185  LEU185      0.2287
     64  O         73.4840   52.8750   60.1700 O.2   185  LEU185     -0.2864
     65  CB        70.2960   53.6010   59.9900 C.3   185  LEU185      0.0297
     66  CG        69.8750   52.1700   60.3450 C.3   185  LEU185      0.0022
     67  CD1       69.0760   51.5100   59.1960 C.3   185  LEU185      0.0001
     68  CD2       70.9740   51.2510   60.9590 C.3   185  LEU185      0.0001
@<TRIPOS>BOND
     1    12    13    2
     2    12    11    1
     3    16    14    1
     4     3     4    2
     5     3     2    1
     6    14    11    1
     7    14    15    1
     8     5     6    1
     9     1     2    1
    10    11    10    1
    11    10     7   am
    12    17    15    1
    13    67    66    1
    14     7     6    1
    15     7     8    2
    16     6     9    1
    17    63    64    2
    18    63    62    1
    19    65    66    1
    20    65    62    1
    21    48    49    2
    22    48    47    1
    23    46    47    1
    24    53    54    1
    25    66    68    1
    26    62    61    1
    27    61    55   am
    28    47    50    1
    29    45    43    1
    30    50    51    1
    31    50    52    1
    32    55    54    1
    33    55    56    2
    34    54    57    1
    35    25    23   am
    36    42    41    2
    37    18    19    1
    38    23    22    1
    39    23    24    2
    40    21    20    2
    41    41    40    1
    42    57    58    1
    43    36    37    1
    44    36    35    1
    45    39    40    1
    46    39    37   am
    47    22    19    1
    48    43    40    1
    49    43    44    1
    50    58    59    1
    51    19    20    1
    52    20    26   am
    53    37    38    2
    54    35    28   am
    55    29    28    2
    56    28    27    1
    57    59    60    1
    58    26    27    1
    59    27    30    1
    60    30    31    1
    61    31    32    1
    62    32    33    1
    63    33    34    1
