@<TRIPOS>MOLECULE
tmp/6f7iA00.pdb
 199 187 0 0 0
SMALL
GASTEIGER

@<TRIPOS>ATOM
      1  N         17.8330    2.4900   31.4840 N.3     8  VAL8       -0.1231
      2  CA        16.6910    2.1090   30.6470 C.3     8  VAL8        0.1692
      3  C         15.3830    2.1570   31.4260 C.2     8  VAL8        0.2592
      4  O         15.3700    1.8360   32.6060 O.2     8  VAL8       -0.2718
      5  CB        16.9090    0.7490   29.9170 C.3     8  VAL8        0.0266
      6  CG1       18.1010    0.8330   28.9640 C.3     8  VAL8        0.0020
      7  CG2       17.0640   -0.4150   30.8880 C.3     8  VAL8        0.0020
      8  N         14.2910    2.5780   30.7740 N.am    9  ALA9       -0.1966
      9  CA        12.9850    2.6850   31.4260 C.3     9  ALA9        0.1728
     10  C         11.8050    2.3240   30.5290 C.2     9  ALA9        0.2616
     11  O         11.8040    2.6680   29.3500 O.2     9  ALA9       -0.2715
     12  CB        12.7940    4.0850   32.0080 C.3     9  ALA9        0.0334
     13  N         10.7940    1.6280   31.1120 N.am   10  LEU10      -0.1977
     14  CA         9.5160    1.2820   30.4720 C.3    10  LEU10       0.1596
     15  C          8.3800    1.8580   31.3300 C.2    10  LEU10       0.2287
     16  O          8.2440    1.5290   32.5040 O.2    10  LEU10      -0.2864
     17  CB         9.3400   -0.2270   30.2570 C.3    10  LEU10       0.0297
     18  CG         7.9610   -0.6870   29.7330 C.3    10  LEU10       0.0022
     19  CD1        7.6200   -0.0590   28.3480 C.3    10  LEU10       0.0001
     20  CD2        7.9020   -2.1870   29.6630 C.3    10  LEU10       0.0001
     21  N         17.1020    6.1660   28.6730 N.3    43  LYS43      -0.1245
     22  CA        16.4730    5.9290   27.3720 C.3    43  LYS43       0.1561
     23  C         15.0720    5.4430   27.8400 C.2    43  LYS43       0.2260
     24  O         14.9910    4.5800   28.7230 O.2    43  LYS43      -0.2867
     25  CB        17.1900    4.8180   26.6010 C.3    43  LYS43       0.0271
     26  CG        18.5110    5.2530   25.9880 C.3    43  LYS43       0.0035
     27  CD        19.1430    4.0690   25.2450 C.3    43  LYS43       0.0206
     28  CE        20.1440    3.3200   26.0910 C.3    43  LYS43       0.1093
     29  NZ        21.3040    4.1840   26.4270 N.3    43  LYS43      -0.1314
     30  N         10.9150    4.1830   27.0460 N.3    45  VAL45      -0.1245
     31  CA         9.8050    3.7270   26.2040 C.3    45  VAL45       0.1561
     32  C          8.5350    4.0820   27.0060 C.2    45  VAL45       0.2260
     33  O          8.4290    3.7280   28.1760 O.2    45  VAL45      -0.2867
     34  CB         9.8990    2.2620   25.7330 C.3    45  VAL45       0.0252
     35  CG1        8.5960    1.7950   25.0820 C.3    45  VAL45       0.0019
     36  CG2       11.0390    2.1170   24.7330 C.3    45  VAL45       0.0019
     37  N          4.4340    4.0600   26.8260 N.3    47  LEU47      -0.1245
     38  CA         3.3230    3.4500   26.0960 C.3    47  LEU47       0.1561
     39  C          1.9990    3.6750   26.7650 C.2    47  LEU47       0.2260
     40  O          1.8940    3.5130   27.9810 O.2    47  LEU47      -0.2867
     41  CB         3.5820    1.9290   25.8720 C.3    47  LEU47       0.0270
     42  CG         4.8240    1.5520   25.0420 C.3    47  LEU47       0.0019
     43  CD1        5.1210    0.0450   25.0970 C.3    47  LEU47       0.0001
     44  CD2        4.6880    1.9770   23.5870 C.3    47  LEU47       0.0001
     45  N         -2.3500   -0.2280   26.6390 N.3    50  LEU50      -0.1245
     46  CA        -1.9130   -1.5070   26.0660 C.3    50  LEU50       0.1561
     47  C         -2.8060   -2.6670   26.4650 C.2    50  LEU50       0.2260
     48  O         -3.2720   -2.7480   27.6030 O.2    50  LEU50      -0.2867
     49  CB        -0.4580   -1.8280   26.4660 C.3    50  LEU50       0.0270
     50  CG         0.6380   -0.8370   26.1330 C.3    50  LEU50       0.0019
     51  CD1        1.9900   -1.4290   26.4870 C.3    50  LEU50       0.0001
     52  CD2        0.6090   -0.4420   24.6660 C.3    50  LEU50       0.0001
     53  N         -1.4950   -8.8520   25.6080 N.3    53  TYR53      -0.1227
     54  CA        -0.4120   -9.3000   24.7220 C.3    53  TYR53       0.1736
     55  C          0.6580   -8.2000   24.5300 C.2    53  TYR53       0.2595
     56  O          1.8520   -8.4930   24.5980 O.2    53  TYR53      -0.2718
     57  CB        -0.9990   -9.8200   23.3860 C.3    53  TYR53       0.0548
     58  CG        -0.0230  -10.0310   22.2470 C.ar   53  TYR53      -0.0200
     59  CD1        0.7950  -11.1630   22.1980 C.ar   53  TYR53      -0.0009
     60  CD2        0.0200   -9.1460   21.1640 C.ar   53  TYR53      -0.0009
     61  CE1        1.6760  -11.3790   21.1330 C.ar   53  TYR53       0.0417
     62  CE2        0.8930   -9.3550   20.0930 C.ar   53  TYR53       0.0417
     63  CZ         1.7190  -10.4740   20.0810 C.ar   53  TYR53       0.1957
     64  OH         2.5840  -10.6910   19.0290 O.3    53  TYR53      -0.2866
     65  N          0.2220   -6.9390   24.3660 N.am   54  GLU54      -0.1979
     66  CA         1.0860   -5.7620   24.2100 C.3    54  GLU54       0.1602
     67  C          1.9170   -5.4970   25.4520 C.2    54  GLU54       0.2287
     68  O          3.1460   -5.3450   25.3410 O.2    54  GLU54      -0.2864
     69  CB         0.2680   -4.5310   23.7940 C.3    54  GLU54       0.0415
     70  CG        -0.2270   -4.5790   22.3420 C.3    54  GLU54       0.1163
     71  CD        -1.4160   -3.6690   22.0100 C.2    54  GLU54       0.3649
     72  OE1       -1.8280   -2.8670   22.8840 O.co2  54  GLU54      -0.2457
     73  OE2       -1.9340   -3.7500   20.8660 O.co2  54  GLU54      -0.2457
     74  N          4.6330   -8.3050   25.9050 N.3    57  ASN57      -0.1225
     75  CA         5.7270   -8.0990   24.9470 C.3    57  ASN57       0.1785
     76  C          6.6440   -6.9950   25.4230 C.2    57  ASN57       0.2597
     77  O          7.8750   -7.1800   25.4020 O.2    57  ASN57      -0.2718
     78  CB         5.1860   -7.6990   23.5650 C.3    57  ASN57       0.1169
     79  CG         4.4720   -8.7770   22.8310 C.2    57  ASN57       0.2627
     80  OD1        4.6720   -9.9750   23.0790 O.2    57  ASN57      -0.2716
     81  ND2        3.6220   -8.3570   21.8950 N.am   57  ASN57      -0.0877
     82  N          6.0430   -5.8490   25.8670 N.am   58  ALA58      -0.1979
     83  CA         6.7750   -4.6940   26.3630 C.3    58  ALA58       0.1597
     84  C          7.6190   -5.0370   27.5980 C.2    58  ALA58       0.2287
     85  O          8.8270   -4.7700   27.5870 O.2    58  ALA58      -0.2864
     86  CB         5.8300   -3.5190   26.6240 C.3    58  ALA58       0.0319
     87  N         10.5320   -7.6310   26.8980 N.3    61  GLU61      -0.1231
     88  CA        11.6290   -6.9820   26.1690 C.3    61  GLU61       0.1699
     89  C         12.4040   -6.0010   27.0430 C.2    61  GLU61       0.2592
     90  O         13.6120   -5.8430   26.8520 O.2    61  GLU61      -0.2718
     91  CB        11.1210   -6.2950   24.9120 C.3    61  GLU61       0.0402
     92  CG        10.8500   -7.2700   23.7780 C.3    61  GLU61       0.1161
     93  CD        10.4470   -6.6320   22.4600 C.2    61  GLU61       0.3649
     94  OE1       10.7010   -5.4200   22.2510 O.co2  61  GLU61      -0.2457
     95  OE2        9.8670   -7.3650   21.6280 O.co2  61  GLU61      -0.2457
     96  N         11.7270   -5.3540   28.0100 N.am   62  PHE62      -0.1976
     97  CA        12.3920   -4.4450   28.9450 C.3    62  PHE62       0.1639
     98  C         13.3900   -5.2350   29.8230 C.2    62  PHE62       0.2290
     99  O         14.5150   -4.7910   30.0540 O.2    62  PHE62      -0.2864
    100  CB        11.3560   -3.7270   29.8180 C.3    62  PHE62       0.0560
    101  CG        11.9190   -3.0620   31.0430 C.ar   62  PHE62      -0.0200
    102  CD1       12.6100   -1.8570   30.9470 C.ar   62  PHE62      -0.0042
    103  CD2       11.7470   -3.6210   32.2960 C.ar   62  PHE62      -0.0042
    104  CE1       13.1330   -1.2290   32.0810 C.ar   62  PHE62      -0.0003
    105  CE2       12.2860   -2.9980   33.4310 C.ar   62  PHE62      -0.0003
    106  CZ        12.9640   -1.7980   33.3120 C.ar   62  PHE62      -0.0000
    107  N         16.8990   -6.1820   28.5720 N.3    65  LEU65      -0.1245
    108  CA        17.8320   -5.0560   28.5780 C.3    65  LEU65       0.1561
    109  C         18.5930   -4.9810   29.8890 C.2    65  LEU65       0.2260
    110  O         19.5450   -4.2160   29.9940 O.2    65  LEU65      -0.2867
    111  CB        17.0550   -3.7160   28.4440 C.3    65  LEU65       0.0270
    112  CG        16.2070   -3.4280   27.2050 C.3    65  LEU65       0.0019
    113  CD1       15.4660   -2.1670   27.4000 C.3    65  LEU65       0.0001
    114  CD2       17.0400   -3.3100   25.9570 C.3    65  LEU65       0.0001
    115  N         21.0570   -2.5190   23.2710 N.3   215  ARG215     -0.1245
    116  CA        20.1680   -1.6540   24.0430 C.3   215  ARG215      0.1563
    117  C         19.8480   -0.3660   23.3250 C.2   215  ARG215      0.2260
    118  O         18.6690    0.0040   23.2240 O.2   215  ARG215     -0.2867
    119  CB        20.7020   -1.3800   25.4810 C.3   215  ARG215      0.0307
    120  CG        20.8280   -2.6300   26.3450 C.3   215  ARG215      0.0489
    121  CD        21.2540   -2.3610   27.7880 C.3   215  ARG215      0.2205
    122  NE        22.4730   -1.5540   27.8940 N.pl3 215  ARG215     -0.0865
    123  CZ        23.6920   -2.0310   28.1350 C.cat 215  ARG215      0.5346
    124  NH1       24.7220   -1.2080   28.2300 N.pl3 215  ARG215      0.1354
    125  NH2       23.8940   -3.3330   28.2510 N.pl3 215  ARG215      0.1354
    126  N         17.7660   -1.1000   19.8860 N.3   218  GLN218     -0.1231
    127  CA        16.3810   -1.4360   20.1690 C.3   218  GLN218      0.1698
    128  C         15.5500   -0.2120   20.5580 C.2   218  GLN218      0.2592
    129  O         14.4350   -0.0290   20.0640 O.2   218  GLN218     -0.2718
    130  CB        16.3070   -2.5710   21.2040 C.3   218  GLN218      0.0381
    131  CG        16.5790   -3.9670   20.5900 C.3   218  GLN218      0.0905
    132  CD        15.5850   -4.3360   19.4920 C.2   218  GLN218      0.2608
    133  OE1       15.8230   -4.1530   18.2940 O.2   218  GLN218     -0.2717
    134  NE2       14.4290   -4.8300   19.8780 N.am  218  GLN218     -0.0878
    135  N         16.1440    0.6910   21.3260 N.am  219  TRP219     -0.1976
    136  CA        15.4450    1.9030   21.7000 C.3   219  TRP219      0.1640
    137  C         15.3630    2.9000   20.5330 C.2   219  TRP219      0.2290
    138  O         14.3230    3.5310   20.3600 O.2   219  TRP219     -0.2864
    139  CB        16.0620    2.4910   22.9710 C.3   219  TRP219      0.0576
    140  CG        15.5730    3.8580   23.2880 C.ar  219  TRP219      0.0006
    141  CD1       14.4150    4.1950   23.9240 C.ar  219  TRP219      0.0946
    142  CD2       16.1870    5.0780   22.8880 C.ar  219  TRP219      0.0152
    143  NE1       14.2720    5.5550   23.9500 N.ar  219  TRP219     -0.2442
    144  CE2       15.3510    6.1280   23.3260 C.ar  219  TRP219      0.0810
    145  CE3       17.3810    5.3900   22.2040 C.ar  219  TRP219      0.0012
    146  CZ2       15.6720    7.4790   23.1100 C.ar  219  TRP219      0.0191
    147  CZ3       17.6950    6.7230   21.9810 C.ar  219  TRP219      0.0001
    148  CH2       16.8460    7.7520   22.4290 C.ar  219  TRP219      0.0015
    149  N         12.6770    2.0750   17.7990 N.3   222  ALA222     -0.1245
    150  CA        11.3010    2.3480   18.1910 C.3   222  ALA222      0.1562
    151  C         10.9730    3.8440   18.2810 C.2   222  ALA222      0.2260
    152  O          9.8490    4.1800   18.6300 O.2   222  ALA222     -0.2867
    153  CB        11.0180    1.6710   19.5200 C.3   222  ALA222      0.0290
    154  N          0.9750    0.7290   17.9300 N.3   315  GLN315     -0.1245
    155  CA         1.3080   -0.7070   18.0090 C.3   315  GLN315      0.1566
    156  C          0.2590   -1.6170   17.2950 C.2   315  GLN315      0.2260
    157  O          0.5330   -2.7850   17.0430 O.2   315  GLN315     -0.2867
    158  CB         1.5170   -1.1350   19.4750 C.3   315  GLN315      0.0367
    159  CG         0.2350   -1.3020   20.3020 C.3   315  GLN315      0.0905
    160  CD        -0.4210   -0.0420   20.8130 C.2   315  GLN315      0.2608
    161  OE1       -0.0340    1.0720   20.5000 O.2   315  GLN315     -0.2717
    162  NE2       -1.4400   -0.1840   21.6400 N.am  315  GLN315     -0.0878
    163  N         -0.8410   -0.9980   14.2520 N.3   317  LEU317     -0.1245
    164  CA        -0.5020   -0.8910   12.8380 C.3   317  LEU317      0.1561
    165  C          0.2460   -2.1610   12.3860 C.2   317  LEU317      0.2260
    166  O          1.3620   -2.4280   12.8410 O.2   317  LEU317     -0.2867
    167  CB         0.3500    0.3820   12.6230 C.3   317  LEU317      0.0270
    168  CG         0.5140    0.9170   11.2180 C.3   317  LEU317      0.0019
    169  CD1       -0.7560    1.6370   10.7370 C.3   317  LEU317      0.0001
    170  CD2        1.7120    1.8380   11.1470 C.3   317  LEU317      0.0001
    171  N          6.8550    2.8260   17.7570 N.3   351  ILE351     -0.1231
    172  CA         6.7810    1.4230   18.2140 C.3   351  ILE351      0.1692
    173  C          6.2420    0.4370   17.1400 C.2   351  ILE351      0.2591
    174  O          6.4280   -0.7850   17.2860 O.2   351  ILE351     -0.2718
    175  CB         6.0010    1.3070   19.5690 C.3   351  ILE351      0.0266
    176  CG1        6.4680    0.0920   20.4290 C.3   351  ILE351      0.0019
    177  CG2        4.5000    1.3130   19.3810 C.3   351  ILE351      0.0020
    178  CD1        7.7780    0.3050   21.2710 C.3   351  ILE351      0.0001
    179  N          5.5710    0.9560   16.0780 N.am  352  ALA352     -0.1980
    180  CA         5.0330    0.1330   14.9780 C.3   352  ALA352      0.1597
    181  C          6.1610   -0.5360   14.1640 C.2   352  ALA352      0.2287
    182  O          5.9240   -1.5770   13.5560 O.2   352  ALA352     -0.2864
    183  CB         4.1340    0.9640   14.0710 C.3   352  ALA352      0.0319
    184  N          8.5640   -2.2110   15.3340 N.3   354  LEU354     -0.1231
    185  CA         8.8970   -3.4580   16.0120 C.3   354  LEU354      0.1693
    186  C          8.2150   -4.6860   15.3990 C.2   354  LEU354      0.2592
    187  O          8.9500   -5.6190   15.0710 O.2   354  LEU354     -0.2718
    188  CB         8.6790   -3.3700   17.5270 C.3   354  LEU354      0.0284
    189  CG         9.9240   -2.9510   18.3720 C.3   354  LEU354      0.0019
    190  CD1       10.6380   -1.7050   17.8080 C.3   354  LEU354      0.0001
    191  CD2        9.5520   -2.7020   19.8020 C.3   354  LEU354      0.0001
    192  N          6.8730   -4.6890   15.1830 N.am  355  ASP355     -0.1974
    193  CA         6.1290   -5.8300   14.6010 C.3   355  ASP355      0.1709
    194  C          6.2230   -7.1050   15.4630 C.2   355  ASP355      0.2293
    195  O          5.7180   -8.1650   15.0840 O.2   355  ASP355     -0.2864
    196  CB         6.5520   -6.1220   13.1390 C.3   355  ASP355      0.1436
    197  CG         6.2590   -5.0070   12.1590 C.2   355  ASP355      0.3671
    198  OD1        5.0870   -4.5610   12.0970 O.co2 355  ASP355     -0.2456
    199  OD2        7.1840   -4.6240   11.4050 O.co2 355  ASP355     -0.2456
@<TRIPOS>BOND
     1   169   168    1
     2   170   168    1
     3   168   167    1
     4   199   197   ar
     5   198   197   ar
     6   197   196    1
     7   165   164    1
     8   165   166    2
     9   167   164    1
    10   164   163    1
    11   196   193    1
    12   182   181    2
    13   183   180    1
    14   181   180    1
    15   193   192    1
    16   193   194    1
    17   180   179    1
    18   187   186    2
    19   195   194    2
    20   192   186   am
    21   184   185    1
    22   186   185    1
    23   185   188    1
    24   179   173   am
    25   157   156    2
    26   173   174    2
    27   173   172    1
    28   156   155    1
    29   188   189    1
    30   171   172    1
    31   149   150    1
    32   190   189    1
    33   154   155    1
    34   155   158    1
    35   150   151    1
    36   150   153    1
    37   172   175    1
    38   151   152    2
    39   133   132    2
    40   189   191    1
    41    64    63    1
    42   177   175    1
    43   158   159    1
    44   132   134   am
    45   132   131    1
    46   175   176    1
    47   126   127    1
    48   129   128    2
    49    63    62   ar
    50    63    61   ar
    51    62    60   ar
    52   127   128    1
    53   127   130    1
    54   159   160    1
    55   138   137    2
    56   176   178    1
    57   161   160    2
    58   137   136    1
    59   128   135   am
    60   131   130    1
    61   160   162   am
    62    73    71   ar
    63    61    59   ar
    64    60    58   ar
    65   135   136    1
    66    95    93   ar
    67   136   139    1
    68    81    79   am
    69   147   145   ar
    70   147   148   ar
    71    71    70    1
    72    71    72   ar
    73    59    58   ar
    74   145   142   ar
    75    58    57    1
    76    94    93   ar
    77    70    69    1
    78   148   146   ar
    79    93    92    1
    80    79    80    2
    81    79    78    1
    82   142   140   ar
    83   142   144   ar
    84   139   140    1
    85   146   144   ar
    86   118   117    2
    87   115   116    1
    88   140   141   ar
    89   117   116    1
    90   144   143   ar
    91    57    54    1
    92    78    75    1
    93    44    42    1
    94    92    91    1
    95    69    66    1
    96   141   143   ar
    97   116   119    1
    98    66    65    1
    99    66    67    1
   100    65    55   am
   101    55    56    2
   102    55    54    1
   103    52    50    1
   104    54    53    1
   105    36    34    1
   106    91    88    1
   107    75    76    1
   108    75    74    1
   109    42    43    1
   110    42    41    1
   111    35    34    1
   112    27    26    1
   113    27    28    1
   114    68    67    2
   115    77    76    2
   116    76    82   am
   117   119   120    1
   118    34    31    1
   119    82    83    1
   120    41    38    1
   121   114   112    1
   122    26    25    1
   123    46    47    1
   124    46    49    1
   125    46    45    1
   126    28    29    1
   127    38    39    1
   128    38    37    1
   129    50    49    1
   130    50    51    1
   131    88    87    1
   132    88    89    1
   133    31    32    1
   134    31    30    1
   135   120   121    1
   136    83    86    1
   137    83    84    1
   138    47    48    2
   139    25    22    1
   140    39    40    2
   141    90    89    2
   142    32    33    2
   143    89    96   am
   144   112   113    1
   145   112   111    1
   146    22    23    1
   147    22    21    1
   148    85    84    2
   149   121   122    1
   150    23    24    2
   151   122   123    2
   152    96    97    1
   153   123   124    1
   154   123   125    1
   155    19    18    1
   156   111   108    1
   157   107   108    1
   158   108   109    1
   159    97   100    1
   160    97    98    1
   161     6     5    1
   162    11    10    2
   163    20    18    1
   164    18    17    1
   165   100   101    1
   166    98    99    2
   167   109   110    2
   168     5     2    1
   169     5     7    1
   170    17    14    1
   171    14    13    1
   172    14    15    1
   173    10    13   am
   174    10     9    1
   175     2     3    1
   176     2     1    1
   177     8     9    1
   178     8     3   am
   179   102   101   ar
   180   102   104   ar
   181   101   103   ar
   182    15    16    2
   183     9    12    1
   184     3     4    2
   185   104   106   ar
   186   103   105   ar
   187   106   105   ar
