@<TRIPOS>MOLECULE
tmp/6f7iB00.pdb
 216 204 0 0 0
SMALL
GASTEIGER

@<TRIPOS>ATOM
      1  N          5.2850   -0.7580   73.5080 N.3     9  VAL9       -0.1231
      2  CA         5.1860   -2.1840   73.8730 C.3     9  VAL9        0.1692
      3  C          5.9700   -3.0640   72.9050 C.2     9  VAL9        0.2592
      4  O          6.0070   -2.7740   71.7060 O.2     9  VAL9       -0.2718
      5  CB         3.7050   -2.6490   74.0550 C.3     9  VAL9        0.0266
      6  CG1        3.0360   -1.8870   75.2180 C.3     9  VAL9        0.0020
      7  CG2        2.8930   -2.5110   72.7640 C.3     9  VAL9        0.0020
      8  N          6.6020   -4.1360   73.4200 N.am   10  ALA10      -0.1966
      9  CA         7.3990   -5.0470   72.5890 C.3    10  ALA10       0.1728
     10  C          7.3200   -6.5080   72.9900 C.2    10  ALA10       0.2616
     11  O          7.2800   -6.8080   74.1720 O.2    10  ALA10      -0.2715
     12  CB         8.8470   -4.5970   72.5600 C.3    10  ALA10       0.0334
     13  N          7.2770   -7.4190   71.9910 N.am   11  LEU11      -0.1977
     14  CA         7.3090   -8.8800   72.1530 C.3    11  LEU11       0.1596
     15  C          8.5160   -9.4220   71.3690 C.2    11  LEU11       0.2287
     16  O          8.6320   -9.2310   70.1550 O.2    11  LEU11      -0.2864
     17  CB         6.0060   -9.5690   71.6970 C.3    11  LEU11       0.0297
     18  CG         6.0010  -11.1170   71.6990 C.3    11  LEU11       0.0022
     19  CD1        6.2720  -11.6970   73.0980 C.3    11  LEU11       0.0001
     20  CD2        4.7110  -11.6410   71.1900 C.3    11  LEU11       0.0001
     21  N          8.0000   -1.2830   77.2880 N.3    44  LYS44      -0.1245
     22  CA         7.6880   -2.3530   78.2250 C.3    44  LYS44       0.1561
     23  C          7.9530   -3.5900   77.3200 C.2    44  LYS44       0.2260
     24  O          7.4720   -3.6240   76.1750 O.2    44  LYS44      -0.2867
     25  CB         6.2140   -2.2980   78.6490 C.3    44  LYS44       0.0271
     26  CG         5.9100   -1.2040   79.6450 C.3    44  LYS44       0.0035
     27  CD         4.4400   -1.2120   80.0070 C.3    44  LYS44       0.0206
     28  CE         3.6300   -0.2380   79.1850 C.3    44  LYS44       0.1093
     29  NZ         4.0390    1.1720   79.4630 N.3    44  LYS44      -0.1314
     30  N          8.3120   -7.9500   76.6430 N.3    46  VAL46      -0.1245
     31  CA         8.1160   -9.3540   76.9870 C.3    46  VAL46       0.1561
     32  C          9.1490  -10.1130   76.1370 C.2    46  VAL46       0.2260
     33  O          9.2260   -9.9090   74.9300 O.2    46  VAL46      -0.2867
     34  CB         6.6600   -9.8540   76.8510 C.3    46  VAL46       0.0252
     35  CG1        6.5820  -11.3760   76.9450 C.3    46  VAL46       0.0019
     36  CG2        5.7920   -9.2090   77.9330 C.3    46  VAL46       0.0019
     37  N         10.6780  -13.8510   75.4110 N.3    48  LEU48      -0.1245
     38  CA        10.3670  -15.2770   75.5670 C.3    48  LEU48       0.1561
     39  C         11.2890  -16.1670   74.7840 C.2    48  LEU48       0.2260
     40  O         11.5620  -15.8900   73.6190 O.2    48  LEU48      -0.2867
     41  CB         8.8770  -15.5810   75.2170 C.3    48  LEU48       0.0270
     42  CG         7.8190  -14.8520   76.0610 C.3    48  LEU48       0.0019
     43  CD1        6.4250  -15.0080   75.4740 C.3    48  LEU48       0.0001
     44  CD2        7.8040  -15.3490   77.4960 C.3    48  LEU48       0.0001
     45  N          9.6140  -21.2470   72.4050 N.3    51  LEU51      -0.1245
     46  CA         8.1620  -21.4320   72.5010 C.3    51  LEU51       0.1561
     47  C          7.6460  -22.4430   71.4930 C.2    51  LEU51       0.2260
     48  O          8.1130  -22.4830   70.3540 O.2    51  LEU51      -0.2867
     49  CB         7.4130  -20.0930   72.3160 C.3    51  LEU51       0.0270
     50  CG         7.7310  -18.9290   73.2380 C.3    51  LEU51       0.0019
     51  CD1        6.7870  -17.7900   72.9670 C.3    51  LEU51       0.0001
     52  CD2        7.6560  -19.3350   74.7050 C.3    51  LEU51       0.0001
     53  N          1.4970  -23.4310   70.0720 N.3    54  TYR54      -0.1227
     54  CA         0.4100  -22.9130   70.9120 C.3    54  TYR54       0.1736
     55  C          0.8670  -21.6890   71.7410 C.2    54  TYR54       0.2595
     56  O          0.1390  -20.6920   71.8260 O.2    54  TYR54      -0.2718
     57  CB        -0.1680  -24.0680   71.7830 C.3    54  TYR54       0.0548
     58  CG        -1.0610  -23.6610   72.9460 C.ar   54  TYR54      -0.0200
     59  CD1       -2.3940  -23.2970   72.7400 C.ar   54  TYR54      -0.0009
     60  CD2       -0.6010  -23.7290   74.2630 C.ar   54  TYR54      -0.0009
     61  CE1       -3.2240  -22.9380   73.8110 C.ar   54  TYR54       0.0417
     62  CE2       -1.4230  -23.3800   75.3400 C.ar   54  TYR54       0.0417
     63  CZ        -2.7310  -22.9810   75.1080 C.ar   54  TYR54       0.1957
     64  OH        -3.5250  -22.6250   76.1760 O.3    54  TYR54      -0.2866
     65  N          2.1010  -21.7570   72.2990 N.am   55  GLU55      -0.1979
     66  CA         2.7190  -20.6970   73.0910 C.3    55  GLU55       0.1602
     67  C          2.9760  -19.4450   72.2670 C.2    55  GLU55       0.2287
     68  O          2.5920  -18.3520   72.7030 O.2    55  GLU55      -0.2864
     69  CB         3.9970  -21.1920   73.7650 C.3    55  GLU55       0.0415
     70  CG         3.7280  -22.1360   74.9230 C.3    55  GLU55       0.1163
     71  CD         4.8830  -23.0190   75.3360 C.2    55  GLU55       0.3649
     72  OE1        6.0060  -22.8400   74.8120 O.co2  55  GLU55      -0.2457
     73  OE2        4.6630  -23.8850   76.2110 O.co2  55  GLU55      -0.2457
     74  N         -0.3790  -17.6790   71.3680 N.3    58  ASN58      -0.1225
     75  CA        -0.9090  -16.9840   72.5490 C.3    58  ASN58       0.1785
     76  C         -0.1810  -15.6720   72.7750 C.2    58  ASN58       0.2597
     77  O         -0.8220  -14.6420   72.9970 O.2    58  ASN58      -0.2718
     78  CB        -0.7670  -17.8370   73.8060 C.3    58  ASN58       0.1169
     79  CG        -1.6350  -19.0640   73.8700 C.2    58  ASN58       0.2627
     80  OD1       -2.6750  -19.1680   73.2170 O.2    58  ASN58      -0.2716
     81  ND2       -1.2190  -20.0120   74.6930 N.am   58  ASN58      -0.0877
     82  N          1.1670  -15.7160   72.7030 N.am   59  ALA59      -0.1979
     83  CA         2.0270  -14.5570   72.8850 C.3    59  ALA59       0.1597
     84  C          1.7520  -13.4640   71.8260 C.2    59  ALA59       0.2287
     85  O          1.5010  -12.3180   72.2040 O.2    59  ALA59      -0.2864
     86  CB         3.4960  -14.9800   72.8870 C.3    59  ALA59       0.0319
     87  N         -1.8740  -11.8810   72.0570 N.3    62  GLU62      -0.1231
     88  CA        -1.9730  -10.9750   73.2070 C.3    62  GLU62       0.1699
     89  C         -1.1790   -9.6780   73.0030 C.2    62  GLU62       0.2592
     90  O         -1.5810   -8.6280   73.5040 O.2    62  GLU62      -0.2718
     91  CB        -1.5610  -11.6690   74.4950 C.3    62  GLU62       0.0402
     92  CG        -2.6410  -12.6050   75.0080 C.3    62  GLU62       0.1161
     93  CD        -2.4000  -13.2370   76.3600 C.2    62  GLU62       0.3649
     94  OE1       -1.5800  -12.7030   77.1400 O.co2  62  GLU62      -0.2457
     95  OE2       -3.0300  -14.2810   76.6370 O.co2  62  GLU62      -0.2457
     96  N         -0.0610   -9.7460   72.2670 N.am   63  PHE63      -0.1976
     97  CA         0.7340   -8.5620   71.9440 C.3    63  PHE63       0.1639
     98  C         -0.1070   -7.6020   71.0600 C.2    63  PHE63       0.2290
     99  O         -0.1070   -6.3900   71.2840 O.2    63  PHE63      -0.2864
    100  CB         2.0190   -8.9730   71.2100 C.3    63  PHE63       0.0560
    101  CG         2.7120   -7.8420   70.4940 C.ar   63  PHE63      -0.0200
    102  CD1        3.4460   -6.8930   71.2030 C.ar   63  PHE63      -0.0042
    103  CD2        2.6530   -7.7350   69.1060 C.ar   63  PHE63      -0.0042
    104  CE1        4.0950   -5.8490   70.5360 C.ar   63  PHE63      -0.0003
    105  CE2        3.2940   -6.6860   68.4440 C.ar   63  PHE63      -0.0003
    106  CZ         4.0220   -5.7560   69.1620 C.ar   63  PHE63      -0.0000
    107  N         -2.7060   -5.1960   72.5630 N.3    66  LEU66      -0.1245
    108  CA        -2.1050   -4.0210   73.2130 C.3    66  LEU66       0.1561
    109  C         -1.9690   -2.8590   72.2280 C.2    66  LEU66       0.2260
    110  O         -1.6560   -1.7400   72.6360 O.2    66  LEU66      -0.2867
    111  CB        -0.6700   -4.3550   73.6980 C.3    66  LEU66       0.0270
    112  CG        -0.4480   -5.4340   74.7400 C.3    66  LEU66       0.0019
    113  CD1        1.0100   -5.6840   74.8890 C.3    66  LEU66       0.0001
    114  CD2       -1.0090   -5.0240   76.0760 C.3    66  LEU66       0.0001
    115  N         -2.6700   -1.9990   79.7000 N.3   224  ARG224     -0.1245
    116  CA        -1.3530   -2.3230   79.1280 C.3   224  ARG224      0.1563
    117  C         -0.2900   -2.4700   80.1800 C.2   224  ARG224      0.2260
    118  O          0.4600   -3.4450   80.1370 O.2   224  ARG224     -0.2867
    119  CB        -0.9140   -1.3240   78.0380 C.3   224  ARG224      0.0307
    120  CG        -1.8260   -1.3130   76.8070 C.3   224  ARG224      0.0489
    121  CD        -1.3370   -0.3860   75.7000 C.3   224  ARG224      0.2205
    122  NE        -1.1080    0.9750   76.1910 N.pl3 224  ARG224     -0.0865
    123  CZ        -1.9510    1.9940   76.0400 C.cat 224  ARG224      0.5346
    124  NH1       -3.0810    1.8360   75.3620 N.pl3 224  ARG224      0.1354
    125  NH2       -1.6570    3.1830   76.5410 N.pl3 224  ARG224      0.1354
    126  N         -1.0940   -5.6960   82.4970 N.3   227  GLN227     -0.1231
    127  CA        -0.7900   -6.9290   81.7930 C.3   227  GLN227      0.1698
    128  C          0.7200   -7.1880   81.7080 C.2   227  GLN227      0.2592
    129  O          1.1660   -8.3090   81.9400 O.2   227  GLN227     -0.2718
    130  CB        -1.4920   -6.9520   80.4300 C.3   227  GLN227      0.0381
    131  CG        -2.9870   -7.2870   80.5000 C.3   227  GLN227      0.0905
    132  CD        -3.2360   -8.6650   81.0580 C.2   227  GLN227      0.2608
    133  OE1       -3.5090   -8.8220   82.2500 O.2   227  GLN227     -0.2717
    134  NE2       -3.1210   -9.7020   80.2200 N.am  227  GLN227     -0.0878
    135  N          1.5080   -6.1450   81.5170 N.am  228  TRP228     -0.1976
    136  CA         2.9440   -6.3120   81.5040 C.3   228  TRP228      0.1640
    137  C          3.5320   -6.5120   82.9410 C.2   228  TRP228      0.2290
    138  O          4.4310   -7.3300   83.0910 O.2   228  TRP228     -0.2864
    139  CB         3.6010   -5.1770   80.7260 C.3   228  TRP228      0.0576
    140  CG         5.0810   -5.1400   80.8840 C.ar  228  TRP228      0.0006
    141  CD1        6.0060   -5.8770   80.2010 C.ar  228  TRP228      0.0946
    142  CD2        5.8050   -4.3840   81.8560 C.ar  228  TRP228      0.0152
    143  NE1        7.2650   -5.6160   80.6850 N.ar  228  TRP228     -0.2442
    144  CE2        7.1740   -4.6910   81.6900 C.ar  228  TRP228      0.0810
    145  CE3        5.4260   -3.4610   82.8500 C.ar  228  TRP228      0.0012
    146  CZ2        8.1660   -4.1190   82.4820 C.ar  228  TRP228      0.0191
    147  CZ3        6.4140   -2.8740   83.6220 C.ar  228  TRP228      0.0001
    148  CH2        7.7670   -3.2100   83.4430 C.ar  228  TRP228      0.0015
    149  N          3.0170  -10.0710   84.3910 N.3   231  ALA231     -0.1245
    150  CA         3.9010  -11.0920   83.8370 C.3   231  ALA231      0.1562
    151  C          5.3430  -10.9230   84.2480 C.2   231  ALA231      0.2260
    152  O          6.1870  -11.7040   83.8170 O.2   231  ALA231     -0.2867
    153  CB         3.8090  -11.0820   82.3350 C.3   231  ALA231      0.0290
    154  N          6.4210  -20.9250   81.2230 N.3   324  GLN324     -0.1245
    155  CA         5.0740  -20.9980   80.6240 C.3   324  GLN324      0.1566
    156  C          4.4730  -22.4460   80.6650 C.2   324  GLN324      0.2260
    157  O          3.2900  -22.6200   80.4380 O.2   324  GLN324     -0.2867
    158  CB         5.0970  -20.4440   79.1960 C.3   324  GLN324      0.0367
    159  CG         5.7130  -21.3810   78.1420 C.3   324  GLN324      0.0905
    160  CD         7.2190  -21.4240   78.0760 C.2   324  GLN324      0.2608
    161  OE1        7.9240  -20.8540   78.8910 O.2   324  GLN324     -0.2717
    162  NE2        7.7560  -22.0980   77.0920 N.am  324  GLN324     -0.0878
    163  N          4.4360  -24.2620   83.4090 N.3   326  LEU326     -0.1231
    164  CA         3.9320  -24.3970   84.7650 C.3   326  LEU326      0.1693
    165  C          2.4030  -24.2270   84.7670 C.2   326  LEU326      0.2591
    166  O          1.8970  -23.1420   84.4690 O.2   326  LEU326     -0.2718
    167  CB         4.6270  -23.3530   85.6590 C.3   326  LEU326      0.0284
    168  CG         4.5430  -23.5190   87.1730 C.3   326  LEU326      0.0019
    169  CD1        5.4940  -24.6000   87.6620 C.3   326  LEU326      0.0001
    170  CD2        4.8430  -22.2100   87.8570 C.3   326  LEU326      0.0001
    171  N          1.6720  -25.3130   85.0680 N.am  327  LYS327     -0.1980
    172  CA         0.2060  -25.3130   85.1160 C.3   327  LYS327      0.1596
    173  C         -0.3170  -24.9640   86.5200 C.2   327  LYS327      0.2287
    174  O         -1.3350  -24.2860   86.6520 O.2   327  LYS327     -0.2864
    175  CB        -0.3530  -26.6710   84.6350 C.3   327  LYS327      0.0298
    176  CG        -0.3880  -26.8180   83.0990 C.3   327  LYS327      0.0038
    177  CD         0.6700  -27.8070   82.5920 C.3   327  LYS327      0.0206
    178  CE         1.0070  -27.6120   81.1270 C.3   327  LYS327      0.1093
    179  NZ         2.4440  -27.9200   80.8250 N.3   327  LYS327     -0.1314
    180  N          5.8950  -15.0960   83.4410 N.3   360  ILE360     -0.1231
    181  CA         4.8540  -15.3980   82.4360 C.3   360  ILE360      0.1692
    182  C          3.8570  -16.5200   82.8700 C.2   360  ILE360      0.2591
    183  O          2.7740  -16.6270   82.2770 O.2   360  ILE360     -0.2718
    184  CB         5.4690  -15.6780   81.0300 C.3   360  ILE360      0.0266
    185  CG1        4.4940  -15.3100   79.8730 C.3   360  ILE360      0.0019
    186  CG2        6.0060  -17.1080   80.8940 C.3   360  ILE360      0.0020
    187  CD1        4.4410  -13.7680   79.4970 C.3   360  ILE360      0.0001
    188  N          4.2190  -17.3310   83.8850 N.am  361  ALA361     -0.1980
    189  CA         3.3620  -18.4080   84.4010 C.3   361  ALA361      0.1597
    190  C          2.0960  -17.8470   85.0740 C.2   361  ALA361      0.2287
    191  O          1.0910  -18.5460   85.1380 O.2   361  ALA361     -0.2864
    192  CB         4.1390  -19.2970   85.3710 C.3   361  ALA361      0.0319
    193  N          0.0740  -15.7490   83.8690 N.3   363  LEU363     -0.1231
    194  CA        -0.9290  -15.5970   82.8110 C.3   363  LEU363      0.1693
    195  C         -1.7800  -16.8620   82.6370 C.2   363  LEU363      0.2592
    196  O         -1.3810  -17.7970   81.9340 O.2   363  LEU363     -0.2718
    197  CB        -0.2550  -15.1810   81.4940 C.3   363  LEU363      0.0284
    198  CG        -0.1140  -13.6760   81.2210 C.3   363  LEU363      0.0019
    199  CD1        0.4880  -12.9160   82.3740 C.3   363  LEU363      0.0001
    200  CD2        0.7120  -13.4330   79.9830 C.3   363  LEU363      0.0001
    201  N         -2.9370  -16.9080   83.3180 N.am  364  ASP364     -0.1960
    202  CA        -3.8640  -18.0520   83.2690 C.3   364  ASP364      0.1840
    203  C         -4.7110  -17.9340   81.9710 C.2   364  ASP364      0.2621
    204  O         -5.9560  -17.9460   81.9920 O.2   364  ASP364     -0.2715
    205  CB        -4.7110  -18.1210   84.5680 C.3   364  ASP364      0.1450
    206  CG        -3.8800  -18.0390   85.8510 C.2   364  ASP364      0.3671
    207  OD1       -3.1170  -18.9980   86.1310 O.co2 364  ASP364     -0.2456
    208  OD2       -3.9810  -17.0070   86.5650 O.co2 364  ASP364     -0.2456
    209  N         -3.9720  -17.7920   80.8330 N.am  365  MET365     -0.1977
    210  CA        -4.4460  -17.5740   79.4610 C.3   365  MET365      0.1605
    211  C         -3.6820  -18.5000   78.4930 C.2   365  MET365      0.2287
    212  O         -2.4680  -18.3560   78.3060 O.2   365  MET365     -0.2864
    213  CB        -4.2210  -16.0970   79.0470 C.3   365  MET365      0.0413
    214  CG        -4.7890  -15.0650   80.0140 C.3   365  MET365      0.0598
    215  SD        -3.7500  -13.5820   80.1660 S.3   365  MET365     -0.1393
    216  CE        -4.4220  -12.8750   81.6810 C.3   365  MET365      0.0692
@<TRIPOS>BOND
     1   105   103   ar
     2   105   106   ar
     3   103   101   ar
     4   106   104   ar
     5    53    54    1
     6    16    15    2
     7    48    47    2
     8   101   102   ar
     9   101   100    1
    10   104   102   ar
    11    54    55    1
    12    54    57    1
    13    98    99    2
    14    98    97    1
    15    20    18    1
    16   100    97    1
    17    74    75    1
    18    15    14    1
    19    47    46    1
    20    17    18    1
    21    17    14    1
    22    18    19    1
    23     4     3    2
    24    55    56    2
    25    55    65   am
    26    57    58    1
    27    84    85    2
    28    84    83    1
    29    97    96    1
    30    13    14    1
    31    13    10   am
    32    87    88    1
    33   109   110    2
    34   109   108    1
    35    67    68    2
    36    67    66    1
    37    96    89   am
    38    65    66    1
    39    49    46    1
    40    49    50    1
    41    45    46    1
    42    75    76    1
    43    75    78    1
    44    12     9    1
    45   107   108    1
    46     9    10    1
    47     9     8    1
    48    82    76   am
    49    82    83    1
    50    59    58   ar
    51    59    61   ar
    52     7     5    1
    53    76    77    2
    54    83    86    1
    55     3     8   am
    56     3     2    1
    57    58    60   ar
    58    51    50    1
    59    10    11    2
    60    89    88    1
    61    89    90    2
    62    66    69    1
    63    88    91    1
    64   108   111    1
    65    80    79    2
    66    50    52    1
    67     1     2    1
    68    40    39    2
    69   111   112    1
    70    69    70    1
    71    78    79    1
    72    61    63   ar
    73    79    81   am
    74     2     5    1
    75     5     6    1
    76    60    62   ar
    77    91    92    1
    78   112   113    1
    79   112   114    1
    80    39    38    1
    81    72    71   ar
    82    70    71    1
    83    33    32    2
    84    92    93    1
    85    63    62   ar
    86    63    64    1
    87    41    38    1
    88    41    42    1
    89    71    73   ar
    90   124   123    1
    91    37    38    1
    92    43    42    1
    93   121   122    1
    94   121   120    1
    95   123   122    2
    96   123   125    1
    97    42    44    1
    98    32    31    1
    99    24    23    2
   100    93    95   ar
   101    93    94   ar
   102    30    31    1
   103   120   119    1
   104    34    35    1
   105    34    31    1
   106    34    36    1
   107   162   160   am
   108    21    22    1
   109    23    22    1
   110   119   116    1
   111   160   159    1
   112   160   161    2
   113   159   158    1
   114    22    25    1
   115   212   211    2
   116   211   210    1
   117    25    26    1
   118   213   210    1
   119   213   214    1
   120   116   115    1
   121   116   117    1
   122    28    29    1
   123    28    27    1
   124   158   155    1
   125   210   209    1
   126   187   185    1
   127    26    27    1
   128   185   184    1
   129   200   198    1
   130   214   215    1
   131   118   117    2
   132   215   216    1
   133   141   143   ar
   134   141   140   ar
   135   134   132   am
   136   130   131    1
   137   130   127    1
   138   157   156    2
   139   131   132    1
   140   155   156    1
   141   155   154    1
   142   143   144   ar
   143   139   140    1
   144   139   136    1
   145   179   178    1
   146   209   203   am
   147   140   142   ar
   148   186   184    1
   149   184   181    1
   150   132   133    2
   151   178   177    1
   152   198   197    1
   153   198   199    1
   154   197   194    1
   155   136   135    1
   156   136   137    1
   157   135   128   am
   158   144   142   ar
   159   144   146   ar
   160   128   127    1
   161   128   129    2
   162   127   126    1
   163   142   145   ar
   164   196   195    2
   165   203   204    2
   166   203   202    1
   167   183   182    2
   168   153   150    1
   169   181   182    1
   170   181   180    1
   171   146   148   ar
   172   177   176    1
   173   195   194    1
   174   195   201   am
   175   194   193    1
   176   145   147   ar
   177   182   188   am
   178   137   138    2
   179   176   175    1
   180   202   201    1
   181   202   205    1
   182   163   164    1
   183   148   147   ar
   184   152   151    2
   185   150   151    1
   186   150   149    1
   187   188   189    1
   188   189   190    1
   189   189   192    1
   190   166   165    2
   191   205   206    1
   192   175   172    1
   193   164   165    1
   194   164   167    1
   195   165   171   am
   196   171   172    1
   197   190   191    2
   198   172   173    1
   199   167   168    1
   200   206   207   ar
   201   206   208   ar
   202   173   174    2
   203   168   169    1
   204   168   170    1
