@<TRIPOS>MOLECULE
tmp/6f7kF03.pdb
 80 75 0 0 0
SMALL
GASTEIGER

@<TRIPOS>ATOM
      1  N        -26.0720   14.3200  -49.6630 N.3   279  ARG279     -0.1245
      2  CA       -25.9420   14.5880  -48.2420 C.3   279  ARG279      0.1563
      3  C        -26.8790   15.7080  -47.8390 C.2   279  ARG279      0.2260
      4  O        -27.4560   16.3800  -48.7000 O.2   279  ARG279     -0.2867
      5  CB       -24.4710   14.8680  -47.8830 C.3   279  ARG279      0.0307
      6  CG       -23.5890   13.6340  -48.0640 C.3   279  ARG279      0.0489
      7  CD       -22.4710   13.7820  -49.0770 C.3   279  ARG279      0.2205
      8  NE       -21.4290   12.7860  -48.8660 N.pl3 279  ARG279     -0.0865
      9  CZ       -21.1150   11.7930  -49.6970 C.cat 279  ARG279      0.5346
     10  NH1      -21.8090   11.5530  -50.7880 N.pl3 279  ARG279      0.1354
     11  NH2      -20.1650   10.9410  -49.3550 N.pl3 279  ARG279      0.1354
     12  N        -26.6680    9.7000  -48.2890 N.3   310  GLU310     -0.1231
     13  CA       -25.2210    9.4670  -48.2340 C.3   310  GLU310      0.1699
     14  C        -24.5800   10.2950  -47.1170 C.2   310  GLU310      0.2592
     15  O        -23.3700   10.5440  -47.1380 O.2   310  GLU310     -0.2718
     16  CB       -24.5640    9.8130  -49.5730 C.3   310  GLU310      0.0402
     17  CG       -24.8120    8.7860  -50.6840 C.3   310  GLU310      0.1161
     18  CD       -23.8580    7.6020  -50.6010 C.2   310  GLU310      0.3649
     19  OE1      -23.6500    7.0790  -49.4880 O.co2 310  GLU310     -0.2457
     20  OE2      -23.2970    7.2160  -51.6520 O.co2 310  GLU310     -0.2457
     21  N        -25.4130   10.6360  -46.1290 N.am  311  ASN311     -0.1974
     22  CA       -25.0400   11.0540  -44.7630 C.3   311  ASN311      0.1688
     23  C        -25.7200   12.4170  -44.4720 C.2   311  ASN311      0.2292
     24  O        -25.9400   13.2300  -45.3950 O.2   311  ASN311     -0.2864
     25  CB       -23.5230   11.1180  -44.5420 C.3   311  ASN311      0.1181
     26  CG       -22.8620    9.7480  -44.6050 C.2   311  ASN311      0.2629
     27  OD1      -23.5440    8.7250  -44.7670 O.2   311  ASN311     -0.2716
     28  ND2      -21.5190    9.7240  -44.5550 N.am  311  ASN311     -0.0877
     29  N        -21.9360   16.0030  -43.3760 N.3   314  TRP314     -0.1241
     30  CA       -20.7760   15.4480  -44.0590 C.3   314  TRP314      0.1605
     31  C        -19.7430   16.5570  -44.1660 C.2   314  TRP314      0.2264
     32  O        -20.1000   17.6610  -44.5340 O.2   314  TRP314     -0.2867
     33  CB       -21.1720   14.9820  -45.4680 C.3   314  TRP314      0.0550
     34  CG       -19.9870   14.7910  -46.4200 C.ar  314  TRP314      0.0003
     35  CD1      -19.4780   15.7110  -47.3090 C.ar  314  TRP314      0.0946
     36  CD2      -19.2570   13.5950  -46.6330 C.ar  314  TRP314      0.0152
     37  NE1      -18.4600   15.1510  -48.0240 N.ar  314  TRP314     -0.2442
     38  CE2      -18.2820   13.8640  -47.6000 C.ar  314  TRP314      0.0810
     39  CE3      -19.3060   12.3250  -46.0710 C.ar  314  TRP314      0.0012
     40  CZ2      -17.4320   12.9020  -48.0630 C.ar  314  TRP314      0.0191
     41  CZ3      -18.4360   11.3890  -46.5050 C.ar  314  TRP314      0.0001
     42  CH2      -17.5000   11.6770  -47.4920 C.ar  314  TRP314      0.0015
     43  N        -24.4170    5.5570  -47.4170 N.3   344  GLY344     -0.1225
     44  CA       -23.6930    5.3870  -46.1570 C.3   344  GLY344      0.1811
     45  C        -24.5470    5.4720  -44.8790 C.2   344  GLY344      0.2280
     46  O        -24.2630    4.7760  -43.9050 O.2   344  GLY344     -0.2866
     47  N        -25.0360    7.6550  -42.4330 N.3   346  ILE346     -0.1245
     48  CA       -24.3600    8.0980  -41.2220 C.3   346  ILE346      0.1561
     49  C        -24.9080    9.4740  -40.7970 C.2   346  ILE346      0.2260
     50  O        -25.1880   10.3270  -41.6350 O.2   346  ILE346     -0.2867
     51  CB       -22.8380    8.1940  -41.4170 C.3   346  ILE346      0.0252
     52  CG1      -22.2600    6.8660  -41.9460 C.3   346  ILE346      0.0019
     53  CG2      -22.1590    8.6220  -40.1240 C.3   346  ILE346      0.0019
     54  CD1      -22.3840    5.6900  -40.9870 C.3   346  ILE346      0.0001
     55  N        -20.5650   12.7090  -40.3650 N.3   349  SER349     -0.1202
     56  CA       -19.3080   12.1390  -40.8440 C.3   349  SER349      0.2020
     57  C        -18.2070   13.1180  -41.1660 C.2   349  SER349      0.2619
     58  O        -18.4270   14.2020  -41.7380 O.2   349  SER349     -0.2717
     59  CB       -19.5630   11.2130  -42.0280 C.3   349  SER349      0.2103
     60  OG       -20.2960   11.8780  -43.0130 O.3   349  SER349     -0.2182
     61  N        -17.0100   12.7710  -40.7170 N.am  350  LEU350     -0.1965
     62  CA       -15.8310   13.4810  -41.1100 C.3   350  LEU350      0.1728
     63  C        -15.0730   12.5730  -42.0280 C.2   350  LEU350      0.2616
     64  O        -14.9720   11.3740  -41.7830 O.2   350  LEU350     -0.2715
     65  CB       -14.9460   13.8040  -39.9020 C.3   350  LEU350      0.0311
     66  CG       -15.3160   15.0760  -39.1730 C.3   350  LEU350      0.0022
     67  CD1      -16.7190   14.9830  -38.5710 C.3   350  LEU350      0.0001
     68  CD2      -14.2820   15.3560  -38.1130 C.3   350  LEU350      0.0001
     69  N        -14.4270   13.1700  -43.0120 N.am  351  ALA351     -0.1977
     70  CA       -13.6980   12.4060  -44.0050 C.3   351  ALA351      0.1597
     71  C        -12.6060   13.3180  -44.5520 C.2   351  ALA351      0.2287
     72  O        -12.6620   14.5340  -44.3680 O.2   351  ALA351     -0.2864
     73  CB       -14.6500   11.9640  -45.1060 C.3   351  ALA351      0.0319
     74  N        -18.2920    9.4120  -37.3740 N.3   379  THR379     -0.1218
     75  CA       -17.1540    8.7180  -37.9100 C.3   379  THR379      0.1862
     76  C        -16.0150    9.6740  -38.0580 C.2   379  THR379      0.2287
     77  O        -16.2060   10.8050  -38.5450 O.2   379  THR379     -0.2866
     78  CB       -17.4430    8.1870  -39.2970 C.3   379  THR379      0.1770
     79  OG1      -17.9280    9.2530  -40.1110 O.3   379  THR379     -0.2211
     80  CG2      -18.4580    7.1180  -39.2400 C.3   379  THR379      0.0375
@<TRIPOS>BOND
     1    20    18   ar
     2    10     9    1
     3    17    18    1
     4    17    16    1
     5    18    19   ar
     6     9    11    1
     7     9     8    2
     8     1     2    1
     9    16    13    1
    10     7     8    1
    11     7     6    1
    12     4     3    2
    13    12    13    1
    14     2     5    1
    15     2     3    1
    16    13    14    1
    17     6     5    1
    18    40    38   ar
    19    40    42   ar
    20    37    38   ar
    21    37    35   ar
    22    38    36   ar
    23    42    41   ar
    24    43    44    1
    25    35    34   ar
    26    15    14    2
    27    14    21   am
    28    36    34   ar
    29    36    39   ar
    30    41    39   ar
    31    34    33    1
    32    44    45    1
    33    21    22    1
    34    33    30    1
    35    24    23    2
    36    73    70    1
    37    45    46    2
    38    27    26    2
    39    22    25    1
    40    22    23    1
    41    26    28   am
    42    26    25    1
    43    71    72    2
    44    71    70    1
    45    32    31    2
    46    31    30    1
    47    30    29    1
    48    70    69    1
    49    60    59    1
    50    69    63   am
    51    47    48    1
    52    59    56    1
    53    63    64    2
    54    63    62    1
    55    52    51    1
    56    52    54    1
    57    58    57    2
    58    50    49    2
    59    51    48    1
    60    51    53    1
    61    48    49    1
    62    57    56    1
    63    57    61   am
    64    62    61    1
    65    62    65    1
    66    56    55    1
    67    79    78    1
    68    65    66    1
    69    78    80    1
    70    78    75    1
    71    66    67    1
    72    66    68    1
    73    77    76    2
    74    76    75    1
    75    75    74    1
