@<TRIPOS>MOLECULE
tmp/6f7kF00.pdb
 96 93 0 0 0
SMALL
GASTEIGER

@<TRIPOS>ATOM
      1  N        -24.9690   22.7210  -49.5820 N.3   255  TYR255     -0.1241
      2  CA       -23.6220   22.3470  -49.9130 C.3   255  TYR255      0.1605
      3  C        -22.7350   23.5760  -49.9870 C.2   255  TYR255      0.2264
      4  O        -23.1010   24.5800  -50.6000 O.2   255  TYR255     -0.2867
      5  CB       -23.5960   21.5930  -51.2430 C.3   255  TYR255      0.0534
      6  CG       -22.2640   21.6160  -51.9390 C.ar  255  TYR255     -0.0201
      7  CD1      -21.2070   20.8320  -51.5150 C.ar  255  TYR255     -0.0009
      8  CD2      -22.0430   22.4870  -52.9870 C.ar  255  TYR255     -0.0009
      9  CE1      -19.9610   20.8970  -52.1560 C.ar  255  TYR255      0.0417
     10  CE2      -20.8350   22.5610  -53.6170 C.ar  255  TYR255      0.0417
     11  CZ       -19.7960   21.7490  -53.2140 C.ar  255  TYR255      0.1957
     12  OH       -18.5870   21.9170  -53.8370 O.3   255  TYR255     -0.2866
     13  N        -28.1960   13.0400  -51.9490 N.3   278  ASN278     -0.1225
     14  CA       -26.7760   13.0020  -51.5890 C.3   278  ASN278      0.1785
     15  C        -26.6310   13.1880  -50.0960 C.2   278  ASN278      0.2597
     16  O        -27.1320   12.3580  -49.3370 O.2   278  ASN278     -0.2718
     17  CB       -25.9800   14.0300  -52.3940 C.3   278  ASN278      0.1169
     18  CG       -24.5100   13.7430  -52.4000 C.2   278  ASN278      0.2627
     19  OD1      -24.0940   12.6230  -52.1320 O.2   278  ASN278     -0.2716
     20  ND2      -23.7010   14.7990  -52.5470 N.am  278  ASN278     -0.0877
     21  N        -26.0720   14.3200  -49.6630 N.am  279  ARG279     -0.1979
     22  CA       -25.9420   14.5880  -48.2420 C.3   279  ARG279      0.1597
     23  C        -26.8790   15.7080  -47.8390 C.2   279  ARG279      0.2287
     24  O        -27.4560   16.3800  -48.7000 O.2   279  ARG279     -0.2864
     25  CB       -24.4710   14.8680  -47.8830 C.3   279  ARG279      0.0334
     26  CG       -23.5890   13.6340  -48.0640 C.3   279  ARG279      0.0492
     27  CD       -22.4710   13.7820  -49.0770 C.3   279  ARG279      0.2205
     28  NE       -21.4290   12.7860  -48.8660 N.pl3 279  ARG279     -0.0865
     29  CZ       -21.1150   11.7930  -49.6970 C.cat 279  ARG279      0.5346
     30  NH1      -21.8090   11.5530  -50.7880 N.pl3 279  ARG279      0.1354
     31  NH2      -20.1650   10.9410  -49.3550 N.pl3 279  ARG279      0.1354
     32  N        -23.5610   19.5790  -46.4270 N.3   282  ASP282     -0.1239
     33  CA       -22.4550   18.9790  -47.1900 C.3   282  ASP282      0.1674
     34  C        -21.3130   19.9870  -47.2740 C.2   282  ASP282      0.2266
     35  O        -21.3900   20.9210  -48.0170 O.2   282  ASP282     -0.2867
     36  CB       -22.9380   18.6630  -48.5880 C.3   282  ASP282      0.1410
     37  CG       -21.9190   17.8990  -49.4140 C.2   282  ASP282      0.3668
     38  OD1      -20.7100   17.9690  -49.1150 O.co2 282  ASP282     -0.2456
     39  OD2      -22.3280   17.3170  -50.4380 O.co2 282  ASP282     -0.2456
     40  N        -17.2850   20.2720  -48.0640 N.3   284  GLY284     -0.1210
     41  CA       -16.3960   19.3550  -48.7490 C.3   284  GLY284      0.1956
     42  C        -15.4380   20.0180  -49.7160 C.2   284  GLY284      0.2612
     43  O        -15.7740   20.9970  -50.3800 O.2   284  GLY284     -0.2717
     44  N        -14.2240   19.5080  -49.7480 N.am  285  LEU285     -0.1965
     45  CA       -13.2230   19.8700  -50.7940 C.3   285  LEU285      0.1728
     46  C        -13.1880   18.8200  -51.8720 C.2   285  LEU285      0.2616
     47  O        -12.8620   17.6770  -51.6050 O.2   285  LEU285     -0.2715
     48  CB       -11.8300   19.9580  -50.1840 C.3   285  LEU285      0.0311
     49  CG       -11.4060   21.3390  -49.6270 C.3   285  LEU285      0.0022
     50  CD1      -12.4420   21.8890  -48.6800 C.3   285  LEU285      0.0001
     51  CD2      -10.0650   21.2350  -48.9220 C.3   285  LEU285      0.0001
     52  N        -13.5770   19.1930  -53.0820 N.am  286  PHE286     -0.1974
     53  CA       -13.4760   18.2980  -54.2270 C.3   286  PHE286      0.1639
     54  C        -12.3050   18.7060  -55.1160 C.2   286  PHE286      0.2290
     55  O        -11.5180   17.8930  -55.5070 O.2   286  PHE286     -0.2864
     56  CB       -14.7820   18.3380  -55.0140 C.3   286  PHE286      0.0560
     57  CG       -14.9270   17.2330  -56.0080 C.ar  286  PHE286     -0.0200
     58  CD1      -15.4940   16.0200  -55.6330 C.ar  286  PHE286     -0.0042
     59  CD2      -14.6120   17.4470  -57.3550 C.ar  286  PHE286     -0.0042
     60  CE1      -15.6820   15.0130  -56.5660 C.ar  286  PHE286     -0.0003
     61  CE2      -14.8040   16.4480  -58.2970 C.ar  286  PHE286     -0.0003
     62  CZ       -15.3300   15.2250  -57.9000 C.ar  286  PHE286     -0.0000
     63  N        -21.9360   16.0030  -43.3760 N.3   314  TRP314     -0.1241
     64  CA       -20.7760   15.4480  -44.0590 C.3   314  TRP314      0.1605
     65  C        -19.7430   16.5570  -44.1660 C.2   314  TRP314      0.2264
     66  O        -20.1000   17.6610  -44.5340 O.2   314  TRP314     -0.2867
     67  CB       -21.1720   14.9820  -45.4680 C.3   314  TRP314      0.0550
     68  CG       -19.9870   14.7910  -46.4200 C.ar  314  TRP314      0.0003
     69  CD1      -19.4780   15.7110  -47.3090 C.ar  314  TRP314      0.0946
     70  CD2      -19.2570   13.5950  -46.6330 C.ar  314  TRP314      0.0152
     71  NE1      -18.4600   15.1510  -48.0240 N.ar  314  TRP314     -0.2442
     72  CE2      -18.2820   13.8640  -47.6000 C.ar  314  TRP314      0.0810
     73  CE3      -19.3060   12.3250  -46.0710 C.ar  314  TRP314      0.0012
     74  CZ2      -17.4320   12.9020  -48.0630 C.ar  314  TRP314      0.0191
     75  CZ3      -18.4360   11.3890  -46.5050 C.ar  314  TRP314      0.0001
     76  CH2      -17.5000   11.6770  -47.4920 C.ar  314  TRP314      0.0015
     77  N        -15.8320   17.0910  -45.3160 N.3   316  ALA316     -0.1245
     78  CA       -14.6710   16.4850  -45.9760 C.3   316  ALA316      0.1562
     79  C        -13.5190   17.4550  -46.2780 C.2   316  ALA316      0.2260
     80  O        -13.5640   18.2000  -47.2360 O.2   316  ALA316     -0.2867
     81  CB       -15.0870   15.7190  -47.2130 C.3   316  ALA316      0.0290
     82  N        -11.6430   12.7370  -45.2550 N.3   352  SER352     -0.1202
     83  CA       -10.6590   13.4940  -45.9840 C.3   352  SER352      0.2020
     84  C        -11.2720   14.0890  -47.2120 C.2   352  SER352      0.2619
     85  O        -12.2750   13.6050  -47.7000 O.2   352  SER352     -0.2717
     86  CB        -9.4920   12.5900  -46.3790 C.3   352  SER352      0.2103
     87  OG        -8.9480   12.0110  -45.2090 O.3   352  SER352     -0.2182
     88  N        -10.6390   15.1460  -47.7080 N.am  353  GLY353     -0.1942
     89  CA       -11.0420   15.7900  -48.9350 C.3   353  GLY353      0.2014
     90  C        -10.7010   14.8910  -50.0850 C.2   353  GLY353      0.2638
     91  O        -10.0450   13.8830  -49.8890 O.2   353  GLY353     -0.2714
     92  N        -11.2520   15.1920  -51.2640 N.am  354  ALA354     -0.1977
     93  CA       -11.0080   14.3730  -52.4650 C.3   354  ALA354      0.1597
     94  C         -9.5180   14.1070  -52.7180 C.2   354  ALA354      0.2287
     95  O         -9.1490   13.0150  -53.1010 O.2   354  ALA354     -0.2864
     96  CB       -11.6350   15.0310  -53.6830 C.3   354  ALA354      0.0319
@<TRIPOS>BOND
     1    61    62   ar
     2    61    59   ar
     3    62    60   ar
     4    59    57   ar
     5    60    58   ar
     6    57    58   ar
     7    57    56    1
     8    55    54    2
     9    54    53    1
    10    56    53    1
    11    53    52    1
    12    12    11    1
    13    96    93    1
    14    10    11   ar
    15    10     8   ar
    16    11     9   ar
    17    95    94    2
    18    52    46   am
    19     8     6   ar
    20    94    93    1
    21    20    18   am
    22    93    92    1
    23    18    17    1
    24    18    19    2
    25    17    14    1
    26     9     7   ar
    27    13    14    1
    28     6     7   ar
    29     6     5    1
    30    46    47    2
    31    46    45    1
    32    14    15    1
    33    92    90   am
    34     5     2    1
    35    45    48    1
    36    45    44    1
    37    30    29    1
    38     4     3    2
    39    39    37   ar
    40    43    42    2
    41    48    49    1
    42    15    21   am
    43    15    16    2
    44    90    91    2
    45    90    89    1
    46     3     2    1
    47     2     1    1
    48    44    42   am
    49    42    41    1
    50    29    31    1
    51    29    28    2
    52    21    22    1
    53    49    51    1
    54    49    50    1
    55    37    38   ar
    56    37    36    1
    57    27    28    1
    58    27    26    1
    59    89    88    1
    60    41    40    1
    61    24    23    2
    62    36    33    1
    63    22    25    1
    64    22    23    1
    65    26    25    1
    66    74    72   ar
    67    74    76   ar
    68    71    72   ar
    69    71    69   ar
    70    35    34    2
    71    88    84   am
    72    85    84    2
    73    72    70   ar
    74    76    75   ar
    75    69    68   ar
    76    34    33    1
    77    80    79    2
    78    81    78    1
    79    84    83    1
    80    33    32    1
    81    70    68   ar
    82    70    73   ar
    83    75    73   ar
    84    68    67    1
    85    86    83    1
    86    86    87    1
    87    79    78    1
    88    83    82    1
    89    78    77    1
    90    67    64    1
    91    66    65    2
    92    65    64    1
    93    64    63    1
