@<TRIPOS>MOLECULE
tmp/6f7qB00.pdb
 88 84 0 0 0
SMALL
GASTEIGER

@<TRIPOS>ATOM
      1  N        -36.7890  -16.2170   48.9130 N.3   460  ILE460     -0.1231
      2  CA       -37.5930  -15.1090   48.4040 C.3   460  ILE460      0.1692
      3  C        -39.0630  -15.5070   48.3350 C.2   460  ILE460      0.2591
      4  O        -39.9460  -14.7620   48.7800 O.2   460  ILE460     -0.2718
      5  CB       -37.0770  -14.6450   47.0300 C.3   460  ILE460      0.0266
      6  CG1      -35.5790  -14.3320   47.0910 C.3   460  ILE460      0.0019
      7  CG2      -37.8540  -13.4450   46.5680 C.3   460  ILE460      0.0020
      8  CD1      -35.0160  -13.7090   45.8230 C.3   460  ILE460      0.0001
      9  N        -39.3480  -16.6800   47.7630 N.am  461  LEU461     -0.1980
     10  CA       -40.7280  -17.1380   47.6770 C.3   461  LEU461      0.1596
     11  C        -41.3420  -17.2470   49.0660 C.2   461  LEU461      0.2287
     12  O        -42.4350  -16.7190   49.3220 O.2   461  LEU461     -0.2864
     13  CB       -40.7980  -18.4750   46.9360 C.3   461  LEU461      0.0297
     14  CG       -42.2160  -19.0170   46.7190 C.3   461  LEU461      0.0022
     15  CD1      -43.0260  -18.0240   45.8880 C.3   461  LEU461      0.0001
     16  CD2      -42.2420  -20.4390   46.0870 C.3   461  LEU461      0.0001
     17  N        -42.1440  -13.9550   50.4610 N.3   464  SER464     -0.1217
     18  CA       -43.3100  -13.3870   49.7990 C.3   464  SER464      0.1889
     19  C        -44.5910  -13.9900   50.3580 C.2   464  SER464      0.2288
     20  O        -45.5360  -13.2700   50.7000 O.2   464  SER464     -0.2866
     21  CB       -43.2040  -13.6330   48.2950 C.3   464  SER464      0.2089
     22  OG       -43.8200  -12.5910   47.5710 O.3   464  SER464     -0.2183
     23  N        -42.7360   -4.9780   46.5800 N.3   483  ASN483     -0.1225
     24  CA       -41.6550   -5.4790   45.7320 C.3   483  ASN483      0.1785
     25  C        -42.1350   -5.7440   44.3120 C.2   483  ASN483      0.2597
     26  O        -41.8070   -6.7600   43.7050 O.2   483  ASN483     -0.2718
     27  CB       -41.0280   -6.7150   46.3680 C.3   483  ASN483      0.1169
     28  CG       -40.3310   -6.3930   47.6980 C.2   483  ASN483      0.2627
     29  OD1      -40.4960   -5.3030   48.2500 O.2   483  ASN483     -0.2716
     30  ND2      -39.5310   -7.3380   48.2030 N.am  483  ASN483     -0.0877
     31  N        -42.8900   -4.7840   43.7630 N.am  484  ASN484     -0.1960
     32  CA       -43.4420   -4.8600   42.3980 C.3   484  ASN484      0.1819
     33  C        -44.1780   -6.1730   42.1540 C.2   484  ASN484      0.2622
     34  O        -44.0530   -6.7830   41.0930 O.2   484  ASN484     -0.2715
     35  CB       -42.3570   -4.6820   41.3320 C.3   484  ASN484      0.1195
     36  CG       -41.5250   -3.4360   41.5330 C.2   484  ASN484      0.2630
     37  OD1      -40.2950   -3.5210   41.5660 O.2   484  ASN484     -0.2716
     38  ND2      -42.1820   -2.2650   41.6500 N.am  484  ASN484     -0.0877
     39  N        -44.9610   -6.6040   43.1340 N.am  485  SER485     -0.1936
     40  CA       -45.5390   -7.9370   43.1090 C.3   485  SER485      0.2055
     41  C        -46.7650   -8.0020   42.2000 C.2   485  SER485      0.2643
     42  O        -47.4310   -6.9970   41.9390 O.2   485  SER485     -0.2714
     43  CB       -45.9150   -8.3670   44.5210 C.3   485  SER485      0.2130
     44  OG       -44.7510   -8.7830   45.2170 O.3   485  SER485     -0.2179
     45  N        -47.0430   -9.2090   41.6970 N.am  486  THR486     -0.1950
     46  CA       -48.3280   -9.4640   41.0540 C.3   486  THR486      0.1897
     47  C        -49.4410   -9.1770   42.0420 C.2   486  THR486      0.2313
     48  O        -49.3970   -9.6400   43.1850 O.2   486  THR486     -0.2863
     49  CB       -48.4440  -10.9190   40.5790 C.3   486  THR486      0.1794
     50  OG1      -47.3390  -11.2590   39.7360 O.3   486  THR486     -0.2208
     51  CG2      -49.7500  -11.1400   39.8130 C.3   486  THR486      0.0378
     52  N        -44.8820  -19.6300   42.7060 N.3   502  ASN502     -0.1225
     53  CA       -43.6820  -20.3240   42.2460 C.3   502  ASN502      0.1785
     54  C        -42.5440  -19.3010   42.2370 C.2   502  ASN502      0.2598
     55  O        -42.7360  -18.1340   42.6030 O.2   502  ASN502     -0.2718
     56  CB       -43.8970  -20.9380   40.8680 C.3   502  ASN502      0.1169
     57  CG       -44.3620  -19.9100   39.8560 C.2   502  ASN502      0.2627
     58  OD1      -43.5670  -19.1060   39.3610 O.2   502  ASN502     -0.2716
     59  ND2      -45.6540  -19.9070   39.5660 N.am  502  ASN502     -0.0877
     60  N        -41.3530  -19.7420   41.8050 N.am  503  THR503     -0.1939
     61  CA       -40.1670  -18.8840   41.7810 C.3   503  THR503      0.2028
     62  C        -39.8840  -18.2810   40.4100 C.2   503  THR503      0.2642
     63  O        -38.9610  -17.4710   40.3000 O.2   503  THR503     -0.2714
     64  CB       -38.9060  -19.6410   42.2510 C.3   503  THR503      0.1808
     65  OG1      -38.6530  -20.7640   41.3910 O.3   503  THR503     -0.2208
     66  CG2      -39.0480  -20.1270   43.6870 C.3   503  THR503      0.0379
     67  N        -40.6390  -18.6510   39.3640 N.am  504  GLU504     -0.1963
     68  CA       -40.4150  -18.0970   38.0280 C.3   504  GLU504      0.1733
     69  C        -41.2800  -16.8760   37.7670 C.2   504  GLU504      0.2617
     70  O        -40.8060  -15.7390   37.8590 O.2   504  GLU504     -0.2715
     71  CB       -40.6790  -19.1420   36.9530 C.3   504  GLU504      0.0429
     72  CG       -39.6970  -20.2880   36.9880 C.3   504  GLU504      0.1163
     73  CD       -39.7390  -21.1220   35.7280 C.2   504  GLU504      0.3649
     74  OE1      -40.2920  -20.6270   34.7120 O.co2 504  GLU504     -0.2457
     75  OE2      -39.2230  -22.2680   35.7620 O.co2 504  GLU504     -0.2457
     76  N        -42.5430  -17.0900   37.4190 N.am  505  SER505     -0.1936
     77  CA       -43.4510  -15.9730   37.2020 C.3   505  SER505      0.2055
     78  C        -44.7870  -16.2990   37.8400 C.2   505  SER505      0.2643
     79  O        -45.3540  -17.3660   37.5900 O.2   505  SER505     -0.2714
     80  CB       -43.6300  -15.6660   35.7140 C.3   505  SER505      0.2130
     81  OG       -44.3980  -16.6700   35.0880 O.3   505  SER505     -0.2179
     82  N        -45.2720  -15.3880   38.6740 N.am  506  THR506     -0.1950
     83  CA       -46.5550  -15.5450   39.3390 C.3   506  THR506      0.1897
     84  C        -47.6220  -14.9170   38.4560 C.2   506  THR506      0.2313
     85  O        -47.5230  -13.7410   38.0890 O.2   506  THR506     -0.2863
     86  CB       -46.5110  -14.8950   40.7160 C.3   506  THR506      0.1794
     87  OG1      -46.0280  -13.5510   40.5720 O.3   506  THR506     -0.2208
     88  CG2      -45.5590  -15.6930   41.6480 C.3   506  THR506      0.0378
@<TRIPOS>BOND
     1    74    73   ar
     2    81    80    1
     3    80    77    1
     4    73    75   ar
     5    73    72    1
     6    71    72    1
     7    71    68    1
     8    77    76    1
     9    77    78    1
    10    76    69   am
    11    79    78    2
    12    69    70    2
    13    69    68    1
    14    78    82   am
    15    68    67    1
    16    85    84    2
    17    84    83    1
    18    82    83    1
    19    83    86    1
    20    58    57    2
    21    67    62   am
    22    59    57   am
    23    50    49    1
    24    51    49    1
    25    57    56    1
    26    63    62    2
    27    62    61    1
    28    87    86    1
    29    49    46    1
    30    86    88    1
    31    56    53    1
    32    46    45    1
    33    46    47    1
    34    34    33    2
    35    35    36    1
    36    35    32    1
    37    65    64    1
    38    36    37    2
    39    36    38   am
    40    45    41   am
    41    61    60    1
    42    61    64    1
    43    60    54   am
    44    42    41    2
    45    47    48    2
    46    33    32    1
    47    33    39   am
    48    41    40    1
    49    54    53    1
    50    54    55    2
    51    53    52    1
    52    64    66    1
    53    32    31    1
    54    40    39    1
    55    40    43    1
    56    26    25    2
    57    31    25   am
    58    25    24    1
    59    43    44    1
    60    24    27    1
    61    24    23    1
    62     8     6    1
    63    15    14    1
    64    16    14    1
    65    27    28    1
    66     7     5    1
    67    14    13    1
    68    13    10    1
    69     5     6    1
    70     5     2    1
    71    22    21    1
    72    10     9    1
    73    10    11    1
    74    28    30   am
    75    28    29    2
    76     9     3   am
    77    21    18    1
    78     3     2    1
    79     3     4    2
    80     2     1    1
    81    11    12    2
    82    18    19    1
    83    18    17    1
    84    19    20    2
