@<TRIPOS>MOLECULE
tmp/6f7qB02.pdb
 218 216 0 0 0
SMALL
GASTEIGER

@<TRIPOS>ATOM
      1  N        -52.3210  -43.7980   65.7130 N.3    66  ASN66      -0.1225
      2  CA       -51.4300  -44.6960   65.0010 C.3    66  ASN66       0.1785
      3  C        -50.4150  -43.8820   64.2080 C.2    66  ASN66       0.2597
      4  O        -50.6140  -42.6980   63.9250 O.2    66  ASN66      -0.2718
      5  CB       -52.2180  -45.6290   64.0880 C.3    66  ASN66       0.1169
      6  CG       -53.0490  -46.6280   64.8650 C.2    66  ASN66       0.2627
      7  OD1      -52.5770  -47.2160   65.8370 O.2    66  ASN66      -0.2716
      8  ND2      -54.2900  -46.8240   64.4460 N.am   66  ASN66      -0.0877
      9  N        -49.3120  -44.5250   63.8620 N.am   67  ILE67      -0.1966
     10  CA       -48.1450  -43.8540   63.3090 C.3    67  ILE67       0.1727
     11  C        -47.8400  -44.4840   61.9600 C.2    67  ILE67       0.2616
     12  O        -48.1280  -45.6630   61.7300 O.2    67  ILE67      -0.2715
     13  CB       -46.9400  -43.9620   64.2770 C.3    67  ILE67       0.0290
     14  CG1      -47.1970  -43.1620   65.5620 C.3    67  ILE67       0.0022
     15  CG2      -45.6440  -43.5440   63.6230 C.3    67  ILE67       0.0023
     16  CD1      -47.6640  -44.0010   66.7510 C.3    67  ILE67       0.0001
     17  N        -47.2740  -43.6900   61.0590 N.am   68  ASP68      -0.1971
     18  CA       -46.9730  -44.1450   59.7040 C.3    68  ASP68       0.1709
     19  C        -45.6850  -44.9570   59.7480 C.2    68  ASP68       0.2293
     20  O        -44.5870  -44.4010   59.8300 O.2    68  ASP68      -0.2864
     21  CB       -46.8680  -42.9540   58.7560 C.3    68  ASP68       0.1436
     22  CG       -46.6960  -43.3610   57.3010 C.2    68  ASP68       0.3671
     23  OD1      -46.6250  -44.5710   56.9870 O.co2  68  ASP68      -0.2456
     24  OD2      -46.6440  -42.4450   56.4570 O.co2  68  ASP68      -0.2456
     25  N        -44.0120  -36.4140   59.2380 N.3    80  TRP80      -0.1227
     26  CA       -45.3840  -36.2140   59.6710 C.3    80  TRP80       0.1737
     27  C        -45.7180  -36.9770   60.9430 C.2    80  TRP80       0.2595
     28  O        -46.7240  -36.6690   61.5800 O.2    80  TRP80      -0.2718
     29  CB       -46.3450  -36.6020   58.5420 C.3    80  TRP80       0.0564
     30  CG       -46.0190  -35.8590   57.2790 C.ar   80  TRP80       0.0003
     31  CD1      -45.5320  -36.3880   56.1170 C.ar   80  TRP80       0.0946
     32  CD2      -46.1010  -34.4390   57.0700 C.ar   80  TRP80       0.0152
     33  NE1      -45.3190  -35.3880   55.1920 N.ar   80  TRP80      -0.2442
     34  CE2      -45.6610  -34.1840   55.7530 C.ar   80  TRP80       0.0810
     35  CE3      -46.5140  -33.3610   57.8670 C.ar   80  TRP80       0.0012
     36  CZ2      -45.6260  -32.9010   55.2120 C.ar   80  TRP80       0.0191
     37  CZ3      -46.4740  -32.0900   57.3320 C.ar   80  TRP80       0.0001
     38  CH2      -46.0380  -31.8690   56.0130 C.ar   80  TRP80       0.0015
     39  N        -44.8910  -37.9360   61.3480 N.am   81  ASN81      -0.1974
     40  CA       -45.1230  -38.6690   62.5810 C.3    81  ASN81       0.1688
     41  C        -44.9410  -37.7640   63.8010 C.2    81  ASN81       0.2292
     42  O        -44.2110  -36.7730   63.7480 O.2    81  ASN81      -0.2864
     43  CB       -44.1680  -39.8510   62.6590 C.3    81  ASN81       0.1181
     44  CG       -44.5680  -40.9710   61.7490 C.2    81  ASN81       0.2629
     45  OD1      -45.7510  -41.1710   61.4970 O.2    81  ASN81      -0.2716
     46  ND2      -43.5890  -41.7300   61.2620 N.am   81  ASN81      -0.0877
     47  N        -53.2640  -30.5140   60.1350 N.3   113  GLY113     -0.1210
     48  CA       -53.9850  -31.5300   59.4040 C.3   113  GLY113      0.1956
     49  C        -53.4540  -32.9410   59.6160 C.2   113  GLY113      0.2612
     50  O        -52.7690  -33.2480   60.5990 O.2   113  GLY113     -0.2717
     51  N        -53.7380  -33.8010   58.6420 N.am  114  GLY114     -0.1942
     52  CA       -53.7870  -35.2340   58.8300 C.3   114  GLY114      0.2014
     53  C        -55.1300  -35.6720   58.2820 C.2   114  GLY114      0.2639
     54  O        -55.6360  -35.0570   57.3370 O.2   114  GLY114     -0.2714
     55  N        -55.7380  -36.6960   58.8600 N.am  115  GLY115     -0.1954
     56  CA       -57.0430  -37.1080   58.4000 C.3   115  GLY115      0.1869
     57  C        -57.9830  -37.2420   59.5710 C.2   115  GLY115      0.2309
     58  O        -58.7890  -38.1790   59.6330 O.2   115  GLY115     -0.2863
     59  N        -57.0700  -38.3250   62.1370 N.3   117  GLN117     -0.1231
     60  CA       -56.5380  -39.4770   62.8430 C.3   117  GLN117      0.1698
     61  C        -55.1250  -39.2530   63.3590 C.2   117  GLN117      0.2592
     62  O        -54.7370  -39.8690   64.3510 O.2   117  GLN117     -0.2718
     63  CB       -56.5430  -40.7150   61.9320 C.3   117  GLN117      0.0381
     64  CG       -57.7050  -40.7830   60.9320 C.3   117  GLN117      0.0905
     65  CD       -59.0330  -41.2110   61.5500 C.2   117  GLN117      0.2608
     66  OE1      -59.5450  -42.3000   61.2840 O.2   117  GLN117     -0.2717
     67  NE2      -59.5890  -40.3510   62.3960 N.am  117  GLN117     -0.0878
     68  N        -54.3460  -38.3830   62.7240 N.am  118  THR118     -0.1953
     69  CA       -52.9680  -38.1470   63.1180 C.3   118  THR118      0.1897
     70  C        -52.7130  -36.6450   63.1760 C.2   118  THR118      0.2313
     71  O        -53.5770  -35.8360   62.8370 O.2   118  THR118     -0.2863
     72  CB       -51.9970  -38.8300   62.1460 C.3   118  THR118      0.1794
     73  OG1      -52.2110  -38.3450   60.8140 O.3   118  THR118     -0.2208
     74  CG2      -52.2070  -40.3430   62.1490 C.3   118  THR118      0.0378
     75  N        -44.2740  -26.7410   61.5510 N.3   126  TYR126     -0.1241
     76  CA       -45.2680  -25.8310   62.1090 C.3   126  TYR126      0.1605
     77  C        -44.6760  -24.8940   63.1560 C.2   126  TYR126      0.2264
     78  O        -45.4040  -24.4170   64.0410 O.2   126  TYR126     -0.2867
     79  CB       -46.4300  -26.5990   62.7420 C.3   126  TYR126      0.0534
     80  CG       -47.0560  -27.7020   61.9210 C.ar  126  TYR126     -0.0201
     81  CD1      -47.0360  -27.6840   60.5170 C.ar  126  TYR126     -0.0009
     82  CD2      -47.6890  -28.7670   62.5590 C.ar  126  TYR126     -0.0009
     83  CE1      -47.6290  -28.7210   59.7740 C.ar  126  TYR126      0.0417
     84  CE2      -48.2850  -29.7890   61.8390 C.ar  126  TYR126      0.0417
     85  CZ       -48.2540  -29.7670   60.4510 C.ar  126  TYR126      0.1957
     86  OH       -48.8530  -30.8000   59.7680 O.3   126  TYR126     -0.2866
     87  N        -54.1390  -26.8310   57.4110 N.3   195  GLU195     -0.1231
     88  CA       -53.9020  -27.6410   56.2280 C.3   195  GLU195      0.1699
     89  C        -54.6640  -28.9520   56.3450 C.2   195  GLU195      0.2592
     90  O        -54.9660  -29.4170   57.4490 O.2   195  GLU195     -0.2718
     91  CB       -52.4060  -27.9170   56.0490 C.3   195  GLU195      0.0402
     92  CG       -51.9700  -28.1590   54.6270 C.3   195  GLU195      0.1161
     93  CD       -51.8270  -29.6310   54.3040 C.2   195  GLU195      0.3649
     94  OE1      -51.9370  -30.4600   55.2430 O.co2 195  GLU195     -0.2457
     95  OE2      -51.6000  -29.9430   53.1010 O.co2 195  GLU195     -0.2457
     96  N        -54.9880  -29.5380   55.1900 N.am  196  SER196     -0.1952
     97  CA       -55.6130  -30.8590   55.1140 C.3   196  SER196      0.1924
     98  C        -56.8400  -30.9300   56.0210 C.2   196  SER196      0.2314
     99  O        -57.7910  -30.1650   55.8350 O.2   196  SER196     -0.2863
    100  CB       -54.5980  -31.9300   55.4810 C.3   196  SER196      0.2116
    101  OG       -54.8750  -33.1220   54.7860 O.3   196  SER196     -0.2180
    102  N        -63.8410  -36.7150   52.0800 N.3   229  TRP229     -0.1241
    103  CA       -63.3380  -37.4290   53.2550 C.3   229  TRP229      0.1605
    104  C        -63.5880  -36.7180   54.5800 C.2   229  TRP229      0.2264
    105  O        -63.3140  -37.3020   55.6320 O.2   229  TRP229     -0.2867
    106  CB       -61.8310  -37.6650   53.1290 C.3   229  TRP229      0.0550
    107  CG       -61.0950  -36.4530   52.6930 C.ar  229  TRP229      0.0003
    108  CD1      -60.7450  -36.1280   51.4210 C.ar  229  TRP229      0.0946
    109  CD2      -60.6370  -35.3890   53.5200 C.ar  229  TRP229      0.0152
    110  NE1      -60.0920  -34.9200   51.4000 N.ar  229  TRP229     -0.2442
    111  CE2      -60.0130  -34.4450   52.6790 C.ar  229  TRP229      0.0810
    112  CE3      -60.7030  -35.1300   54.8890 C.ar  229  TRP229      0.0012
    113  CZ2      -59.4440  -33.2660   53.1660 C.ar  229  TRP229      0.0191
    114  CZ3      -60.1410  -33.9580   55.3750 C.ar  229  TRP229      0.0001
    115  CH2      -59.5210  -33.0410   54.5170 C.ar  229  TRP229      0.0015
    116  N        -56.5610  -45.1310   51.0800 N.3   283  PRO283     -0.2102
    117  CA       -55.5610  -44.2680   51.7330 C.3   283  PRO283      0.1504
    118  C        -56.1230  -42.9210   52.1480 C.2   283  PRO283      0.2576
    119  O        -55.4360  -42.1840   52.8640 O.2   283  PRO283     -0.2718
    120  CB       -54.4670  -44.1040   50.6680 C.3   283  PRO283      0.0282
    121  CG       -54.7340  -45.1370   49.6410 C.3   283  PRO283      0.0208
    122  CD       -56.2060  -45.4430   49.6880 C.3   283  PRO283      0.0893
    123  N        -57.3390  -42.5760   51.7160 N.am  284  LEU284     -0.1966
    124  CA       -58.0500  -41.3910   52.1830 C.3   284  LEU284      0.1728
    125  C        -59.1690  -41.7420   53.1510 C.2   284  LEU284      0.2617
    126  O        -60.0840  -40.9390   53.3470 O.2   284  LEU284     -0.2715
    127  CB       -58.6000  -40.5860   51.0020 C.3   284  LEU284      0.0311
    128  CG       -57.4910  -39.8370   50.2500 C.3   284  LEU284      0.0022
    129  CD1      -57.2560  -40.3880   48.8550 C.3   284  LEU284      0.0001
    130  CD2      -57.7430  -38.3290   50.2200 C.3   284  LEU284      0.0001
    131  N        -59.1170  -42.9260   53.7580 N.am  285  SER285     -0.1936
    132  CA       -60.1070  -43.2830   54.7650 C.3   285  SER285      0.2055
    133  C        -59.9930  -42.3500   55.9550 C.2   285  SER285      0.2642
    134  O        -58.8970  -41.9540   56.3590 O.2   285  SER285     -0.2714
    135  CB       -59.9360  -44.7350   55.2280 C.3   285  SER285      0.2130
    136  OG       -60.7740  -45.6200   54.4990 O.3   285  SER285     -0.2179
    137  N        -61.1420  -41.9650   56.4850 N.am  286  VAL286     -0.1977
    138  CA       -61.2440  -41.1640   57.6890 C.3   286  VAL286      0.1596
    139  C        -62.3370  -41.8550   58.4830 C.2   286  VAL286      0.2287
    140  O        -63.5240  -41.6370   58.2310 O.2   286  VAL286     -0.2864
    141  CB       -61.5860  -39.7000   57.4090 C.3   286  VAL286      0.0276
    142  CG1      -61.9540  -38.9780   58.7100 C.3   286  VAL286      0.0022
    143  CG2      -60.4120  -38.9970   56.7030 C.3   286  VAL286      0.0022
    144  N        -49.2450  -38.1900   46.7960 N.3   326  ALA326     -0.1231
    145  CA       -48.8570  -38.7750   48.0730 C.3   326  ALA326      0.1694
    146  C        -49.6270  -40.0480   48.3900 C.2   326  ALA326      0.2592
    147  O        -49.0800  -40.9640   49.0120 O.2   326  ALA326     -0.2718
    148  CB       -49.0600  -37.7550   49.1910 C.3   326  ALA326      0.0304
    149  N        -50.8860  -40.1320   47.9660 N.am  327  PHE327     -0.1976
    150  CA       -51.7490  -41.2340   48.3750 C.3   327  PHE327      0.1639
    151  C        -51.5540  -42.4630   47.5130 C.2   327  PHE327      0.2290
    152  O        -51.9700  -43.5600   47.9110 O.2   327  PHE327     -0.2864
    153  CB       -53.2220  -40.7840   48.3650 C.3   327  PHE327      0.0560
    154  CG       -53.4680  -39.6320   49.2810 C.ar  327  PHE327     -0.0200
    155  CD1      -53.1800  -38.3290   48.8740 C.ar  327  PHE327     -0.0042
    156  CD2      -53.9040  -39.8490   50.5770 C.ar  327  PHE327     -0.0042
    157  CE1      -53.3590  -37.2840   49.7430 C.ar  327  PHE327     -0.0003
    158  CE2      -54.0760  -38.8050   51.4480 C.ar  327  PHE327     -0.0003
    159  CZ       -53.8120  -37.5260   51.0410 C.ar  327  PHE327     -0.0000
    160  N        -49.3070  -45.4910   48.7880 N.3   330  TYR330     -0.1241
    161  CA       -49.8670  -46.2520   49.9030 C.3   330  TYR330      0.1605
    162  C        -50.9630  -47.1910   49.4260 C.2   330  TYR330      0.2264
    163  O        -52.0440  -47.2790   50.0270 O.2   330  TYR330     -0.2867
    164  CB       -50.3880  -45.3320   51.0000 C.3   330  TYR330      0.0534
    165  CG       -49.3070  -44.5910   51.7560 C.ar  330  TYR330     -0.0201
    166  CD1      -48.4400  -43.7260   51.0900 C.ar  330  TYR330     -0.0009
    167  CD2      -49.1720  -44.7190   53.1240 C.ar  330  TYR330     -0.0009
    168  CE1      -47.4460  -43.0240   51.7550 C.ar  330  TYR330      0.0417
    169  CE2      -48.1800  -44.0110   53.8140 C.ar  330  TYR330      0.0417
    170  CZ       -47.3170  -43.1650   53.1180 C.ar  330  TYR330      0.1957
    171  OH       -46.3250  -42.4580   53.7670 O.3   330  TYR330     -0.2866
    172  N        -59.3830  -32.8470   46.8480 N.3   396  PHE396     -0.1241
    173  CA       -58.9010  -31.5910   47.3890 C.3   396  PHE396      0.1605
    174  C        -59.2310  -30.4320   46.4660 C.2   396  PHE396      0.2264
    175  O        -59.9460  -29.5190   46.8780 O.2   396  PHE396     -0.2867
    176  CB       -57.3970  -31.6640   47.6570 C.3   396  PHE396      0.0534
    177  CG       -57.0070  -32.8050   48.5360 C.ar  396  PHE396     -0.0203
    178  CD1      -57.1460  -32.7120   49.9070 C.ar  396  PHE396     -0.0042
    179  CD2      -56.5110  -33.9770   47.9920 C.ar  396  PHE396     -0.0042
    180  CE1      -56.8080  -33.7690   50.7140 C.ar  396  PHE396     -0.0003
    181  CE2      -56.1700  -35.0310   48.7980 C.ar  396  PHE396     -0.0003
    182  CZ       -56.3200  -34.9290   50.1560 C.ar  396  PHE396     -0.0000
    183  N        -39.3610  -37.0320   48.6050 N.3   428  TRP428     -0.1241
    184  CA       -40.0620  -37.9560   47.7320 C.3   428  TRP428      0.1605
    185  C        -39.5690  -37.8010   46.2940 C.2   428  TRP428      0.2264
    186  O        -39.0200  -36.7570   45.9270 O.2   428  TRP428     -0.2867
    187  CB       -41.5600  -37.7100   47.8270 C.3   428  TRP428      0.0550
    188  CG       -42.1410  -37.9280   49.1940 C.ar  428  TRP428      0.0003
    189  CD1      -42.2660  -37.0020   50.1870 C.ar  428  TRP428      0.0946
    190  CD2      -42.6980  -39.1450   49.7090 C.ar  428  TRP428      0.0152
    191  NE1      -42.8680  -37.5670   51.2890 N.ar  428  TRP428     -0.2442
    192  CE2      -43.1390  -38.8830   51.0200 C.ar  428  TRP428      0.0810
    193  CE3      -42.8630  -40.4320   49.1900 C.ar  428  TRP428      0.0012
    194  CZ2      -43.7280  -39.8620   51.8220 C.ar  428  TRP428      0.0191
    195  CZ3      -43.4600  -41.3970   49.9820 C.ar  428  TRP428      0.0001
    196  CH2      -43.8840  -41.1070   51.2870 C.ar  428  TRP428      0.0015
    197  N        -49.1030  -32.7230   48.2430 N.3   436  HIS436     -0.1226
    198  CA       -49.9090  -32.4560   49.4240 C.3   436  HIS436      0.1752
    199  C        -49.0250  -32.2650   50.6470 C.2   436  HIS436      0.2596
    200  O        -48.1050  -33.0520   50.8870 O.2   436  HIS436     -0.2718
    201  CB       -50.8630  -33.6380   49.6220 C.3   436  HIS436      0.0759
    202  CG       -51.6910  -33.5640   50.8620 C.ar  436  HIS436      0.0818
    203  ND1      -52.7770  -32.7280   50.9790 N.ar  436  HIS436     -0.2268
    204  CD2      -51.6220  -34.2560   52.0230 C.ar  436  HIS436      0.1154
    205  CE1      -53.3360  -32.8970   52.1640 C.ar  436  HIS436      0.1986
    206  NE2      -52.6540  -33.8180   52.8190 N.ar  436  HIS436     -0.2212
    207  N        -49.2900  -31.1920   51.4040 N.am  437  GLY437     -0.1957
    208  CA       -48.5660  -30.8820   52.6190 C.3   437  GLY437      0.1869
    209  C        -47.3040  -30.0620   52.4410 C.2   437  GLY437      0.2309
    210  O        -46.8910  -29.3850   53.3840 O.2   437  GLY437     -0.2863
    211  N        -46.5260  -26.1370   53.3560 N.3   440  ILE440     -0.1245
    212  CA       -46.5760  -25.6530   54.7340 C.3   440  ILE440      0.1561
    213  C        -45.2370  -25.0460   55.1370 C.2   440  ILE440      0.2260
    214  O        -45.1830  -23.9700   55.7490 O.2   440  ILE440     -0.2867
    215  CB       -46.9770  -26.7930   55.6840 C.3   440  ILE440      0.0252
    216  CG1      -48.3520  -27.3530   55.3020 C.3   440  ILE440      0.0019
    217  CG2      -46.9110  -26.3180   57.1230 C.3   440  ILE440      0.0019
    218  CD1      -48.7180  -28.6550   55.9990 C.3   440  ILE440      0.0001
@<TRIPOS>BOND
     1   186   185    2
     2   185   184    1
     3   174   175    2
     4   174   173    1
     5   144   145    1
     6   172   173    1
     7   173   176    1
     8   151   152    2
     9   151   150    1
    10   176   177    1
    11   184   187    1
    12   184   183    1
    13   187   188    1
    14   149   150    1
    15   149   146   am
    16   179   177   ar
    17   179   181   ar
    18   145   146    1
    19   145   148    1
    20   197   198    1
    21   153   150    1
    22   153   154    1
    23   146   147    2
    24   177   178   ar
    25   160   161    1
    26   181   182   ar
    27   129   128    1
    28   155   154   ar
    29   155   157   ar
    30   193   190   ar
    31   193   195   ar
    32   188   190   ar
    33   188   189   ar
    34   154   156   ar
    35   198   201    1
    36   198   199    1
    37   162   161    1
    38   162   163    2
    39   201   202    1
    40   121   122    1
    41   121   120    1
    42   122   116    1
    43   190   192   ar
    44   157   159   ar
    45   161   164    1
    46   178   180   ar
    47   195   196   ar
    48   182   180   ar
    49   189   191   ar
    50   130   128    1
    51   128   127    1
    52   156   158   ar
    53   199   200    2
    54   199   207   am
    55   120   117    1
    56   202   203   ar
    57   202   204   ar
    58   203   205   ar
    59   164   165    1
    60   127   124    1
    61   192   191   ar
    62   192   194   ar
    63   159   158   ar
    64   116   117    1
    65   166   168   ar
    66   166   165   ar
    67   196   194   ar
    68   110   108   ar
    69   110   111   ar
    70   207   208    1
    71   108   107   ar
    72   123   118   am
    73   123   124    1
    74   117   118    1
    75   168   170   ar
    76   165   167   ar
    77   204   206   ar
    78   102   103    1
    79   118   119    2
    80   205   206   ar
    81   124   125    1
    82   209   208    1
    83   209   210    2
    84   111   113   ar
    85   111   109   ar
    86   107   106    1
    87   107   109   ar
    88    95    93   ar
    89   170   171    1
    90   170   169   ar
    91   167   169   ar
    92   106   103    1
    93   125   126    2
    94   125   131   am
    95   113   115   ar
    96   103   104    1
    97   211   212    1
    98   109   112   ar
    99   131   132    1
   100    93    92    1
   101    93    94   ar
   102   136   135    1
   103   115   114   ar
   104   104   105    2
   105    92    91    1
   106   212   213    1
   107   212   215    1
   108   132   135    1
   109   132   133    1
   110   101   100    1
   111   112   114   ar
   112    97    96    1
   113    97   100    1
   114    97    98    1
   115   213   214    2
   116    96    89   am
   117    33    34   ar
   118    33    31   ar
   119    36    34   ar
   120    36    38   ar
   121   216   215    1
   122   216   218    1
   123   215   217    1
   124    34    32   ar
   125    99    98    2
   126   133   134    2
   127   133   137   am
   128    38    37   ar
   129    91    88    1
   130    31    30   ar
   131    88    89    1
   132    88    87    1
   133    89    90    2
   134    24    22   ar
   135   137   138    1
   136   143   141    1
   137    23    22   ar
   138    32    30   ar
   139    32    35   ar
   140    30    29    1
   141    22    21    1
   142    37    35   ar
   143    54    53    2
   144   141   138    1
   145   141   142    1
   146   138   139    1
   147   140   139    2
   148    53    52    1
   149    53    55   am
   150    56    55    1
   151    56    57    1
   152    29    26    1
   153    51    52    1
   154    51    49   am
   155    21    18    1
   156    25    26    1
   157    48    49    1
   158    48    47    1
   159    57    58    2
   160    49    50    2
   161    26    27    1
   162    18    19    1
   163    18    17    1
   164    19    20    2
   165    86    85    1
   166    83    85   ar
   167    83    81   ar
   168    85    84   ar
   169    81    80   ar
   170    73    72    1
   171    64    65    1
   172    64    63    1
   173    27    39   am
   174    27    28    2
   175    17    11   am
   176    46    44   am
   177    66    65    2
   178    39    40    1
   179    45    44    2
   180    65    67   am
   181    75    76    1
   182    12    11    2
   183    44    43    1
   184    84    82   ar
   185    80    82   ar
   186    80    79    1
   187    63    60    1
   188    11    10    1
   189    76    79    1
   190    76    77    1
   191    59    60    1
   192    72    74    1
   193    72    69    1
   194    40    43    1
   195    40    41    1
   196    68    69    1
   197    68    61   am
   198    71    70    2
   199    60    61    1
   200    69    70    1
   201    77    78    2
   202    10     9    1
   203    10    13    1
   204    61    62    2
   205    15    13    1
   206    42    41    2
   207     9     3   am
   208     4     3    2
   209     5     6    1
   210     5     2    1
   211     3     2    1
   212    13    14    1
   213     8     6   am
   214     6     7    2
   215     2     1    1
   216    14    16    1
