@<TRIPOS>MOLECULE
tmp/6f7uA00.pdb
 112 106 0 0 0
SMALL
GASTEIGER

@<TRIPOS>ATOM
      1  N         12.9360   18.9700   15.4820 N.3     8  ALA8       -0.1231
      2  CA        13.2830   19.6290   14.2330 C.3     8  ALA8        0.1679
      3  C         13.6610   18.6210   13.1510 C.2     8  ALA8        0.2434
      4  O         14.1480   17.5200   13.4550 O.2     8  ALA8       -0.2733
      5  CB        14.4930   20.5380   14.4490 C.3     8  ALA8        0.0304
      6  N         13.4830   18.9850   11.8780 N.am    9  PRO9       -0.2718
      7  CA        13.8730   18.0810   10.7870 C.3     9  PRO9        0.1535
      8  C         15.3760   17.8410   10.8180 C.2     9  PRO9        0.2599
      9  O         16.1980   18.7780   10.7360 O.2     9  PRO9       -0.2715
     10  CB        13.4330   18.8410    9.5310 C.3     9  PRO9        0.0310
     11  CG        13.4280   20.2720    9.9310 C.3     9  PRO9        0.0237
     12  CD        12.9770   20.2770   11.3680 C.3     9  PRO9        0.0939
     13  N         15.7320   16.5740   10.9490 N.am   10  GLY10      -0.1941
     14  CA        17.1250   16.1740   11.0160 C.3    10  GLY10       0.2014
     15  C         17.6010   15.8770   12.4170 C.2    10  GLY10       0.2639
     16  O         18.7250   15.3680   12.5740 O.2    10  GLY10      -0.2714
     17  N         16.8140   16.1920   13.4390 N.am   11  ALA11      -0.1963
     18  CA        17.2520   15.9650   14.8060 C.3    11  ALA11       0.1728
     19  C         17.2980   14.4750   15.1360 C.2    11  ALA11       0.2617
     20  O         18.0940   14.0570   15.9890 O.2    11  ALA11      -0.2715
     21  CB        16.3620   16.7260   15.7840 C.3    11  ALA11       0.0334
     22  N         16.4640   13.6660   14.4810 N.am   12  GLY12      -0.1940
     23  CA        16.4830   12.2320   14.7100 C.3    12  GLY12       0.2014
     24  C         15.6720   11.7650   15.8990 C.2    12  GLY12       0.2639
     25  O         16.0600   10.7870   16.5520 O.2    12  GLY12      -0.2714
     26  N         14.5560   12.4320   16.2120 N.am   13  LYS13      -0.1963
     27  CA        13.7110   11.9800   17.3150 C.3    13  LYS13       0.1728
     28  C         13.2550   10.5350   17.1520 C.2    13  LYS13       0.2616
     29  O         13.0010    9.8590   18.1550 O.2    13  LYS13      -0.2715
     30  CB        12.5030   12.8900   17.4320 C.3    13  LYS13       0.0311
     31  CG        11.5470   12.8660   16.2520 C.3    13  LYS13       0.0038
     32  CD        10.4540   13.9350   16.3580 C.3    13  LYS13       0.0206
     33  CE         9.8720   14.4490   15.0190 C.3    13  LYS13       0.1093
     34  NZ         9.4990   13.4230   13.9890 N.3    13  LYS13      -0.1314
     35  N         13.1560   10.0560   15.9090 N.am   14  GLY14      -0.1955
     36  CA        12.7140    8.6930   15.6660 C.3    14  GLY14       0.1869
     37  C         13.6250    7.6470   16.2610 C.2    14  GLY14       0.2309
     38  O         13.2100    6.4900   16.4050 O.2    14  GLY14      -0.2863
     39  N          3.3600    3.8590   16.9820 N.3    28  GLN28      -0.1245
     40  CA         3.8210    5.1590   16.5180 C.3    28  GLN28       0.1566
     41  C          2.9120    5.5730   15.3750 C.2    28  GLN28       0.2260
     42  O          2.7240    4.8310   14.4000 O.2    28  GLN28      -0.2867
     43  CB         5.2640    5.0250   16.0340 C.3    28  GLN28       0.0367
     44  CG         5.9040    6.2870   15.4400 C.3    28  GLN28       0.0905
     45  CD         7.3060    6.0180   14.8760 C.2    28  GLN28       0.2608
     46  OE1        7.7000    4.8700   14.6480 O.2    28  GLN28      -0.2717
     47  NE2        8.0420    7.0630   14.6580 N.am   28  GLN28      -0.0878
     48  N          3.8990   11.2400   16.4160 N.3    84  ASP84      -0.1239
     49  CA         5.2150   11.6890   16.0010 C.3    84  ASP84       0.1674
     50  C          5.0940   12.9160   15.1150 C.2    84  ASP84       0.2266
     51  O          4.6010   12.8210   13.9920 O.2    84  ASP84      -0.2867
     52  CB         5.8390   10.5450   15.2050 C.3    84  ASP84       0.1410
     53  CG         7.2600   10.8080   14.7840 C.2    84  ASP84       0.3668
     54  OD1        7.9090    9.8470   14.3250 O.co2  84  ASP84      -0.2456
     55  OD2        7.7540   11.9310   14.9170 O.co2  84  ASP84      -0.2456
     56  N         24.9500   16.3380   11.0820 N.3   119  ARG119     -0.1231
     57  CA        24.3310   15.0150   10.9890 C.3   119  ARG119      0.1694
     58  C         23.8110   14.7330    9.5830 C.2   119  ARG119      0.2591
     59  O         23.7920   13.5730    9.1550 O.2   119  ARG119     -0.2718
     60  CB        23.2020   14.9050   12.0280 C.3   119  ARG119      0.0321
     61  CG        22.3800   13.5970   12.0250 C.3   119  ARG119      0.0489
     62  CD        21.4180   13.5320   13.2280 C.3   119  ARG119      0.2205
     63  NE        20.8140   12.2100   13.4070 N.pl3 119  ARG119     -0.0865
     64  CZ        19.6350   11.8290   12.9190 C.cat 119  ARG119      0.5346
     65  NH1       18.8930   12.6630   12.2050 N.pl3 119  ARG119      0.1354
     66  NH2       19.1940   10.6030   13.1480 N.pl3 119  ARG119      0.1354
     67  N         23.4120   15.7650    8.8450 N.am  120  ILE120     -0.1980
     68  CA        22.7740   15.5970    7.5360 C.3   120  ILE120      0.1595
     69  C         23.7560   15.7740    6.3890 C.2   120  ILE120      0.2287
     70  O         23.7670   14.9800    5.4490 O.2   120  ILE120     -0.2864
     71  CB        21.5580   16.5400    7.3790 C.3   120  ILE120      0.0276
     72  CG1       20.4300   16.1250    8.3290 C.3   120  ILE120      0.0022
     73  CG2       21.0820   16.5600    5.9040 C.3   120  ILE120      0.0022
     74  CD1       19.1030   16.8190    8.0610 C.3   120  ILE120      0.0001
     75  N         25.8420   12.8820    5.0500 N.3   123  ARG123     -0.1245
     76  CA        25.2180   11.6680    4.5390 C.3   123  ARG123      0.1563
     77  C         25.5680   11.4590    3.0710 C.2   123  ARG123      0.2260
     78  O         25.6420   12.4130    2.2920 O.2   123  ARG123     -0.2867
     79  CB        23.6940   11.7450    4.6580 C.3   123  ARG123      0.0307
     80  CG        23.1120   11.4450    6.0160 C.3   123  ARG123      0.0489
     81  CD        21.6090   11.6200    5.9270 C.3   123  ARG123      0.2205
     82  NE        20.9220   11.3890    7.1900 N.pl3 123  ARG123     -0.0865
     83  CZ        19.6710   11.7620    7.4320 C.cat 123  ARG123      0.5346
     84  NH1       19.1210   11.5070    8.6130 N.pl3 123  ARG123      0.1354
     85  NH2       18.9730   12.4000    6.4990 N.pl3 123  ARG123      0.1354
     86  N         18.2630   17.1380   -1.2730 N.3   158  ASP158     -0.1225
     87  CA        17.5840   17.6180   -0.0760 C.3   158  ASP158      0.1805
     88  C         18.5360   17.7950    1.0820 C.2   158  ASP158      0.2597
     89  O         18.2400   18.5750    1.9930 O.2   158  ASP158     -0.2718
     90  CB        16.5390   16.6140    0.3960 C.3   158  ASP158      0.1424
     91  CG        15.1700   16.9070   -0.1400 C.2   158  ASP158      0.3668
     92  OD1       14.9750   17.9940   -0.7240 O.co2 158  ASP158     -0.2456
     93  OD2       14.2850   16.0440    0.0380 O.co2 158  ASP158     -0.2456
     94  N         19.6480   17.0650    1.0860 N.am  159  ASP159     -0.1974
     95  CA        20.6200   17.1390    2.1630 C.3   159  ASP159      0.1709
     96  C         21.6630   18.2350    1.9490 C.2   159  ASP159      0.2293
     97  O         22.6200   18.3120    2.7190 O.2   159  ASP159     -0.2864
     98  CB        21.3050   15.7780    2.3530 C.3   159  ASP159      0.1436
     99  CG        20.3300   14.6770    2.7640 C.2   159  ASP159      0.3671
    100  OD1       19.1550   14.9910    3.0480 O.co2 159  ASP159     -0.2456
    101  OD2       20.7410   13.4960    2.8120 O.co2 159  ASP159     -0.2456
    102  N         15.3280   24.9910    6.1280 N.3   167  ARG167     -0.1245
    103  CA        14.2840   24.2200    6.7970 C.3   167  ARG167      0.1563
    104  C         14.2950   24.4720    8.2930 C.2   167  ARG167      0.2260
    105  O         13.2270   24.5610    8.9230 O.2   167  ARG167     -0.2867
    106  CB        14.4690   22.7180    6.5480 C.3   167  ARG167      0.0307
    107  CG        13.9810   22.2240    5.1970 C.3   167  ARG167      0.0489
    108  CD        13.6970   20.7130    5.2080 C.3   167  ARG167      0.2205
    109  NE        14.8320   19.8820    5.6150 N.pl3 167  ARG167     -0.0865
    110  CZ        15.6540   19.2490    4.7780 C.cat 167  ARG167      0.5346
    111  NH1       15.4940   19.3460    3.4640 N.pl3 167  ARG167      0.1354
    112  NH2       16.6440   18.5100    5.2580 N.pl3 167  ARG167      0.1354
@<TRIPOS>BOND
     1    86    87    1
     2    92    91   ar
     3    91    93   ar
     4    91    90    1
     5    87    90    1
     6    87    88    1
     7    88    94   am
     8    88    89    2
     9    94    95    1
    10    96    95    1
    11    96    97    2
    12    95    98    1
    13    78    77    2
    14    98    99    1
    15    99   101   ar
    16    99   100   ar
    17    77    76    1
    18   111   110    1
    19    76    79    1
    20    76    75    1
    21    79    80    1
    22   110   112    1
    23   110   109    2
    24   107   108    1
    25   107   106    1
    26   108   109    1
    27    70    69    2
    28    73    71    1
    29    81    80    1
    30    81    82    1
    31   102   103    1
    32    69    68    1
    33    85    83    1
    34   106   103    1
    35   103   104    1
    36    82    83    2
    37    71    68    1
    38    71    72    1
    39    83    84    1
    40    68    67    1
    41    74    72    1
    42   104   105    2
    43    67    58   am
    44    59    58    2
    45    10    11    1
    46    10     7    1
    47    58    57    1
    48    11    12    1
    49     9     8    2
    50     7     8    1
    51     7     6    1
    52     8    13   am
    53    13    14    1
    54    57    56    1
    55    57    60    1
    56    14    15    1
    57    12     6    1
    58     6     3   am
    59    61    60    1
    60    61    62    1
    61    65    64    1
    62    15    16    2
    63    15    17   am
    64    64    66    1
    65    64    63    2
    66     3     4    2
    67     3     2    1
    68    62    63    1
    69    17    18    1
    70    34    33    1
    71    51    50    2
    72     2     5    1
    73     2     1    1
    74    54    53   ar
    75    42    41    2
    76    22    23    1
    77    22    19   am
    78    46    45    2
    79    47    45   am
    80    23    24    1
    81    53    55   ar
    82    53    52    1
    83    18    19    1
    84    18    21    1
    85    45    44    1
    86    33    32    1
    87    50    49    1
    88    19    20    2
    89    52    49    1
    90    41    40    1
    91    44    43    1
    92    36    35    1
    93    36    37    1
    94    24    26   am
    95    24    25    2
    96    35    28   am
    97    49    48    1
    98    43    40    1
    99    26    27    1
   100    31    32    1
   101    31    30    1
   102    37    38    2
   103    40    39    1
   104    28    27    1
   105    28    29    2
   106    27    30    1
