@<TRIPOS>MOLECULE
tmp/6f7xB00.pdb
 113 109 0 0 0
SMALL
GASTEIGER

@<TRIPOS>ATOM
      1  N         17.2610  -52.7020  -24.3380 N.3     9  TRP9       -0.1241
      2  CA        15.8210  -52.6380  -24.1680 C.3     9  TRP9        0.1605
      3  C         15.0730  -53.4710  -25.1940 C.2     9  TRP9        0.2264
      4  O         15.5490  -53.7100  -26.3190 O.2     9  TRP9       -0.2867
      5  CB        15.3430  -51.1720  -24.1990 C.3     9  TRP9        0.0550
      6  CG        15.4920  -50.4590  -25.5020 C.ar    9  TRP9        0.0003
      7  CD1       14.6040  -50.4790  -26.5430 C.ar    9  TRP9        0.0946
      8  CD2       16.5690  -49.6080  -25.9190 C.ar    9  TRP9        0.0152
      9  NE1       15.0420  -49.6770  -27.5600 N.ar    9  TRP9       -0.2442
     10  CE2       16.2480  -49.1310  -27.2120 C.ar    9  TRP9        0.0810
     11  CE3       17.7660  -49.1990  -25.3330 C.ar    9  TRP9        0.0012
     12  CZ2       17.0940  -48.2770  -27.9290 C.ar    9  TRP9        0.0191
     13  CZ3       18.6080  -48.3260  -26.0530 C.ar    9  TRP9        0.0001
     14  CH2       18.2550  -47.8760  -27.3240 C.ar    9  TRP9        0.0015
     15  N         22.9560  -50.1720  -26.6420 N.3    16  ARG16      -0.1245
     16  CA        23.8510  -49.0220  -26.8110 C.3    16  ARG16       0.1563
     17  C         25.0600  -49.1970  -25.9120 C.2    16  ARG16       0.2260
     18  O         24.9120  -49.5050  -24.7370 O.2    16  ARG16      -0.2867
     19  CB        23.1400  -47.7180  -26.4800 C.3    16  ARG16       0.0307
     20  CG        21.9370  -47.4180  -27.3460 C.3    16  ARG16       0.0489
     21  CD        22.3110  -47.1180  -28.7740 C.3    16  ARG16       0.2205
     22  NE        21.1450  -46.8220  -29.6080 N.pl3  16  ARG16      -0.0865
     23  CZ        20.3990  -47.7140  -30.2670 C.cat  16  ARG16       0.5346
     24  NH1       20.6460  -49.0210  -30.2120 N.pl3  16  ARG16       0.1354
     25  NH2       19.3700  -47.2880  -30.9910 N.pl3  16  ARG16       0.1354
     26  N         29.4300  -43.5980  -29.0840 N.3    26  GLU26      -0.1245
     27  CA        28.3230  -44.5270  -28.9690 C.3    26  GLU26       0.1567
     28  C         28.2600  -45.4720  -30.1510 C.2    26  GLU26       0.2260
     29  O         28.3060  -45.0360  -31.3060 O.2    26  GLU26      -0.2867
     30  CB        27.0170  -43.7490  -28.9030 C.3    26  GLU26       0.0388
     31  CG        25.7440  -44.5850  -28.7580 C.3    26  GLU26       0.1160
     32  CD        24.4690  -43.7690  -28.8460 C.2    26  GLU26       0.3649
     33  OE1       24.3550  -42.9210  -29.7420 O.co2  26  GLU26      -0.2457
     34  OE2       23.5690  -43.9870  -28.0170 O.co2  26  GLU26      -0.2457
     35  N         25.7570  -48.7610  -31.5910 N.3    28  CYS28      -0.1235
     36  CA        24.3370  -49.0970  -31.5450 C.3    28  CYS28       0.1677
     37  C         24.0310  -50.3910  -32.2600 C.2    28  CYS28       0.2270
     38  O         24.5840  -50.6530  -33.3240 O.2    28  CYS28      -0.2867
     39  CB        23.5320  -48.0060  -32.2450 C.3    28  CYS28       0.0956
     40  SG        23.8870  -46.3370  -31.6830 S.3    28  CYS28      -0.0801
     41  N         20.3880  -52.4120  -33.2900 N.3    30  ASP30      -0.1239
     42  CA        18.9280  -52.5710  -33.2910 C.3    30  ASP30       0.1674
     43  C         18.5050  -53.8170  -34.0610 C.2    30  ASP30       0.2266
     44  O         17.3730  -53.8950  -34.5600 O.2    30  ASP30      -0.2867
     45  CB        18.2600  -51.3520  -33.9040 C.3    30  ASP30       0.1410
     46  CG        18.6200  -50.0810  -33.1980 C.2    30  ASP30       0.3668
     47  OD1       18.4260  -50.0000  -31.9680 O.co2  30  ASP30      -0.2456
     48  OD2       19.0910  -49.1560  -33.8930 O.co2  30  ASP30      -0.2456
     49  N         26.2860  -49.9560  -35.6400 N.3    34  TYR34      -0.1241
     50  CA        26.5340  -48.6770  -36.2860 C.3    34  TYR34       0.1605
     51  C         26.8770  -47.5950  -35.2640 C.2    34  TYR34       0.2264
     52  O         26.6240  -47.7500  -34.0840 O.2    34  TYR34      -0.2867
     53  CB        25.3330  -48.2730  -37.1480 C.3    34  TYR34       0.0534
     54  CG        24.0720  -47.9820  -36.3780 C.ar   34  TYR34      -0.0201
     55  CD1       23.1630  -49.0060  -36.0660 C.ar   34  TYR34      -0.0009
     56  CD2       23.7610  -46.6730  -35.9680 C.ar   34  TYR34      -0.0009
     57  CE1       21.9980  -48.7300  -35.3680 C.ar   34  TYR34       0.0417
     58  CE2       22.5970  -46.3960  -35.2600 C.ar   34  TYR34       0.0417
     59  CZ        21.7200  -47.4150  -34.9770 C.ar   34  TYR34       0.1957
     60  OH        20.5880  -47.1480  -34.2810 O.3    34  TYR34      -0.2866
     61  N         26.4280  -44.2810  -33.3150 N.3    36  GLY36      -0.1210
     62  CA        25.3080  -43.4510  -32.8970 C.3    36  GLY36       0.1956
     63  C         25.6560  -41.9920  -32.8290 C.2    36  GLY36       0.2611
     64  O         26.8130  -41.6040  -32.9680 O.2    36  GLY36      -0.2717
     65  N         24.6370  -41.1800  -32.5910 N.am   37  ALA37      -0.1979
     66  CA        24.7760  -39.7180  -32.5830 C.3    37  ALA37       0.1597
     67  C         25.4180  -39.1480  -31.3240 C.2    37  ALA37       0.2287
     68  O         25.7740  -37.9690  -31.3000 O.2    37  ALA37      -0.2864
     69  CB        23.4130  -39.0850  -32.7760 C.3    37  ALA37       0.0319
     70  N         12.0610  -45.2740  -26.2690 N.3    56  ILE56      -0.1245
     71  CA        13.2070  -45.3750  -25.3700 C.3    56  ILE56       0.1561
     72  C         13.5850  -44.0250  -24.8160 C.2    56  ILE56       0.2260
     73  O         13.5430  -43.0180  -25.5090 O.2    56  ILE56      -0.2867
     74  CB        14.4270  -46.0420  -26.0380 C.3    56  ILE56       0.0252
     75  CG1       15.4720  -46.4220  -24.9870 C.3    56  ILE56       0.0019
     76  CG2       15.0500  -45.1790  -27.1400 C.3    56  ILE56       0.0019
     77  CD1       15.0210  -47.4100  -23.9670 C.3    56  ILE56       0.0001
     78  N         16.8970  -42.5000  -22.5910 N.3    58  ILE58      -0.1245
     79  CA        18.2520  -42.8250  -22.1310 C.3    58  ILE58       0.1561
     80  C         18.8100  -41.6350  -21.3660 C.2    58  ILE58       0.2260
     81  O         18.5790  -40.4860  -21.7390 O.2    58  ILE58      -0.2867
     82  CB        19.1840  -43.1450  -23.3150 C.3    58  ILE58       0.0252
     83  CG1       18.4920  -44.0990  -24.3040 C.3    58  ILE58       0.0019
     84  CG2       20.4910  -43.7290  -22.8010 C.3    58  ILE58       0.0019
     85  CD1       19.2790  -44.4350  -25.5430 C.3    58  ILE58       0.0001
     86  N         18.3290  -38.6560  -24.0270 N.3    73  TRP73      -0.1241
     87  CA        17.6650  -38.9910  -25.2720 C.3    73  TRP73       0.1605
     88  C         16.2310  -39.3230  -24.9290 C.2    73  TRP73       0.2264
     89  O         15.9770  -40.2120  -24.1210 O.2    73  TRP73      -0.2867
     90  CB        18.3000  -40.2120  -25.9330 C.3    73  TRP73       0.0550
     91  CG        17.5860  -40.6230  -27.1840 C.ar   73  TRP73       0.0003
     92  CD1       16.5470  -41.4610  -27.2650 C.ar   73  TRP73       0.0946
     93  CD2       17.8560  -40.1880  -28.5160 C.ar   73  TRP73       0.0152
     94  NE1       16.1350  -41.6030  -28.5700 N.ar   73  TRP73      -0.2442
     95  CE2       16.9370  -40.8310  -29.3580 C.ar   73  TRP73       0.0810
     96  CE3       18.7830  -39.2990  -29.0820 C.ar   73  TRP73       0.0012
     97  CZ2       16.9180  -40.6360  -30.7430 C.ar   73  TRP73       0.0191
     98  CZ3       18.7800  -39.1210  -30.4760 C.ar   73  TRP73       0.0001
     99  CH2       17.8450  -39.7720  -31.2790 C.ar   73  TRP73       0.0015
    100  N         19.8930  -35.5080  -28.4130 N.3    78  TRP78      -0.1241
    101  CA        20.5070  -35.4940  -27.0810 C.3    78  TRP78       0.1605
    102  C         20.4940  -34.0800  -26.5090 C.2    78  TRP78       0.2264
    103  O         20.9280  -33.1520  -27.1800 O.2    78  TRP78      -0.2867
    104  CB        21.9420  -36.0020  -27.1500 C.3    78  TRP78       0.0550
    105  CG        22.0480  -37.4660  -27.3890 C.ar   78  TRP78       0.0003
    106  CD1       22.2720  -38.0870  -28.5810 C.ar   78  TRP78       0.0946
    107  CD2       21.9300  -38.4960  -26.4150 C.ar   78  TRP78       0.0152
    108  NE1       22.3030  -39.4470  -28.4040 N.ar   78  TRP78      -0.2442
    109  CE2       22.1060  -39.7260  -27.0840 C.ar   78  TRP78       0.0810
    110  CE3       21.7070  -38.5020  -25.0320 C.ar   78  TRP78       0.0012
    111  CZ2       22.0750  -40.9560  -26.4230 C.ar   78  TRP78       0.0191
    112  CZ3       21.6770  -39.7190  -24.3670 C.ar   78  TRP78       0.0001
    113  CH2       21.8610  -40.9380  -25.0730 C.ar   78  TRP78       0.0015
@<TRIPOS>BOND
     1    53    54    1
     2    53    50    1
     3    54    55   ar
     4    54    56   ar
     5    50    49    1
     6    50    51    1
     7    55    57   ar
     8    56    58   ar
     9    57    59   ar
    10    51    52    2
    11    58    59   ar
    12    59    60    1
    13    44    43    2
    14    43    42    1
    15    45    42    1
    16    45    46    1
    17    48    46   ar
    18    38    37    2
    19    61    62    1
    20    42    41    1
    21    46    47   ar
    22    64    63    2
    23    62    63    1
    24    63    65   am
    25    69    66    1
    26    65    66    1
    27    66    67    1
    28    37    36    1
    29    39    40    1
    30    39    36    1
    31    35    36    1
    32    67    68    2
    33    29    28    2
    34    99    97   ar
    35    99    98   ar
    36    25    23    1
    37    97    95   ar
    38    98    96   ar
    39    23    24    1
    40    23    22    2
    41    28    27    1
    42    33    32   ar
    43    22    21    1
    44    95    94   ar
    45    95    93   ar
    46    26    27    1
    47    96    93   ar
    48    27    30    1
    49    30    31    1
    50    32    31    1
    51    32    34   ar
    52    21    20    1
    53   106   108   ar
    54   106   105   ar
    55    94    92   ar
    56    93    91   ar
    57   100   101    1
    58   108   109   ar
    59    12    14   ar
    60    12    10   ar
    61     9    10   ar
    62     9     7   ar
    63   105   104    1
    64   105   107   ar
    65    20    19    1
    66    14    13   ar
    67    92    91   ar
    68    10     8   ar
    69    91    90    1
    70   103   102    2
    71   104   101    1
    72    76    74    1
    73   109   111   ar
    74   109   107   ar
    75   101   102    1
    76    16    15    1
    77    16    19    1
    78    16    17    1
    79     7     6   ar
    80   111   113   ar
    81   107   110   ar
    82     4     3    2
    83    70    71    1
    84    13    11   ar
    85    74    71    1
    86    74    75    1
    87    90    87    1
    88     8     6   ar
    89     8    11   ar
    90    17    18    2
    91    85    83    1
    92    73    72    2
    93     6     5    1
    94    71    72    1
    95    87    88    1
    96    87    86    1
    97     3     2    1
    98   113   112   ar
    99   110   112   ar
   100    75    77    1
   101    88    89    2
   102     1     2    1
   103    83    82    1
   104     5     2    1
   105    82    84    1
   106    82    79    1
   107    78    79    1
   108    79    80    1
   109    81    80    2
