@<TRIPOS>MOLECULE
tmp/6f83B00.pdb
 136 130 0 0 0
SMALL
GASTEIGER

@<TRIPOS>ATOM
      1  N          0.0800   39.3860   19.4470 N.3    28  SER28      -0.1202
      2  CA         1.2780   39.4510   18.6210 C.3    28  SER28       0.2020
      3  C          1.8900   38.0650   18.4470 C.2    28  SER28       0.2619
      4  O          1.5920   37.1480   19.1910 O.2    28  SER28      -0.2717
      5  CB         2.3260   40.4140   19.2140 C.3    28  SER28       0.2103
      6  OG         2.8890   39.9280   20.4160 O.3    28  SER28      -0.2182
      7  N          2.7270   37.9110   17.4340 N.am   29  PHE29      -0.1961
      8  CA         3.6070   36.7490   17.3780 C.3    29  PHE29       0.1771
      9  C          5.0130   37.1470   17.0450 C.2    29  PHE29       0.2619
     10  O          5.2550   38.2640   16.6020 O.2    29  PHE29      -0.2715
     11  CB         3.0910   35.6800   16.4460 C.3    29  PHE29       0.0574
     12  CG         3.0070   36.0730   15.0000 C.ar   29  PHE29      -0.0200
     13  CD1        4.0280   35.7510   14.1200 C.ar   29  PHE29      -0.0042
     14  CD2        1.8540   36.6570   14.4940 C.ar   29  PHE29      -0.0042
     15  CE1        3.9210   36.0560   12.7820 C.ar   29  PHE29      -0.0003
     16  CE2        1.7430   36.9630   13.1520 C.ar   29  PHE29      -0.0003
     17  CZ         2.7800   36.6580   12.2950 C.ar   29  PHE29      -0.0000
     18  N          5.9360   36.2300   17.3030 N.am   30  VAL30      -0.1977
     19  CA         7.3510   36.4590   17.0830 C.3    30  VAL30       0.1596
     20  C          7.8960   35.3310   16.1960 C.2    30  VAL30       0.2287
     21  O          7.5380   34.1580   16.3630 O.2    30  VAL30      -0.2864
     22  CB         8.1030   36.5030   18.4340 C.3    30  VAL30       0.0276
     23  CG1        9.6160   36.4850   18.2300 C.3    30  VAL30       0.0022
     24  CG2        7.6970   37.7330   19.2470 C.3    30  VAL30       0.0022
     25  N         14.5080   39.5250   14.7720 N.3    42  HIS42      -0.1241
     26  CA        13.3480   39.3580   15.6490 C.3    42  HIS42       0.1621
     27  C         12.1990   40.0360   14.9580 C.2    42  HIS42       0.2264
     28  O         12.1580   41.2340   14.8560 O.2    42  HIS42      -0.2867
     29  CB        13.6320   39.9910   16.9950 C.3    42  HIS42       0.0745
     30  CG        12.4090   40.1960   17.8620 C.ar   42  HIS42       0.0817
     31  ND1       11.8580   39.1990   18.5730 N.ar   42  HIS42      -0.2268
     32  CD2       11.6640   41.3410   18.1410 C.ar   42  HIS42       0.1154
     33  CE1       10.8030   39.6730   19.2670 C.ar   42  HIS42       0.1986
     34  NE2       10.6790   40.9800   18.9940 N.ar   42  HIS42      -0.2212
     35  N          8.2540   40.7480   14.7300 N.3    44  ASN44      -0.1240
     36  CA         7.2140   40.8150   15.7460 C.3    44  ASN44       0.1653
     37  C          5.9840   41.5920   15.2700 C.2    44  ASN44       0.2266
     38  O          5.8330   42.7850   15.5690 O.2    44  ASN44      -0.2867
     39  CB         7.7860   41.4660   17.0270 C.3    44  ASN44       0.1155
     40  CG         6.8150   41.4610   18.1810 C.2    44  ASN44       0.2627
     41  OD1        6.9280   42.2760   19.0930 O.2    44  ASN44      -0.2716
     42  ND2        5.8730   40.5390   18.1660 N.am   44  ASN44      -0.0877
     43  N          2.5810   43.0020   15.6620 N.3    46  ARG46      -0.1245
     44  CA         1.7470   43.3460   16.8120 C.3    46  ARG46       0.1563
     45  C          0.3920   43.8130   16.3420 C.2    46  ARG46       0.2260
     46  O          0.2950   44.8170   15.6520 O.2    46  ARG46      -0.2867
     47  CB         2.3750   44.4790   17.6160 C.3    46  ARG46       0.0307
     48  CG         3.7720   44.1510   18.0630 C.3    46  ARG46       0.0489
     49  CD         4.4210   45.2540   18.8530 C.3    46  ARG46       0.2205
     50  NE         5.7310   44.8170   19.3270 N.pl3  46  ARG46      -0.0865
     51  CZ         6.5220   45.5190   20.1310 C.cat  46  ARG46       0.5346
     52  NH1        7.7030   45.0250   20.4890 N.pl3  46  ARG46       0.1354
     53  NH2        6.1490   46.7130   20.5730 N.pl3  46  ARG46       0.1354
     54  N          1.8310   46.2720   23.6950 N.3    50  HIS50      -0.1226
     55  CA         2.8000   47.3200   24.0910 C.3    50  HIS50       0.1752
     56  C          2.5120   48.6630   23.4710 C.2    50  HIS50       0.2597
     57  O          3.4290   49.4080   23.1130 O.2    50  HIS50      -0.2718
     58  CB         4.2430   46.8950   23.8010 C.3    50  HIS50       0.0759
     59  CG         4.5420   45.4570   24.1600 C.ar   50  HIS50       0.0818
     60  ND1        4.7990   45.0570   25.4270 N.ar   50  HIS50      -0.2268
     61  CD2        4.5910   44.3150   23.3680 C.ar   50  HIS50       0.1154
     62  CE1        5.0170   43.7260   25.4390 C.ar   50  HIS50       0.1986
     63  NE2        4.8880   43.2710   24.1790 N.ar   50  HIS50      -0.2212
     64  N          1.2260   48.9750   23.3310 N.am   51  GLY51      -0.1942
     65  CA         0.7900   50.2650   22.7960 C.3    51  GLY51       0.2014
     66  C          0.8330   50.3630   21.2830 C.2    51  GLY51       0.2638
     67  O          0.5010   51.4020   20.7300 O.2    51  GLY51      -0.2714
     68  N          1.2300   49.2780   20.6210 N.am   52  ASP52      -0.1971
     69  CA         1.2620   49.1980   19.1590 C.3    52  ASP52       0.1709
     70  C          0.0010   48.5230   18.6370 C.2    52  ASP52       0.2293
     71  O         -0.4310   47.5090   19.1800 O.2    52  ASP52      -0.2864
     72  CB         2.4440   48.3560   18.6940 C.3    52  ASP52       0.1436
     73  CG         3.7260   49.1240   18.6580 C.2    52  ASP52       0.3671
     74  OD1        3.7850   50.1250   17.9160 O.co2  52  ASP52      -0.2456
     75  OD2        4.6830   48.7100   19.3450 O.co2  52  ASP52      -0.2456
     76  N          7.1910   45.2490   14.2040 N.3    57  VAL57      -0.1245
     77  CA         8.4020   45.7070   14.8550 C.3    57  VAL57       0.1561
     78  C          9.5080   44.6890   14.5790 C.2    57  VAL57       0.2260
     79  O          9.2930   43.4940   14.7550 O.2    57  VAL57      -0.2867
     80  CB         8.1940   45.8280   16.3790 C.3    57  VAL57       0.0252
     81  CG1        9.4910   46.2360   17.0560 C.3    57  VAL57       0.0019
     82  CG2        7.0970   46.8360   16.6850 C.3    57  VAL57       0.0019
     83  N         13.7350   43.7950   15.1830 N.3    58  ASN58      -0.1240
     84  CA        14.9360   44.1110   15.9200 C.3    58  ASN58       0.1653
     85  C         15.9650   43.0040   15.7300 C.2    58  ASN58       0.2266
     86  O         15.6640   41.9650   15.1150 O.2    58  ASN58      -0.2867
     87  CB        14.5960   44.3160   17.4120 C.3    58  ASN58       0.1155
     88  CG        15.5140   45.3100   18.0920 C.2    58  ASN58       0.2627
     89  OD1       16.6200   45.5480   17.6200 O.2    58  ASN58      -0.2716
     90  ND2       15.0730   45.8800   19.2130 N.am   58  ASN58      -0.0877
     91  N         19.5710   43.7100   22.8560 N.3    65  TRP65      -0.1241
     92  CA        18.6920   44.2650   21.8480 C.3    65  TRP65       0.1605
     93  C         19.3290   45.4190   21.1260 C.2    65  TRP65       0.2264
     94  O         20.1020   46.1880   21.7060 O.2    65  TRP65      -0.2867
     95  CB        17.3910   44.7580   22.4690 C.3    65  TRP65       0.0550
     96  CG        16.5080   43.6510   22.9750 C.ar   65  TRP65       0.0003
     97  CD1       16.1840   43.3670   24.3030 C.ar   65  TRP65       0.0946
     98  CD2       15.8090   42.6330   22.1890 C.ar   65  TRP65       0.0152
     99  NE1       15.3500   42.2780   24.3830 N.ar   65  TRP65      -0.2442
    100  CE2       15.0780   41.7980   23.1510 C.ar   65  TRP65       0.0810
    101  CE3       15.7020   42.3490   20.8430 C.ar   65  TRP65       0.0012
    102  CZ2       14.3000   40.7230   22.7500 C.ar   65  TRP65       0.0191
    103  CZ3       14.9100   41.2670   20.4510 C.ar   65  TRP65       0.0001
    104  CH2       14.2320   40.4710   21.3840 C.ar   65  TRP65       0.0015
    105  N         14.8910   49.2970   17.3940 N.3    68  GLU68      -0.1245
    106  CA        13.6710   48.8680   16.7330 C.3    68  GLU68       0.1567
    107  C         13.5020   49.5580   15.3980 C.2    68  GLU68       0.2260
    108  O         13.7590   50.7560   15.2780 O.2    68  GLU68      -0.2867
    109  CB        12.4390   49.1910   17.6100 C.3    68  GLU68       0.0388
    110  CG        12.3440   48.3470   18.8640 C.3    68  GLU68       0.1160
    111  CD        11.0490   48.5400   19.6390 C.2    68  GLU68       0.3649
    112  OE1       10.3400   49.5380   19.4180 O.co2  68  GLU68      -0.2457
    113  OE2       10.7350   47.6820   20.4800 O.co2  68  GLU68      -0.2457
    114  N         10.3260   49.9640   12.5930 N.3    70  ARG70      -0.1245
    115  CA         8.8890   49.7320   12.4820 C.3    70  ARG70       0.1563
    116  C          8.4640   49.8670   11.0330 C.2    70  ARG70       0.2260
    117  O          9.0420   50.6480   10.2980 O.2    70  ARG70      -0.2867
    118  CB         8.0990   50.7450   13.3360 C.3    70  ARG70       0.0307
    119  CG         8.2810   50.6040   14.8420 C.3    70  ARG70       0.0489
    120  CD         7.3590   51.5500   15.6470 C.3    70  ARG70       0.2205
    121  NE         6.8710   50.9030   16.8760 N.pl3  70  ARG70      -0.0865
    122  CZ         7.6640   50.4830   17.8670 C.cat  70  ARG70       0.5346
    123  NH1        7.1550   49.8850   18.9360 N.pl3  70  ARG70       0.1354
    124  NH2        8.9770   50.6730   17.8070 N.pl3  70  ARG70       0.1354
    125  N          7.1730   32.3300   18.8300 N.3   119  ASP119     -0.1225
    126  CA         6.5100   32.5670   20.1180 C.3   119  ASP119      0.1805
    127  C          5.2110   33.3460   19.9020 C.2   119  ASP119      0.2598
    128  O          4.9730   33.9020   18.8230 O.2   119  ASP119     -0.2718
    129  CB         7.4280   33.3590   21.0640 C.3   119  ASP119      0.1424
    130  CG         7.1600   33.0690   22.5340 C.2   119  ASP119      0.3668
    131  OD1        6.2600   32.2560   22.8270 O.co2 119  ASP119     -0.2456
    132  OD2        7.8500   33.6600   23.3990 O.co2 119  ASP119     -0.2456
    133  N          4.3630   33.3800   20.9230 N.am  120  GLY120     -0.1957
    134  CA         3.1900   34.2340   20.8680 C.3   120  GLY120      0.1869
    135  C          2.0690   33.5380   20.1440 C.2   120  GLY120      0.2309
    136  O          2.0290   32.3140   20.0930 O.2   120  GLY120     -0.2863
@<TRIPOS>BOND
     1   117   116    2
     2   116   115    1
     3    17    15   ar
     4    17    16   ar
     5   115   114    1
     6   115   118    1
     7    15    13   ar
     8    16    14   ar
     9   118   119    1
    10    13    12   ar
    11    76    77    1
    12    14    12   ar
    13    78    79    2
    14    78    77    1
    15    35    36    1
    16    25    26    1
    17   119   120    1
    18    77    80    1
    19    28    27    2
    20    27    26    1
    21    12    11    1
    22    86    85    2
    23    83    84    1
    24    37    38    2
    25    37    36    1
    26   108   107    2
    27   107   106    1
    28   120   121    1
    29    26    29    1
    30    46    45    2
    31    43    44    1
    32    85    84    1
    33    36    39    1
    34    84    87    1
    35    20    21    2
    36    20    19    1
    37    45    44    1
    38    80    82    1
    39    80    81    1
    40    11     8    1
    41    10     9    2
    42   106   105    1
    43   106   109    1
    44    44    47    1
    45   121   122    2
    46    29    30    1
    47    39    40    1
    48     9    18   am
    49     9     8    1
    50    19    18    1
    51    19    22    1
    52     8     7    1
    53    87    88    1
    54     7     3   am
    55   109   110    1
    56    47    48    1
    57    89    88    2
    58   124   122    1
    59    30    32   ar
    60    30    31   ar
    61   122   123    1
    62    74    73   ar
    63    48    49    1
    64    88    90   am
    65    32    34   ar
    66    42    40   am
    67    40    41    2
    68    23    22    1
    69    22    24    1
    70     3     2    1
    71     3     4    2
    72    31    33   ar
    73     2     5    1
    74     2     1    1
    75    70    69    1
    76    70    71    2
    77    73    72    1
    78    73    75   ar
    79    72    69    1
    80   128   127    2
    81   125   126    1
    82    49    50    1
    83   110   111    1
    84    34    33   ar
    85    69    68    1
    86     5     6    1
    87    50    51    2
    88   112   111   ar
    89   111   113   ar
    90   127   126    1
    91   127   133   am
    92   136   135    2
    93   126   129    1
    94    51    52    1
    95    51    53    1
    96   135   134    1
    97   103   101   ar
    98   103   104   ar
    99    68    66   am
   100    67    66    2
   101   101    98   ar
   102   134   133    1
   103   129   130    1
   104    93    94    2
   105    93    92    1
   106    66    65    1
   107   104   102   ar
   108    92    95    1
   109    92    91    1
   110    98    96   ar
   111    98   100   ar
   112    95    96    1
   113   130   131   ar
   114   130   132   ar
   115   102   100   ar
   116    65    64    1
   117    96    97   ar
   118    57    56    2
   119   100    99   ar
   120    64    56   am
   121    61    59   ar
   122    61    63   ar
   123    56    55    1
   124    54    55    1
   125    58    55    1
   126    58    59    1
   127    59    60   ar
   128    63    62   ar
   129    97    99   ar
   130    60    62   ar
