@<TRIPOS>MOLECULE
tmp/6f87B00.pdb
 127 120 0 0 0
SMALL
GASTEIGER

@<TRIPOS>ATOM
      1  N        -46.4630   -3.2310   98.9610 N.3    55  LYS55      -0.1245
      2  CA       -46.8650   -4.5860   99.3660 C.3    55  LYS55       0.1561
      3  C        -46.5080   -4.9770  100.7940 C.2    55  LYS55       0.2260
      4  O        -47.1860   -5.8270  101.3980 O.2    55  LYS55      -0.2867
      5  CB       -46.2260   -5.6260   98.4730 C.3    55  LYS55       0.0271
      6  CG       -46.7200   -5.6200   97.0520 C.3    55  LYS55       0.0035
      7  CD       -45.9410   -6.6580   96.2660 C.3    55  LYS55       0.0206
      8  CE       -46.8690   -7.5960   95.5200 C.3    55  LYS55       0.1093
      9  NZ       -47.5830   -8.7070   96.2110 N.3    55  LYS55      -0.1314
     10  N        -43.3840   -6.1670  101.2700 N.3    57  ARG57      -0.1245
     11  CA       -42.7520   -7.3400  100.7680 C.3    57  ARG57       0.1563
     12  C        -41.3040   -7.3390  101.1920 C.2    57  ARG57       0.2260
     13  O        -40.6110   -6.3590  100.9240 O.2    57  ARG57      -0.2867
     14  CB       -42.7660   -7.3450   99.2530 C.3    57  ARG57       0.0307
     15  CG       -42.0880   -8.5690   98.6680 C.3    57  ARG57       0.0489
     16  CD       -41.9350   -8.3330   97.2140 C.3    57  ARG57       0.2205
     17  NE       -41.6820   -9.4930   96.3760 N.pl3  57  ARG57      -0.0865
     18  CZ       -42.5620  -10.4260   96.1030 C.cat  57  ARG57       0.5346
     19  NH1      -43.7610  -10.4020   96.6780 N.pl3  57  ARG57       0.1354
     20  NH2      -42.2470  -11.3670   95.2270 N.pl3  57  ARG57       0.1354
     21  N        -37.2830  -11.3750   98.4820 N.3    61  ASN61      -0.1240
     22  CA       -38.2870  -12.0140   97.6410 C.3    61  ASN61       0.1653
     23  C        -38.2830  -11.3870   96.2370 C.2    61  ASN61       0.2266
     24  O        -38.7350  -10.2780   96.0770 O.2    61  ASN61      -0.2867
     25  CB       -39.6610  -11.9190   98.3090 C.3    61  ASN61       0.1155
     26  CG       -40.6710  -12.8960   97.7190 C.2    61  ASN61       0.2627
     27  OD1      -40.4080  -13.6280   96.7370 O.2    61  ASN61      -0.2716
     28  ND2      -41.8570  -12.8930   98.3080 N.am   61  ASN61      -0.0877
     29  N        -44.6130   -8.3410   90.6480 N.3   141  PRO141     -0.2102
     30  CA       -45.2470   -9.3830   91.4230 C.3   141  PRO141      0.1504
     31  C        -46.7890   -9.2820   91.3550 C.2   141  PRO141      0.2576
     32  O        -47.3260   -8.3790   90.7110 O.2   141  PRO141     -0.2718
     33  CB       -44.8000   -9.0560   92.8290 C.3   141  PRO141      0.0282
     34  CG       -44.8250   -7.5710   92.8360 C.3   141  PRO141      0.0208
     35  CD       -44.2500   -7.1990   91.4950 C.3   141  PRO141      0.0893
     36  N        -47.4670  -10.1980   92.0490 N.am  142  SER142     -0.1953
     37  CA       -48.9070  -10.1990   92.2050 C.3   142  SER142      0.1924
     38  C        -49.3730   -8.8210   92.7580 C.2   142  SER142      0.2314
     39  O        -48.7740   -8.3000   93.6920 O.2   142  SER142     -0.2863
     40  CB       -49.3170  -11.3100   93.1840 C.3   142  SER142      0.2116
     41  OG       -48.4100  -12.4260   93.2810 O.3   142  SER142     -0.2180
     42  N        -51.1740   -7.6290   95.0830 N.3   144  ASN144     -0.1240
     43  CA       -51.8540   -7.8090   96.4050 C.3   144  ASN144      0.1653
     44  C        -50.9700   -7.4010   97.5690 C.2   144  ASN144      0.2266
     45  O        -49.7700   -7.3170   97.4060 O.2   144  ASN144     -0.2867
     46  CB       -52.2710   -9.2530   96.5980 C.3   144  ASN144      0.1155
     47  CG       -51.1000  -10.2440   96.4610 C.2   144  ASN144      0.2627
     48  OD1      -50.8560  -10.7790   95.3950 O.2   144  ASN144     -0.2716
     49  ND2      -50.4110  -10.5110   97.5520 N.am  144  ASN144     -0.0877
     50  N        -48.7870   -8.2000  100.7660 N.3   146  SER146     -0.1202
     51  CA       -47.9470   -9.4340  100.9670 C.3   146  SER146      0.2020
     52  C        -48.5560  -10.3430  102.0240 C.2   146  SER146      0.2619
     53  O        -49.0290   -9.8750  103.0650 O.2   146  SER146     -0.2717
     54  CB       -46.4770   -9.1260  101.3230 C.3   146  SER146      0.2103
     55  OG       -45.6200   -9.1210  100.1670 O.3   146  SER146     -0.2182
     56  N        -48.6240  -11.6300  101.7040 N.am  147  GLY147     -0.1942
     57  CA       -49.2390  -12.6230  102.5810 C.3   147  GLY147      0.2014
     58  C        -50.6570  -13.0180  102.2320 C.2   147  GLY147      0.2638
     59  O        -51.0840  -14.1300  102.5990 O.2   147  GLY147     -0.2714
     60  N        -51.3710  -12.1210  101.5290 N.am  148  LYS148     -0.1977
     61  CA       -52.8090  -12.2660  101.1810 C.3   148  LYS148      0.1596
     62  C        -53.0400  -12.9120   99.8160 C.2   148  LYS148      0.2287
     63  O        -52.0760  -13.1410   99.0460 O.2   148  LYS148     -0.2864
     64  CB       -53.5270  -10.9220  101.3090 C.3   148  LYS148      0.0298
     65  CG       -53.5830  -10.4840  102.7560 C.3   148  LYS148      0.0038
     66  CD       -54.7230   -9.5230  103.0100 C.3   148  LYS148      0.0206
     67  CE       -54.8400   -9.2390  104.5050 C.3   148  LYS148      0.1093
     68  NZ       -55.1400   -7.8020  104.7750 N.3   148  LYS148     -0.1314
     69  N        -53.9370  -13.7600   95.9840 N.3   150  SER150     -0.1217
     70  CA       -53.5460  -13.0990   94.7920 C.3   150  SER150      0.1889
     71  C        -54.7890  -12.5190   94.1540 C.2   150  SER150      0.2288
     72  O        -55.8960  -12.9270   94.5110 O.2   150  SER150     -0.2866
     73  CB       -52.8060  -14.0810   93.9090 C.3   150  SER150      0.2089
     74  OG       -51.6150  -14.4430   94.5900 O.3   150  SER150     -0.2183
     75  N        -50.7820  -18.0750   89.2560 N.3   179  GLU179     -0.1245
     76  CA       -49.5630  -17.4530   88.7790 C.3   179  GLU179      0.1567
     77  C        -48.8650  -18.3620   87.8100 C.2   179  GLU179      0.2260
     78  O        -49.1300  -19.5770   87.7730 O.2   179  GLU179     -0.2867
     79  CB       -48.6100  -17.1160   89.9220 C.3   179  GLU179      0.0388
     80  CG       -48.9800  -15.9630   90.8380 C.3   179  GLU179      0.1160
     81  CD       -49.9580  -16.3150   91.9650 C.2   179  GLU179      0.3649
     82  OE1      -50.6810  -17.3440   91.8260 O.co2 179  GLU179     -0.2457
     83  OE2      -49.9760  -15.5350   92.9720 O.co2 179  GLU179     -0.2457
     84  N        -42.0850  -23.0400   91.0990 N.3   194  ARG194     -0.1245
     85  CA       -43.4730  -22.7560   91.4230 C.3   194  ARG194      0.1563
     86  C        -44.3790  -23.3360   90.3560 C.2   194  ARG194      0.2260
     87  O        -44.3230  -22.8840   89.2140 O.2   194  ARG194     -0.2867
     88  CB       -43.6590  -21.2460   91.5010 C.3   194  ARG194      0.0307
     89  CG       -45.0150  -20.7840   92.0230 C.3   194  ARG194      0.0489
     90  CD       -45.1250  -19.2580   92.0470 C.3   194  ARG194      0.2205
     91  NE       -45.2600  -18.6740   90.7060 N.pl3 194  ARG194     -0.0865
     92  CZ       -45.2210  -17.3670   90.4250 C.cat 194  ARG194      0.5346
     93  NH1      -45.0650  -16.4440   91.3970 N.pl3 194  ARG194      0.1354
     94  NH2      -45.3580  -16.9800   89.1440 N.pl3 194  ARG194      0.1354
     95  N        -40.4830  -16.0970   93.0610 N.3   227  PRO227     -0.2102
     96  CA       -41.4880  -15.8140   94.0890 C.3   227  PRO227      0.1504
     97  C        -42.3230  -17.0400   94.4310 C.2   227  PRO227      0.2576
     98  O        -42.3050  -18.0280   93.7170 O.2   227  PRO227     -0.2718
     99  CB       -42.3630  -14.7410   93.4410 C.3   227  PRO227      0.0282
    100  CG       -41.8070  -14.5120   92.0610 C.3   227  PRO227      0.0208
    101  CD       -40.9320  -15.6690   91.7290 C.3   227  PRO227      0.0893
    102  N        -43.0770  -16.9470   95.5070 N.am  228  GLY228     -0.1957
    103  CA       -43.9320  -18.0410   95.9540 C.3   228  GLY228      0.1869
    104  C        -43.1730  -19.2170   96.5600 C.2   228  GLY228      0.2309
    105  O        -43.6220  -20.3540   96.4760 O.2   228  GLY228     -0.2863
    106  N        -47.8620  -17.1090  101.7170 N.3   233  HIS233     -0.1226
    107  CA       -48.6920  -16.4870  100.7000 C.3   233  HIS233      0.1752
    108  C        -50.1010  -17.0720  100.6040 C.2   233  HIS233      0.2596
    109  O        -50.3920  -18.1550  101.1440 O.2   233  HIS233     -0.2718
    110  CB       -48.0470  -16.6260   99.3280 C.3   233  HIS233      0.0759
    111  CG       -46.5880  -16.3560   99.3100 C.ar  233  HIS233      0.0818
    112  ND1      -46.0560  -15.1260   99.6340 N.ar  233  HIS233     -0.2268
    113  CD2      -45.5440  -17.1560   98.9920 C.ar  233  HIS233      0.1154
    114  CE1      -44.7420  -15.1810   99.5150 C.ar  233  HIS233      0.1986
    115  NE2      -44.4070  -16.4010   99.1200 N.ar  233  HIS233     -0.2212
    116  N        -50.9310  -16.3290   99.8520 N.am  234  TYR234     -0.1976
    117  CA       -52.2570  -16.7380   99.3800 C.3   234  TYR234      0.1639
    118  C        -53.2630  -16.8180  100.5130 C.2   234  TYR234      0.2290
    119  O        -54.3390  -17.3930  100.3550 O.2   234  TYR234     -0.2864
    120  CB       -52.2030  -18.0780   98.6190 C.3   234  TYR234      0.0560
    121  CG       -51.0220  -18.1870   97.6970 C.ar  234  TYR234     -0.0198
    122  CD1      -50.7950  -17.2360   96.6900 C.ar  234  TYR234     -0.0009
    123  CD2      -50.0920  -19.2130   97.8430 C.ar  234  TYR234     -0.0009
    124  CE1      -49.7000  -17.3410   95.8230 C.ar  234  TYR234      0.0417
    125  CE2      -48.9820  -19.3230   96.9870 C.ar  234  TYR234      0.0417
    126  CZ       -48.7810  -18.3850   95.9770 C.ar  234  TYR234      0.1957
    127  OH       -47.6720  -18.4970   95.1540 O.3   234  TYR234     -0.2866
@<TRIPOS>BOND
     1    78    77    2
     2    77    76    1
     3    76    75    1
     4    76    79    1
     5    94    92    1
     6    87    86    2
     7    79    80    1
     8    86    85    1
     9    92    91    2
    10    92    93    1
    11    29    30    1
    12    29    35    1
    13    91    90    1
    14    32    31    2
    15    80    81    1
    16    84    85    1
    17    31    30    1
    18    31    36   am
    19    30    33    1
    20    85    88    1
    21    35    34    1
    22    88    89    1
    23   101   100    1
    24   101    95    1
    25    82    81   ar
    26    81    83   ar
    27    89    90    1
    28    36    37    1
    29   100    99    1
    30    37    38    1
    31    37    40    1
    32    38    39    2
    33    33    34    1
    34    95    96    1
    35    40    41    1
    36    99    96    1
    37    98    97    2
    38    73    74    1
    39    73    70    1
    40    96    97    1
    41    71    72    2
    42    71    70    1
    43    97   102   am
    44    70    69    1
    45    42    43    1
    46   127   126    1
    47    20    18    1
    48    48    47    2
    49   102   103    1
    50     8     9    1
    51     8     7    1
    52   124   126   ar
    53   124   122   ar
    54   103   104    1
    55   126   125   ar
    56    24    23    2
    57    18    17    2
    58    18    19    1
    59    23    22    1
    60     7     6    1
    61    17    16    1
    62    43    46    1
    63    43    44    1
    64    47    46    1
    65    47    49   am
    66   105   104    2
    67   122   121   ar
    68    27    26    2
    69   125   123   ar
    70     6     5    1
    71    16    15    1
    72    45    44    2
    73    22    25    1
    74    22    21    1
    75   121   123   ar
    76   121   120    1
    77    26    28   am
    78    26    25    1
    79     5     2    1
    80   120   117    1
    81    15    14    1
    82     1     2    1
    83   113   115   ar
    84   113   111   ar
    85    63    62    2
    86   115   114   ar
    87    14    11    1
    88   111   110    1
    89   111   112   ar
    90   110   107    1
    91     2     3    1
    92   117   116    1
    93   117   118    1
    94   114   112   ar
    95    62    61    1
    96   116   108   am
    97    55    54    1
    98   119   118    2
    99   108   107    1
   100   108   109    2
   101   107   106    1
   102    50    51    1
   103    11    12    1
   104    11    10    1
   105     3     4    2
   106    13    12    2
   107    51    54    1
   108    51    52    1
   109    61    64    1
   110    61    60    1
   111    64    65    1
   112    60    58   am
   113    56    52   am
   114    56    57    1
   115    52    53    2
   116    58    57    1
   117    58    59    2
   118    65    66    1
   119    66    67    1
   120    67    68    1
