@<TRIPOS>MOLECULE
tmp/6f88B01.pdb
 154 145 0 0 0
SMALL
GASTEIGER

@<TRIPOS>ATOM
      1  N         32.0350  -94.3160  139.4560 N.3    64  PHE64      -0.1241
      2  CA        32.2610  -93.0000  140.0430 C.3    64  PHE64       0.1605
      3  C         30.9710  -92.3750  140.5790 C.2    64  PHE64       0.2264
      4  O         31.0280  -91.4720  141.4190 O.2    64  PHE64      -0.2867
      5  CB        32.8740  -92.0430  139.0110 C.3    64  PHE64       0.0534
      6  CG        34.3210  -92.3260  138.6800 C.ar   64  PHE64      -0.0203
      7  CD1       35.1980  -92.8120  139.6350 C.ar   64  PHE64      -0.0042
      8  CD2       34.7970  -92.1280  137.3680 C.ar   64  PHE64      -0.0042
      9  CE1       36.5330  -93.0530  139.3100 C.ar   64  PHE64      -0.0003
     10  CE2       36.1250  -92.3740  137.0480 C.ar   64  PHE64      -0.0003
     11  CZ        36.9890  -92.8480  138.0130 C.ar   64  PHE64      -0.0000
     12  N         33.0030  -88.0610  142.8830 N.3    69  LEU69      -0.1245
     13  CA        32.9090  -87.5280  141.5360 C.3    69  LEU69       0.1561
     14  C         31.4810  -87.5910  141.0070 C.2    69  LEU69       0.2260
     15  O         31.2290  -87.1410  139.8840 O.2    69  LEU69      -0.2867
     16  CB        33.8730  -88.2620  140.5770 C.3    69  LEU69       0.0270
     17  CG        35.3810  -87.9680  140.7650 C.3    69  LEU69       0.0019
     18  CD1       36.1610  -88.7440  139.7530 C.3    69  LEU69       0.0001
     19  CD2       35.7290  -86.5020  140.6670 C.3    69  LEU69       0.0001
     20  N         31.9610  -84.6500  135.4320 N.3    73  LEU73      -0.1231
     21  CA        32.0390  -85.1540  134.0570 C.3    73  LEU73       0.1693
     22  C         32.3610  -86.6400  133.9980 C.2    73  LEU73       0.2591
     23  O         31.7210  -87.3960  133.2610 O.2    73  LEU73      -0.2718
     24  CB        33.0830  -84.3650  133.2900 C.3    73  LEU73       0.0284
     25  CG        33.3190  -84.8190  131.8620 C.3    73  LEU73       0.0019
     26  CD1       32.0020  -84.7460  131.0680 C.3    73  LEU73       0.0001
     27  CD2       34.3660  -83.8940  131.2520 C.3    73  LEU73       0.0001
     28  N         33.3890  -87.0750  134.7390 N.am   74  ALA74      -0.1980
     29  CA        33.8600  -88.4520  134.5910 C.3    74  ALA74       0.1597
     30  C         32.7950  -89.4790  134.9460 C.2    74  ALA74       0.2287
     31  O         32.8260  -90.6100  134.4390 O.2    74  ALA74      -0.2864
     32  CB        35.1140  -88.6640  135.4510 C.3    74  ALA74       0.0319
     33  N         33.6860  -78.6800  128.7240 N.3    88  TYR88      -0.1241
     34  CA        35.0420  -78.7770  129.2680 C.3    88  TYR88       0.1605
     35  C         36.0880  -78.6140  128.1620 C.2    88  TYR88       0.2264
     36  O         37.1310  -77.9820  128.3780 O.2    88  TYR88      -0.2867
     37  CB        35.2350  -80.1120  130.0020 C.3    88  TYR88       0.0534
     38  CG        34.8300  -80.1570  131.4770 C.ar   88  TYR88      -0.0201
     39  CD1       33.4990  -80.0350  131.8660 C.ar   88  TYR88      -0.0009
     40  CD2       35.7660  -80.4260  132.4580 C.ar   88  TYR88      -0.0009
     41  CE1       33.1230  -80.1090  133.2070 C.ar   88  TYR88       0.0417
     42  CE2       35.3970  -80.5060  133.8130 C.ar   88  TYR88       0.0417
     43  CZ        34.0770  -80.3700  134.1630 C.ar   88  TYR88       0.1957
     44  OH        33.7200  -80.4310  135.5010 O.3    88  TYR88      -0.2866
     45  N         41.6900  -88.9330  146.3090 N.3   159  LEU159     -0.1245
     46  CA        42.0970  -89.7190  145.1400 C.3   159  LEU159      0.1561
     47  C         42.1500  -91.2170  145.4570 C.2   159  LEU159      0.2260
     48  O         41.7840  -92.0400  144.6130 O.2   159  LEU159     -0.2867
     49  CB        43.4530  -89.2210  144.6120 C.3   159  LEU159      0.0270
     50  CG        43.2830  -87.9390  143.7730 C.3   159  LEU159      0.0019
     51  CD1       44.5940  -87.1660  143.6640 C.3   159  LEU159      0.0001
     52  CD2       42.7700  -88.2330  142.3690 C.3   159  LEU159      0.0001
     53  N         38.9900  -92.9240  144.8520 N.3   162  LEU162     -0.1231
     54  CA        38.6290  -92.9980  143.4490 C.3   162  LEU162      0.1693
     55  C         39.2890  -94.1770  142.7370 C.2   162  LEU162      0.2591
     56  O         38.8320  -94.5680  141.6580 O.2   162  LEU162     -0.2718
     57  CB        38.9420  -91.6600  142.8060 C.3   162  LEU162      0.0284
     58  CG        38.0710  -90.4860  143.3390 C.3   162  LEU162      0.0019
     59  CD1       38.5340  -89.1310  142.8020 C.3   162  LEU162      0.0001
     60  CD2       36.6340  -90.6940  142.9830 C.3   162  LEU162      0.0001
     61  N         40.3790  -94.7130  143.2640 N.am  163  VAL163     -0.1980
     62  CA        41.1020  -95.7740  142.5810 C.3   163  VAL163      0.1595
     63  C         40.7160  -97.1480  143.1010 C.2   163  VAL163      0.2287
     64  O         40.4390  -98.0610  142.3310 O.2   163  VAL163     -0.2864
     65  CB        42.6180  -95.5080  142.6920 C.3   163  VAL163      0.0276
     66  CG1       43.3930  -96.6590  142.0920 C.3   163  VAL163      0.0022
     67  CG2       42.9340  -94.1780  141.9820 C.3   163  VAL163      0.0022
     68  N         37.7750  -80.9120  139.9740 N.3   225  SER225     -0.1217
     69  CA        38.5730  -81.4700  138.8910 C.3   225  SER225      0.1889
     70  C         39.9110  -80.7530  138.7660 C.2   225  SER225      0.2288
     71  O         40.9740  -81.3850  138.6040 O.2   225  SER225     -0.2866
     72  CB        37.7730  -81.3670  137.5960 C.3   225  SER225      0.2089
     73  OG        38.4650  -81.9890  136.5560 O.3   225  SER225     -0.2183
     74  N         42.1060  -82.0030  141.7260 N.3   228  LEU228     -0.1231
     75  CA        42.5930  -83.3880  141.6530 C.3   228  LEU228      0.1693
     76  C         43.4780  -83.6130  140.4280 C.2   228  LEU228      0.2592
     77  O         44.5600  -84.2180  140.5250 O.2   228  LEU228     -0.2718
     78  CB        41.4100  -84.3580  141.6450 C.3   228  LEU228      0.0284
     79  CG        40.4700  -84.3120  142.8430 C.3   228  LEU228      0.0019
     80  CD1       39.3940  -85.3960  142.6910 C.3   228  LEU228      0.0001
     81  CD2       41.1930  -84.4340  144.1640 C.3   228  LEU228      0.0001
     82  N         43.0550  -83.1220  139.2690 N.am  229  GLY229     -0.1957
     83  CA        43.8840  -83.2740  138.0800 C.3   229  GLY229      0.1869
     84  C         44.9470  -82.2050  137.9120 C.2   229  GLY229      0.2309
     85  O         46.1090  -82.5150  137.6060 O.2   229  GLY229     -0.2863
     86  N         47.6720  -84.5860  140.4090 N.3   233  THR233     -0.1218
     87  CA        48.0450  -85.5560  139.3920 C.3   233  THR233      0.1862
     88  C         49.0950  -84.9700  138.4460 C.2   233  THR233      0.2287
     89  O         50.0150  -85.6760  138.0020 O.2   233  THR233     -0.2866
     90  CB        46.8020  -86.0250  138.6450 C.3   233  THR233      0.1770
     91  OG1       45.8720  -86.5500  139.5970 O.3   233  THR233     -0.2211
     92  CG2       47.1370  -87.0930  137.5870 C.3   233  THR233      0.0375
     93  N         53.3730  -92.0600  135.3040 N.3   275  SER275     -0.1202
     94  CA        52.9180  -91.6870  136.6510 C.3   275  SER275      0.2020
     95  C         51.5560  -92.2720  136.9870 C.2   275  SER275      0.2619
     96  O         51.1230  -92.2010  138.1500 O.2   275  SER275     -0.2717
     97  CB        52.8490  -90.1640  136.8020 C.3   275  SER275      0.2103
     98  OG        51.9260  -89.6540  135.8770 O.3   275  SER275     -0.2182
     99  N         50.8880  -92.8370  135.9880 N.am  276  ASN276     -0.1960
    100  CA        49.5830  -93.4520  136.1020 C.3   276  ASN276      0.1819
    101  C         49.6230  -94.7760  135.3620 C.2   276  ASN276      0.2621
    102  O         50.3930  -94.9340  134.4070 O.2   276  ASN276     -0.2715
    103  CB        48.5480  -92.5520  135.4920 C.3   276  ASN276      0.1195
    104  CG        47.1560  -93.1970  135.4600 C.2   276  ASN276      0.2630
    105  OD1       46.8130  -94.0330  136.3230 O.2   276  ASN276     -0.2716
    106  ND2       46.3540  -92.8180  134.4740 N.am  276  ASN276     -0.0877
    107  N         48.7900  -95.7230  135.8030 N.am  277  PHE277     -0.1960
    108  CA        48.6780  -97.0130  135.1310 C.3   277  PHE277      0.1771
    109  C         47.6520  -97.0340  134.0010 C.2   277  PHE277      0.2620
    110  O         47.7570  -97.8820  133.0980 O.2   277  PHE277     -0.2715
    111  CB        48.3150  -98.1060  136.1350 C.3   277  PHE277      0.0574
    112  CG        47.0880  -97.8010  136.9160 C.ar  277  PHE277     -0.0200
    113  CD1       45.8250  -98.0290  136.3770 C.ar  277  PHE277     -0.0042
    114  CD2       47.1800  -97.2900  138.2010 C.ar  277  PHE277     -0.0042
    115  CE1       44.6840  -97.7330  137.1100 C.ar  277  PHE277     -0.0003
    116  CE2       46.0430  -96.9890  138.9280 C.ar  277  PHE277     -0.0003
    117  CZ        44.7980  -97.2060  138.3930 C.ar  277  PHE277     -0.0000
    118  N         46.6480  -96.1650  134.0190 N.am  278  GLY278     -0.1940
    119  CA        45.5250  -96.3470  133.1220 C.3   278  GLY278      0.2014
    120  C         44.2260  -95.8790  133.7440 C.2   278  GLY278      0.2639
    121  O         44.1420  -94.7590  134.2550 O.2   278  GLY278     -0.2714
    122  N         43.1940  -96.7160  133.7150 N.am  279  VAL279     -0.1963
    123  CA        41.8910  -96.3120  134.2390 C.3   279  VAL279      0.1727
    124  C         41.2360  -97.4600  134.9880 C.2   279  VAL279      0.2616
    125  O         41.6930  -98.6100  134.9670 O.2   279  VAL279     -0.2715
    126  CB        40.9340  -95.8160  133.1300 C.3   279  VAL279      0.0290
    127  CG1       41.5490  -94.6390  132.3850 C.3   279  VAL279      0.0023
    128  CG2       40.6140  -96.9460  132.2030 C.3   279  VAL279      0.0023
    129  N         40.1330  -97.1240  135.6510 N.am  280  LEU280     -0.1977
    130  CA        39.2400  -98.0970  136.2560 C.3   280  LEU280      0.1596
    131  C         37.9500  -98.1270  135.4490 C.2   280  LEU280      0.2287
    132  O         37.5030  -97.0790  134.9800 O.2   280  LEU280     -0.2864
    133  CB        38.9310  -97.7270  137.7080 C.3   280  LEU280      0.0297
    134  CG        40.0960  -97.7510  138.7220 C.3   280  LEU280      0.0022
    135  CD1       41.0170  -98.9410  138.5480 C.3   280  LEU280      0.0001
    136  CD2       40.8620  -96.4440  138.5820 C.3   280  LEU280      0.0001
    137  N         41.6100  -88.0040  129.0650 N.3   340  CYS340     -0.1235
    138  CA        41.7540  -86.7970  129.8810 C.3   340  CYS340      0.1677
    139  C         41.6070  -85.5020  129.0870 C.2   340  CYS340      0.2270
    140  O         42.4200  -85.1990  128.2090 O.2   340  CYS340     -0.2867
    141  CB        43.1110  -86.7940  130.5630 C.3   340  CYS340      0.0956
    142  SG        43.3840  -85.3340  131.5250 S.3   340  CYS340     -0.0801
    143  N         48.2570  -91.7680  144.5310 N.3   382  VAL382     -0.1231
    144  CA        47.8590  -92.8140  143.5900 C.3   382  VAL382      0.1692
    145  C         48.7270  -92.7400  142.3470 C.2   382  VAL382      0.2591
    146  O         48.2720  -93.0560  141.2390 O.2   382  VAL382     -0.2718
    147  CB        46.3660  -92.7220  143.2090 C.3   382  VAL382      0.0266
    148  CG1       45.5020  -92.9830  144.4100 C.3   382  VAL382      0.0020
    149  CG2       46.0060  -91.3630  142.5780 C.3   382  VAL382      0.0020
    150  N         49.9860  -92.3540  142.5110 N.am  383  ALA383     -0.1980
    151  CA        50.9050  -92.2150  141.3910 C.3   383  ALA383      0.1597
    152  C         52.0810  -93.1650  141.5630 C.2   383  ALA383      0.2287
    153  O         52.4550  -93.5050  142.6860 O.2   383  ALA383     -0.2864
    154  CB        51.4270  -90.8070  141.3120 C.3   383  ALA383      0.0319
@<TRIPOS>BOND
     1    35    36    2
     2    35    34    1
     3   140   139    2
     4    33    34    1
     5   137   138    1
     6   139   138    1
     7    34    37    1
     8   138   141    1
     9    37    38    1
    10   141   142    1
    11    26    25    1
    12    27    25    1
    13    38    39   ar
    14    38    40   ar
    15    25    24    1
    16    39    41   ar
    17   128   126    1
    18   127   126    1
    19    40    42   ar
    20   110   109    2
    21   119   120    1
    22   119   118    1
    23   126   123    1
    24    41    43   ar
    25    23    22    2
    26    24    21    1
    27   122   120   am
    28   122   123    1
    29   120   121    2
    30    42    43   ar
    31    22    21    1
    32    22    28   am
    33   109   118   am
    34   109   108    1
    35    21    20    1
    36    43    44    1
    37   123   124    1
    38   102   101    2
    39    31    30    2
    40   106   104   am
    41    29    28    1
    42    29    30    1
    43    29    32    1
    44   125   124    2
    45   132   131    2
    46   124   129   am
    47   108   107    1
    48   108   111    1
    49    93    94    1
    50   101   107   am
    51   101   100    1
    52   131   130    1
    53   104   103    1
    54   104   105    2
    55   103   100    1
    56   129   130    1
    57    98    97    1
    58    99   100    1
    59    99    95   am
    60   111   112    1
    61   130   133    1
    62   113   112   ar
    63   113   115   ar
    64    73    72    1
    65    94    97    1
    66    94    95    1
    67   112   114   ar
    68    95    96    2
    69    10     8   ar
    70    10    11   ar
    71   115   117   ar
    72     8     6   ar
    73    92    90    1
    74    72    69    1
    75    85    84    2
    76   133   134    1
    77    84    83    1
    78    89    88    2
    79    11     9   ar
    80    83    82    1
    81   114   116   ar
    82   117   116   ar
    83    88    87    1
    84   135   134    1
    85   136   134    1
    86    71    70    2
    87    90    87    1
    88    90    91    1
    89     6     5    1
    90     6     7   ar
    91    70    69    1
    92    69    68    1
    93     5     2    1
    94    82    76   am
    95     9     7   ar
    96    87    86    1
    97     1     2    1
    98    18    17    1
    99    15    14    2
   100     2     3    1
   101    76    77    2
   102    76    75    1
   103    16    17    1
   104    16    13    1
   105     3     4    2
   106    19    17    1
   107    14    13    1
   108   146   145    2
   109   154   151    1
   110   151   152    1
   111   151   150    1
   112    13    12    1
   113   152   153    2
   114    78    75    1
   115    78    79    1
   116    75    74    1
   117    56    55    2
   118    67    65    1
   119    66    65    1
   120    64    63    2
   121   145   150   am
   122   145   144    1
   123    52    50    1
   124   149   147    1
   125    62    65    1
   126    62    63    1
   127    62    61    1
   128    80    79    1
   129    55    61   am
   130    55    54    1
   131    59    58    1
   132    57    58    1
   133    57    54    1
   134    79    81    1
   135    60    58    1
   136   147   144    1
   137   147   148    1
   138    54    53    1
   139   144   143    1
   140    51    50    1
   141    50    49    1
   142    49    46    1
   143    48    47    2
   144    46    47    1
   145    46    45    1
