@<TRIPOS>MOLECULE
tmp/6f89A00.pdb
 121 116 0 0 0
SMALL
GASTEIGER

@<TRIPOS>ATOM
      1  N        -30.2280  -64.9500   10.1710 N.3    31  PHE31      -0.1241
      2  CA       -31.0480  -64.1840    9.2040 C.3    31  PHE31       0.1605
      3  C        -30.3310  -64.0340    7.8790 C.2    31  PHE31       0.2264
      4  O        -29.1060  -63.9090    7.8340 O.2    31  PHE31      -0.2867
      5  CB       -31.4480  -62.8030    9.7770 C.3    31  PHE31       0.0534
      6  CG       -30.2800  -61.8940   10.0880 C.ar   31  PHE31      -0.0203
      7  CD1      -29.6470  -61.9590   11.2930 C.ar   31  PHE31      -0.0042
      8  CD2      -29.8350  -60.9760    9.1610 C.ar   31  PHE31      -0.0042
      9  CE1      -28.5660  -61.1530   11.5760 C.ar   31  PHE31      -0.0003
     10  CE2      -28.7580  -60.1590    9.4230 C.ar   31  PHE31      -0.0003
     11  CZ       -28.1210  -60.2450   10.6440 C.ar   31  PHE31      -0.0000
     12  N        -29.1150  -62.1730    4.3310 N.3    33  THR33      -0.1218
     13  CA       -28.5390  -60.8840    4.0040 C.3    33  THR33       0.1862
     14  C        -28.1710  -61.0190    2.5320 C.2    33  THR33       0.2287
     15  O        -28.2890  -62.1250    1.9610 O.2    33  THR33      -0.2866
     16  CB       -27.3610  -60.7090    4.9600 C.3    33  THR33       0.1770
     17  OG1      -27.8050  -60.0240    6.1340 O.3    33  THR33      -0.2211
     18  CG2      -26.2540  -60.0090    4.4210 C.3    33  THR33       0.0375
     19  N        -25.2190  -60.7530    1.2800 N.3    35  THR35      -0.1203
     20  CA       -23.8990  -61.3710    1.2810 C.3    35  THR35       0.1994
     21  C        -23.9720  -62.8490    1.7460 C.2    35  THR35       0.2618
     22  O        -23.9910  -63.7750    0.9340 O.2    35  THR35      -0.2717
     23  CB       -22.9170  -60.5500    2.1680 C.3    35  THR35       0.1784
     24  OG1      -23.3720  -60.5460    3.5340 O.3    35  THR35      -0.2211
     25  CG2      -22.7790  -59.1210    1.6730 C.3    35  THR35       0.0376
     26  N        -23.9910  -63.0660    3.0500 N.am   36  VAL36      -0.1965
     27  CA       -24.1450  -64.3990    3.6150 C.3    36  VAL36       0.1727
     28  C        -25.1640  -64.3020    4.7340 C.2    36  VAL36       0.2616
     29  O        -25.5600  -63.2090    5.0970 O.2    36  VAL36      -0.2715
     30  CB       -22.8450  -64.9140    4.1840 C.3    36  VAL36       0.0290
     31  CG1      -21.8550  -65.1050    3.0620 C.3    36  VAL36       0.0023
     32  CG2      -22.2860  -63.9800    5.2630 C.3    36  VAL36       0.0023
     33  N        -25.5830  -65.4430    5.2620 N.am   37  TYR37      -0.1960
     34  CA       -26.4140  -65.4750    6.4630 C.3    37  TYR37       0.1771
     35  C        -25.6030  -65.0570    7.6940 C.2    37  TYR37       0.2620
     36  O        -24.4310  -65.4190    7.8280 O.2    37  TYR37      -0.2715
     37  CB       -27.0090  -66.8580    6.6830 C.3    37  TYR37       0.0574
     38  CG       -28.3140  -67.0790    5.9450 C.ar   37  TYR37      -0.0198
     39  CD1      -28.3560  -67.2040    4.5790 C.ar   37  TYR37      -0.0009
     40  CD2      -29.4970  -67.1950    6.6270 C.ar   37  TYR37      -0.0009
     41  CE1      -29.5490  -67.4230    3.8910 C.ar   37  TYR37       0.0417
     42  CE2      -30.6870  -67.3920    5.9610 C.ar   37  TYR37       0.0417
     43  CZ       -30.7130  -67.5290    4.5860 C.ar   37  TYR37       0.1957
     44  OH       -31.9350  -67.7320    3.9550 O.3    37  TYR37      -0.2866
     45  N        -26.2470  -64.3010    8.5830 N.am   38  GLY38      -0.1954
     46  CA       -25.6400  -63.8490    9.8300 C.3    38  GLY38       0.1869
     47  C        -26.2700  -64.4390   11.0960 C.2    38  GLY38       0.2309
     48  O        -27.4650  -64.7340   11.0860 O.2    38  GLY38      -0.2863
     49  N        -19.4660  -57.6400   13.2900 N.3    65  ILE65      -0.1245
     50  CA       -20.0070  -56.5080   12.5650 C.3    65  ILE65       0.1561
     51  C        -21.3980  -56.2250   13.0730 C.2    65  ILE65       0.2260
     52  O        -22.2560  -57.1340   13.1450 O.2    65  ILE65      -0.2867
     53  CB       -20.0370  -56.7830   11.0580 C.3    65  ILE65       0.0252
     54  CG1      -18.5940  -56.9160   10.5270 C.3    65  ILE65       0.0019
     55  CG2      -20.7510  -55.6610   10.3450 C.3    65  ILE65       0.0019
     56  CD1      -18.4430  -57.4300    9.0950 C.3    65  ILE65       0.0001
     57  N        -24.9960  -54.5790   12.6250 N.3    67  HIS67      -0.1241
     58  CA       -25.8920  -54.2300   11.5290 C.3    67  HIS67       0.1621
     59  C        -26.9130  -53.2090   11.9900 C.2    67  HIS67       0.2264
     60  O        -27.5230  -53.3950   13.0040 O.2    67  HIS67      -0.2867
     61  CB       -26.5990  -55.4690   11.0030 C.3    67  HIS67       0.0745
     62  CG       -25.6650  -56.4700   10.4080 C.ar   67  HIS67       0.0817
     63  ND1      -24.7060  -57.1280   11.1500 N.ar   67  HIS67      -0.2268
     64  CD2      -25.5310  -56.9160    9.1400 C.ar   67  HIS67       0.1154
     65  CE1      -24.0190  -57.9300   10.3580 C.ar   67  HIS67       0.1986
     66  NE2      -24.4990  -57.8150    9.1350 N.ar   67  HIS67      -0.2212
     67  N        -22.3530  -51.9220    9.4810 N.3   121  ARG121     -0.1245
     68  CA       -22.8860  -52.1760    8.1470 C.3   121  ARG121      0.1563
     69  C        -24.4150  -51.9830    8.0980 C.2   121  ARG121      0.2260
     70  O        -25.1100  -52.2570    9.0630 O.2   121  ARG121     -0.2867
     71  CB       -22.6380  -53.6170    7.8700 C.3   121  ARG121      0.0307
     72  CG       -22.4160  -53.9780    6.4520 C.3   121  ARG121      0.0489
     73  CD       -22.6110  -55.4890    6.2920 C.3   121  ARG121      0.2205
     74  NE       -23.3790  -55.7090    5.0860 N.pl3 121  ARG121     -0.0865
     75  CZ       -24.1230  -56.7670    4.8540 C.cat 121  ARG121      0.5346
     76  NH1      -24.8140  -56.8640    3.7460 N.pl3 121  ARG121      0.1354
     77  NH2      -24.1860  -57.7000    5.7340 N.pl3 121  ARG121      0.1354
     78  N        -23.6390  -59.4820   14.2480 N.3   141  ALA141     -0.1231
     79  CA       -23.8070  -60.7040   13.4650 C.3   141  ALA141      0.1679
     80  C        -22.6560  -61.0870   12.5250 C.2   141  ALA141      0.2434
     81  O        -22.6230  -60.6210   11.3900 O.2   141  ALA141     -0.2733
     82  CB       -25.0960  -60.6180   12.6620 C.3   141  ALA141      0.0304
     83  N        -21.7780  -62.0070   12.9590 N.am  142  PRO142     -0.2718
     84  CA       -20.8800  -62.6070   12.0130 C.3   142  PRO142      0.1535
     85  C        -21.6160  -63.6060   11.1350 C.2   142  PRO142      0.2599
     86  O        -22.8160  -63.8090   11.2740 O.2   142  PRO142     -0.2715
     87  CB       -19.9270  -63.3710   12.9170 C.3   142  PRO142      0.0310
     88  CG       -20.7950  -63.8330   14.0190 C.3   142  PRO142      0.0237
     89  CD       -21.8840  -62.8300   14.1740 C.3   142  PRO142      0.0939
     90  N        -20.8810  -64.2720   10.2620 N.am  143  SER143     -0.1950
     91  CA       -21.4690  -65.3530    9.4750 C.3   143  SER143      0.1924
     92  C        -22.0310  -66.5090   10.3560 C.2   143  SER143      0.2314
     93  O        -21.4500  -66.8660   11.3860 O.2   143  SER143     -0.2863
     94  CB       -20.4610  -65.8560    8.4540 C.3   143  SER143      0.2116
     95  OG       -19.3470  -66.3100    9.1250 O.3   143  SER143     -0.2180
     96  N        -18.9170  -62.3120    1.6960 N.3   180  GLU180     -0.1231
     97  CA       -19.1520  -61.3590    2.7620 C.3   180  GLU180      0.1699
     98  C        -18.8980  -59.9220    2.2960 C.2   180  GLU180      0.2592
     99  O        -18.2240  -59.6980    1.3040 O.2   180  GLU180     -0.2718
    100  CB       -18.2940  -61.6920    4.0120 C.3   180  GLU180      0.0402
    101  CG       -18.5670  -63.0800    4.6010 C.3   180  GLU180      0.1161
    102  CD       -17.6440  -64.1420    4.0530 C.2   180  GLU180      0.3649
    103  OE1      -17.0740  -63.9500    2.9560 O.co2 180  GLU180     -0.2457
    104  OE2      -17.4570  -65.1450    4.7270 O.co2 180  GLU180     -0.2457
    105  N        -19.4620  -58.9640    3.0250 N.am  181  SER181     -0.1952
    106  CA       -19.2640  -57.5580    2.7540 C.3   181  SER181      0.1924
    107  C        -17.8030  -57.1340    2.6550 C.2   181  SER181      0.2314
    108  O        -16.9340  -57.7330    3.2550 O.2   181  SER181     -0.2863
    109  CB       -19.9050  -56.7540    3.8610 C.3   181  SER181      0.2116
    110  OG       -19.2280  -56.9280    5.0910 O.3   181  SER181     -0.2180
    111  N        -10.7980  -56.1890    4.1200 N.3   195  ARG195     -0.1245
    112  CA       -11.3590  -57.4120    3.5570 C.3   195  ARG195      0.1563
    113  C        -12.0430  -57.1620    2.2190 C.2   195  ARG195      0.2260
    114  O        -12.9380  -56.3420    2.1550 O.2   195  ARG195     -0.2867
    115  CB       -12.3710  -58.0190    4.5180 C.3   195  ARG195      0.0307
    116  CG       -12.8490  -59.3980    4.0650 C.3   195  ARG195      0.0489
    117  CD       -13.7740  -60.0730    5.0470 C.3   195  ARG195      0.2205
    118  NE       -15.0370  -59.3680    5.1100 N.pl3 195  ARG195     -0.0865
    119  CZ       -16.0220  -59.6500    5.9420 C.cat 195  ARG195      0.5346
    120  NH1      -15.9170  -60.6510    6.8020 N.pl3 195  ARG195      0.1354
    121  NH2      -17.1170  -58.8970    5.9190 N.pl3 195  ARG195      0.1354
@<TRIPOS>BOND
     1    22    21    2
     2    19    20    1
     3    20    21    1
     4    20    23    1
     5    99    98    2
     6    25    23    1
     7    96    97    1
     8    21    26   am
     9    15    14    2
    10   114   113    2
    11    23    24    1
    12   113   112    1
    13    98    97    1
    14    98   105   am
    15    14    13    1
    16   107   106    1
    17   107   108    2
    18   106   105    1
    19   106   109    1
    20    97   100    1
    21   103   102   ar
    22    26    27    1
    23    31    30    1
    24   112   111    1
    25   112   115    1
    26    27    30    1
    27    27    28    1
    28    76    75    1
    29   109   110    1
    30    41    39   ar
    31    41    43   ar
    32    44    43    1
    33    13    12    1
    34    13    16    1
    35   100   101    1
    36   102   101    1
    37   102   104   ar
    38   116   115    1
    39   116   117    1
    40    30    32    1
    41    18    16    1
    42    39    38   ar
    43    43    42   ar
    44    28    29    2
    45    28    33   am
    46    75    74    2
    47    75    77    1
    48    16    17    1
    49   117   118    1
    50    74    73    1
    51   118   119    2
    52    33    34    1
    53   121   119    1
    54   119   120    1
    55    38    40   ar
    56    38    37    1
    57    42    40   ar
    58    73    72    1
    59    72    71    1
    60    34    37    1
    61    34    35    1
    62    35    36    2
    63    35    45   am
    64     4     3    2
    65    71    68    1
    66     3     2    1
    67    69    68    1
    68    69    70    2
    69    68    67    1
    70    94    95    1
    71    94    91    1
    72    45    46    1
    73    56    54    1
    74    66    64   ar
    75    66    65   ar
    76    64    62   ar
    77     8    10   ar
    78     8     6   ar
    79     2     5    1
    80     2     1    1
    81    10    11   ar
    82    91    90    1
    83    91    92    1
    84     5     6    1
    85    46    47    1
    86     6     7   ar
    87    90    85   am
    88    55    53    1
    89    92    93    2
    90    65    63   ar
    91    62    61    1
    92    62    63   ar
    93    54    53    1
    94    11     9   ar
    95    61    58    1
    96    53    50    1
    97    48    47    2
    98    85    86    2
    99    85    84    1
   100     7     9   ar
   101    81    80    2
   102    58    59    1
   103    58    57    1
   104    59    60    2
   105    84    87    1
   106    84    83    1
   107    80    83   am
   108    80    79    1
   109    50    51    1
   110    50    49    1
   111    82    79    1
   112    87    88    1
   113    83    89    1
   114    51    52    2
   115    79    78    1
   116    88    89    1
