@<TRIPOS>MOLECULE
tmp/6f8aB01.pdb
 93 83 0 0 0
SMALL
GASTEIGER

@<TRIPOS>ATOM
      1  N         52.4150  108.4690  150.3980 N.3    63  PHE63      -0.1241
      2  CA        50.9920  108.3300  150.6990 C.3    63  PHE63       0.1605
      3  C         50.1330  108.3990  149.4450 C.2    63  PHE63       0.2264
      4  O         48.9370  108.1020  149.5110 O.2    63  PHE63      -0.2867
      5  CB        50.5240  109.3590  151.7350 C.3    63  PHE63       0.0534
      6  CG        51.0680  109.1400  153.1250 C.ar   63  PHE63      -0.0203
      7  CD1       51.1780  107.8640  153.6520 C.ar   63  PHE63      -0.0042
      8  CD2       51.4510  110.2210  153.9160 C.ar   63  PHE63      -0.0042
      9  CE1       51.6590  107.6710  154.9270 C.ar   63  PHE63      -0.0003
     10  CE2       51.9330  110.0280  155.2010 C.ar   63  PHE63      -0.0003
     11  CZ        52.0350  108.7510  155.7010 C.ar   63  PHE63      -0.0000
     12  N         45.4170  106.9960  151.7600 N.3    68  LEU68      -0.1245
     13  CA        45.4860  108.4210  152.0580 C.3    68  LEU68       0.1561
     14  C         45.6780  109.2740  150.8150 C.2    68  LEU68       0.2260
     15  O         45.7580  110.5090  150.9240 O.2    68  LEU68      -0.2867
     16  CB        46.6160  108.6870  153.0470 C.3    68  LEU68       0.0270
     17  CG        46.4350  108.1860  154.4810 C.3    68  LEU68       0.0019
     18  CD1       47.6590  108.5340  155.3300 C.3    68  LEU68       0.0001
     19  CD2       45.1460  108.7390  155.1040 C.3    68  LEU68       0.0001
     20  N         47.8710  114.5350  154.2050 N.3    73  ALA73      -0.1245
     21  CA        49.2190  114.0340  154.4280 C.3    73  ALA73       0.1562
     22  C         49.9450  113.7480  153.1220 C.2    73  ALA73       0.2260
     23  O         51.1740  113.8430  153.0810 O.2    73  ALA73      -0.2867
     24  CB        49.2030  112.7810  155.3090 C.3    73  ALA73       0.0290
     25  N         45.0410  101.0010  158.6930 N.3   158  LEU158     -0.1245
     26  CA        46.2930  101.5630  159.1900 C.3   158  LEU158      0.1561
     27  C         47.5090  100.6870  158.9110 C.2   158  LEU158      0.2260
     28  O         48.5720  101.2160  158.5780 O.2   158  LEU158     -0.2867
     29  CB        46.1660  101.8240  160.6860 C.3   158  LEU158      0.0270
     30  CG        45.3120  103.0600  160.9810 C.3   158  LEU158      0.0019
     31  CD1       44.8120  103.0570  162.4090 C.3   158  LEU158      0.0001
     32  CD2       46.0940  104.3290  160.6900 C.3   158  LEU158      0.0001
     33  N         49.3200  101.3590  155.7750 N.3   161  LEU161     -0.1231
     34  CA        49.9180  102.6750  155.6140 C.3   161  LEU161      0.1693
     35  C         51.2800  102.7580  156.2700 C.2   161  LEU161      0.2591
     36  O         51.9800  103.7640  156.0960 O.2   161  LEU161     -0.2718
     37  CB        49.0180  103.7440  156.2470 C.3   161  LEU161      0.0284
     38  CG        47.6930  103.9870  155.5460 C.3   161  LEU161      0.0019
     39  CD1       46.7810  104.8660  156.4190 C.3   161  LEU161      0.0001
     40  CD2       47.9420  104.6270  154.1990 C.3   161  LEU161      0.0001
     41  N         51.6570  101.7530  157.0440 N.am  162  VAL162     -0.1980
     42  CA        52.9770  101.6750  157.6380 C.3   162  VAL162      0.1595
     43  C         53.8140  100.7000  156.8190 C.2   162  VAL162      0.2287
     44  O         54.8300  101.0930  156.2220 O.2   162  VAL162     -0.2864
     45  CB        52.8850  101.2580  159.1130 C.3   162  VAL162      0.0276
     46  CG1       54.2690  101.2010  159.7070 C.3   162  VAL162      0.0022
     47  CG2       52.0090  102.2320  159.8910 C.3   162  VAL162      0.0022
     48  N         40.5630  110.9660  158.3610 N.3   224  SER224     -0.1217
     49  CA        41.5790  111.4100  159.3210 C.3   224  SER224      0.1889
     50  C         41.0210  111.4700  160.7380 C.2   224  SER224      0.2288
     51  O         41.7160  111.1270  161.7110 O.2   224  SER224     -0.2866
     52  CB        42.1470  112.7730  158.9060 C.3   224  SER224      0.2089
     53  OG        41.2730  113.8410  159.2170 O.3   224  SER224     -0.2183
     54  N         40.8120  107.6860  161.8310 N.3   227  LEU227     -0.1231
     55  CA        42.0810  106.9850  162.0250 C.3   227  LEU227      0.1693
     56  C         42.9690  107.6870  163.0430 C.2   227  LEU227      0.2592
     57  O         43.6020  107.0280  163.8750 O.2   227  LEU227     -0.2718
     58  CB        42.8280  106.8680  160.7030 C.3   227  LEU227      0.0284
     59  CG        42.1650  106.0730  159.5690 C.3   227  LEU227      0.0019
     60  CD1       43.0880  105.9710  158.3930 C.3   227  LEU227      0.0001
     61  CD2       41.7510  104.7000  159.9650 C.3   227  LEU227      0.0001
     62  N         43.0480  109.0100  162.9810 N.am  228  GLY228     -0.1957
     63  CA        43.7910  109.7960  163.9580 C.3   228  GLY228      0.1869
     64  C         42.9850  110.1370  165.1850 C.2   228  GLY228      0.2309
     65  O         43.4010  109.8700  166.3180 O.2   228  GLY228     -0.2863
     66  N         44.2510  106.5470  166.8440 N.3   232  THR232     -0.1218
     67  CA        45.6060  106.9070  167.2490 C.3   232  THR232      0.1862
     68  C         45.5980  107.5650  168.6270 C.2   232  THR232      0.2287
     69  O         46.4760  107.3130  169.4680 O.2   232  THR232     -0.2866
     70  CB        46.2660  107.7710  166.1700 C.3   232  THR232      0.1770
     71  OG1       46.2380  107.0680  164.9190 O.3   232  THR232     -0.2211
     72  CG2       47.7000  108.0740  166.4950 C.3   232  THR232      0.0375
     73  N         53.7670  105.7170  168.8840 N.3   275  ILE275     -0.1245
     74  CA        53.9720  105.5940  167.4420 C.3   275  ILE275      0.1561
     75  C         55.2320  104.7940  167.1600 C.2   275  ILE275      0.2260
     76  O         56.1060  104.6290  168.0180 O.2   275  ILE275     -0.2867
     77  CB        54.0220  106.9530  166.7150 C.3   275  ILE275      0.0252
     78  CG1       55.2780  107.7550  167.0490 C.3   275  ILE275      0.0019
     79  CG2       52.7750  107.7720  167.0010 C.3   275  ILE275      0.0019
     80  CD1       55.5840  108.8440  165.9730 C.3   275  ILE275      0.0001
     81  N         51.7570  116.6190  163.2020 N.3   339  CYS339     -0.1235
     82  CA        50.3440  116.2830  163.3570 C.3   339  CYS339      0.1677
     83  C         49.4720  117.4890  163.6470 C.2   339  CYS339      0.2270
     84  O         49.6290  118.1410  164.6850 O.2   339  CYS339     -0.2867
     85  CB        50.1830  115.2840  164.4970 C.3   339  CYS339      0.0956
     86  SG        48.4450  114.8000  164.7220 S.3   339  CYS339     -0.0801
     87  N         48.7360   99.9320  164.6910 N.3   381  VAL381     -0.1245
     88  CA        50.0370  100.4400  164.2670 C.3   381  VAL381      0.1561
     89  C         50.6870  101.2460  165.3890 C.2   381  VAL381      0.2260
     90  O         51.5310  102.1130  165.1350 O.2   381  VAL381     -0.2867
     91  CB        49.9990  101.2350  162.9430 C.3   381  VAL381      0.0252
     92  CG1       49.5430  100.3390  161.8150 C.3   381  VAL381      0.0019
     93  CG2       49.1320  102.4940  163.0710 C.3   381  VAL381      0.0019
@<TRIPOS>BOND
     1     3     4    2
     2     3     2    1
     3     1     2    1
     4     2     5    1
     5    14    15    2
     6    14    13    1
     7     5     6    1
     8    12    13    1
     9    13    16    1
    10    16    17    1
    11    23    22    2
    12    22    21    1
    13     6     7   ar
    14     6     8   ar
    15     7     9   ar
    16     8    10   ar
    17    40    38    1
    18    20    21    1
    19    21    24    1
    20    17    19    1
    21    17    18    1
    22     9    11   ar
    23    10    11   ar
    24    38    37    1
    25    38    39    1
    26    34    33    1
    27    34    37    1
    28    34    35    1
    29    36    35    2
    30    44    43    2
    31    35    41   am
    32    43    42    1
    33    41    42    1
    34    42    45    1
    35    48    49    1
    36    60    59    1
    37    28    27    2
    38    25    26    1
    39    52    53    1
    40    52    49    1
    41    27    26    1
    42    45    46    1
    43    45    47    1
    44    26    29    1
    45    49    50    1
    46    59    61    1
    47    59    58    1
    48    29    30    1
    49    32    30    1
    50    58    55    1
    51    50    51    2
    52    30    31    1
    53    92    91    1
    54    54    55    1
    55    55    56    1
    56    91    93    1
    57    91    88    1
    58    62    56   am
    59    62    63    1
    60    56    57    2
    61    81    82    1
    62    82    83    1
    63    82    85    1
    64    83    84    2
    65    63    64    1
    66    88    87    1
    67    88    89    1
    68    85    86    1
    69    71    70    1
    70    90    89    2
    71    64    65    2
    72    80    78    1
    73    70    72    1
    74    70    67    1
    75    77    79    1
    76    77    78    1
    77    77    74    1
    78    66    67    1
    79    75    74    1
    80    75    76    2
    81    67    68    1
    82    74    73    1
    83    68    69    2
