@<TRIPOS>MOLECULE
tmp/6f8gD00.pdb
 67 68 0 0 0
SMALL
GASTEIGER

@<TRIPOS>ATOM
      1  N        -10.6490   20.8030   15.6300 N.3    77  PHE77      -0.1241
      2  CA        -9.3120   21.1340   16.2540 C.3    77  PHE77       0.1605
      3  C         -8.1180   20.9960   15.2710 C.2    77  PHE77       0.2264
      4  O         -8.2170   20.4000   14.2220 O.2    77  PHE77      -0.2867
      5  CB        -9.0680   20.3240   17.5410 C.3    77  PHE77       0.0534
      6  CG        -9.1700   18.8570   17.3340 C.ar   77  PHE77      -0.0203
      7  CD1       -8.0470   18.1250   16.9580 C.ar   77  PHE77      -0.0042
      8  CD2      -10.3990   18.2240   17.4370 C.ar   77  PHE77      -0.0042
      9  CE1       -8.1440   16.7700   16.7400 C.ar   77  PHE77      -0.0003
     10  CE2      -10.5160   16.8720   17.1890 C.ar   77  PHE77      -0.0003
     11  CZ        -9.3800   16.1420   16.8330 C.ar   77  PHE77      -0.0000
     12  N         -4.9770   18.6910   11.2910 N.3    93  GLU93      -0.1231
     13  CA        -6.2750   19.1620   11.7320 C.3    93  GLU93       0.1699
     14  C         -7.2960   18.0760   11.5860 C.2    93  GLU93       0.2592
     15  O         -7.1450   17.1600   10.7730 O.2    93  GLU93      -0.2718
     16  CB        -6.6970   20.4490   11.0120 C.3    93  GLU93       0.0402
     17  CG        -6.9240   20.3210    9.5110 C.3    93  GLU93       0.1161
     18  CD        -7.3310   21.6430    8.8760 C.2    93  GLU93       0.3649
     19  OE1       -8.3790   21.6540    8.1900 O.co2  93  GLU93      -0.2457
     20  OE2       -6.6190   22.6680    9.0720 O.co2  93  GLU93      -0.2457
     21  N         -8.3080   18.1650   12.4240 N.am   94  SER94      -0.1952
     22  CA        -9.4940   17.3620   12.2950 C.3    94  SER94       0.1924
     23  C        -10.1630   18.0030   11.1200 C.2    94  SER94       0.2314
     24  O        -10.0860   19.2240   10.9430 O.2    94  SER94      -0.2863
     25  CB       -10.3820   17.5080   13.5270 C.3    94  SER94       0.2116
     26  OG       -11.0880   18.7320   13.4890 O.3    94  SER94      -0.2180
     27  N        -15.9570   17.2020   15.7250 N.3    98  TYR98      -0.1241
     28  CA       -16.1990   15.9140   16.4370 C.3    98  TYR98       0.1605
     29  C        -17.0670   16.2540   17.6110 C.2    98  TYR98       0.2264
     30  O        -17.0630   17.4080   18.0760 O.2    98  TYR98      -0.2867
     31  CB       -14.8920   15.2640   16.9050 C.3    98  TYR98       0.0534
     32  CG       -14.1940   14.4990   15.7810 C.ar   98  TYR98      -0.0201
     33  CD1      -13.5530   15.1820   14.7670 C.ar   98  TYR98      -0.0009
     34  CD2      -14.2570   13.0960   15.7040 C.ar   98  TYR98      -0.0009
     35  CE1      -12.9620   14.5050   13.7090 C.ar   98  TYR98       0.0417
     36  CE2      -13.6640   12.4060   14.6640 C.ar   98  TYR98       0.0417
     37  CZ       -13.0270   13.1180   13.6670 C.ar   98  TYR98       0.1957
     38  OH       -12.4260   12.5150   12.6360 O.3    98  TYR98      -0.2866
     39  N        -10.5910   13.4690   21.7240 N.3   106  TRP106     -0.1227
     40  CA       -10.3640   13.1890   20.3390 C.3   106  TRP106      0.1740
     41  C         -8.9720   13.7620   20.0560 C.2   106  TRP106      0.2635
     42  O         -8.6020   14.8420   20.5570 O.2   106  TRP106     -0.2714
     43  CB       -11.4020   13.9010   19.4700 C.3   106  TRP106      0.0564
     44  CG       -12.8010   13.3120   19.4930 C.ar  106  TRP106      0.0003
     45  CD1      -13.9330   13.8450   20.0590 C.ar  106  TRP106      0.0946
     46  CD2      -13.2010   12.0820   18.9030 C.ar  106  TRP106      0.0152
     47  NE1      -15.0000   13.0010   19.8740 N.ar  106  TRP106     -0.2442
     48  CE2      -14.5810   11.9150   19.1670 C.ar  106  TRP106      0.0810
     49  CE3      -12.5270   11.0980   18.1840 C.ar  106  TRP106      0.0012
     50  CZ2      -15.2970   10.8010   18.7230 C.ar  106  TRP106      0.0191
     51  CZ3      -13.2330    9.9920   17.7360 C.ar  106  TRP106      0.0001
     52  CH2      -14.6090    9.8510   18.0180 C.ar  106  TRP106      0.0015
     53  N         -8.2130   13.0320   19.2540 N.am  107  GLY107     -0.1718
     54  CA        -6.9000   13.4320   18.8700 C.2   107  GLY107      0.1480
     55  C         -6.1930   12.4850   17.9430 C.2   107  GLY107      0.2820
     56  O         -6.8110   11.7570   17.1620 O.2   107  GLY107     -0.2669
     57  N         -4.8780   12.5670   17.9790 N.am  108  PHE108     -0.1939
     58  CA        -4.0410   11.8840   17.0440 C.3   108  PHE108      0.1642
     59  C         -3.2100   10.9050   17.8520 C.2   108  PHE108      0.2290
     60  O         -2.2790   11.3110   18.5730 O.2   108  PHE108     -0.2864
     61  CB        -3.1500   12.8790   16.3400 C.3   108  PHE108      0.0560
     62  CG        -3.9040   13.8940   15.5400 C.ar  108  PHE108     -0.0200
     63  CD1       -4.6110   13.5000   14.3860 C.ar  108  PHE108     -0.0042
     64  CD2       -3.9140   15.2300   15.9260 C.ar  108  PHE108     -0.0042
     65  CE1       -5.2960   14.4330   13.6450 C.ar  108  PHE108     -0.0003
     66  CE2       -4.6050   16.1720   15.1810 C.ar  108  PHE108     -0.0003
     67  CZ        -5.3180   15.7570   14.0420 C.ar  108  PHE108     -0.0000
@<TRIPOS>BOND
     1    19    18   ar
     2    18    20   ar
     3    18    17    1
     4    17    16    1
     5    15    14    2
     6    24    23    2
     7    16    13    1
     8    23    22    1
     9    12    13    1
    10    14    13    1
    11    14    21   am
    12    22    21    1
    13    22    25    1
    14    38    37    1
    15    26    25    1
    16    65    67   ar
    17    65    63   ar
    18    37    35   ar
    19    37    36   ar
    20    35    33   ar
    21    67    66   ar
    22     4     3    2
    23    63    62   ar
    24    36    34   ar
    25    33    32   ar
    26    66    64   ar
    27     3     2    1
    28    62    64   ar
    29    62    61    1
    30     1     2    1
    31    34    32   ar
    32    27    28    1
    33    32    31    1
    34     2     5    1
    35    61    58    1
    36    28    31    1
    37    28    29    1
    38     9    11   ar
    39     9     7   ar
    40    11    10   ar
    41     7     6   ar
    42    58    59    1
    43    58    57    1
    44    56    55    2
    45    10     8   ar
    46     6     8   ar
    47     6     5    1
    48    29    30    2
    49    51    52   ar
    50    51    49   ar
    51    59    60    2
    52    55    57   am
    53    55    54    1
    54    52    50   ar
    55    49    46   ar
    56    50    48   ar
    57    54    53    2
    58    46    48   ar
    59    46    44   ar
    60    48    47   ar
    61    53    41    1
    62    43    44    1
    63    43    40    1
    64    44    45   ar
    65    47    45   ar
    66    41    40    1
    67    41    42    2
    68    40    39    1
