@<TRIPOS>MOLECULE
tmp/6f8nB01.pdb
 105 106 0 0 0
SMALL
GASTEIGER

@<TRIPOS>ATOM
      1  N         16.8800   17.2550   42.7680 N.3    97  TRP97      -0.1241
      2  CA        15.7400   18.1110   42.4720 C.3    97  TRP97       0.1605
      3  C         15.2330   18.7500   43.7570 C.2    97  TRP97       0.2264
      4  O         15.0660   18.0730   44.7780 O.2    97  TRP97      -0.2867
      5  CB        14.6330   17.2660   41.8320 C.3    97  TRP97       0.0550
      6  CG        13.4070   18.0480   41.4990 C.ar   97  TRP97       0.0003
      7  CD1       12.2210   18.0520   42.1840 C.ar   97  TRP97       0.0946
      8  CD2       13.2550   18.9660   40.4210 C.ar   97  TRP97       0.0152
      9  NE1       11.3280   18.9000   41.5710 N.ar   97  TRP97      -0.2442
     10  CE2       11.9410   19.4790   40.4900 C.ar   97  TRP97       0.0810
     11  CE3       14.0970   19.3960   39.3870 C.ar   97  TRP97       0.0012
     12  CZ2       11.4540   20.4070   39.5680 C.ar   97  TRP97       0.0191
     13  CZ3       13.6130   20.3150   38.4760 C.ar   97  TRP97       0.0001
     14  CH2       12.3040   20.8130   38.5730 C.ar   97  TRP97       0.0015
     15  N         18.7430   24.0300   38.9790 N.3   137  TYR137     -0.1241
     16  CA        19.8870   24.1410   38.0660 C.3   137  TYR137      0.1605
     17  C         20.4520   25.5530   38.2480 C.2   137  TYR137      0.2264
     18  O         19.7330   26.4680   38.6610 O.2   137  TYR137     -0.2867
     19  CB        19.4740   24.0160   36.5880 C.3   137  TYR137      0.0534
     20  CG        18.6030   22.8360   36.2210 C.ar  137  TYR137     -0.0201
     21  CD1       19.1530   21.5910   35.9140 C.ar  137  TYR137     -0.0009
     22  CD2       17.2290   22.9870   36.1470 C.ar  137  TYR137     -0.0009
     23  CE1       18.3300   20.5180   35.5750 C.ar  137  TYR137      0.0417
     24  CE2       16.4110   21.9420   35.8010 C.ar  137  TYR137      0.0417
     25  CZ        16.9570   20.7160   35.5200 C.ar  137  TYR137      0.1957
     26  OH        16.1060   19.6970   35.1730 O.3   137  TYR137     -0.2866
     27  N         13.1050   26.6950   37.5360 N.3   143  TRP143     -0.1241
     28  CA        11.9300   27.5320   37.3090 C.3   143  TRP143      0.1605
     29  C         11.3900   28.1060   38.6170 C.2   143  TRP143      0.2264
     30  O         10.1810   28.1870   38.8310 O.2   143  TRP143     -0.2867
     31  CB        10.8670   26.7770   36.4970 C.3   143  TRP143      0.0550
     32  CG        11.3930   26.3690   35.1490 C.ar  143  TRP143      0.0003
     33  CD1       11.4840   27.1540   34.0320 C.ar  143  TRP143      0.0946
     34  CD2       11.9560   25.0940   34.7870 C.ar  143  TRP143      0.0152
     35  NE1       12.0500   26.4470   32.9980 N.ar  143  TRP143     -0.2442
     36  CE2       12.3400   25.1780   33.4290 C.ar  143  TRP143      0.0810
     37  CE3       12.1530   23.8870   35.4700 C.ar  143  TRP143      0.0012
     38  CZ2       12.9200   24.1050   32.7440 C.ar  143  TRP143      0.0191
     39  CZ3       12.7270   22.8160   34.7850 C.ar  143  TRP143      0.0001
     40  CH2       13.1050   22.9370   33.4370 C.ar  143  TRP143      0.0015
     41  N         18.6020   17.9040   30.7730 N.3   179  ALA179     -0.1231
     42  CA        18.2890   17.6720   29.3640 C.3   179  ALA179      0.1694
     43  C         17.9240   18.9550   28.6210 C.2   179  ALA179      0.2592
     44  O         18.1160   19.0270   27.4000 O.2   179  ALA179     -0.2718
     45  CB        17.1570   16.6570   29.2420 C.3   179  ALA179      0.0304
     46  N         17.4070   19.9670   29.3220 N.am  180  ASN180     -0.1974
     47  CA        16.8860   21.1550   28.6430 C.3   180  ASN180      0.1688
     48  C         17.9400   21.7920   27.7370 C.2   180  ASN180      0.2292
     49  O         19.1210   21.8740   28.0910 O.2   180  ASN180     -0.2864
     50  CB        16.4280   22.1890   29.6650 C.3   180  ASN180      0.1181
     51  CG        15.4510   23.1790   29.0770 C.2   180  ASN180      0.2629
     52  OD1       15.8470   24.1340   28.4170 O.2   180  ASN180     -0.2716
     53  ND2       14.1670   22.9470   29.3000 N.am  180  ASN180     -0.0877
     54  N         16.4680   12.0020   30.5860 N.3   205  TYR205     -0.1227
     55  CA        15.1770   11.4520   30.9800 C.3   205  TYR205      0.1736
     56  C         14.3110   12.6080   31.4670 C.2   205  TYR205      0.2595
     57  O         14.6720   13.7780   31.3030 O.2   205  TYR205     -0.2718
     58  CB        15.3400   10.3060   31.9890 C.3   205  TYR205      0.0548
     59  CG        16.3990   10.5040   33.0580 C.ar  205  TYR205     -0.0200
     60  CD1       16.2620   11.4740   34.0450 C.ar  205  TYR205     -0.0009
     61  CD2       17.5130    9.6730   33.1010 C.ar  205  TYR205     -0.0009
     62  CE1       17.2460   11.6240   35.0310 C.ar  205  TYR205      0.0417
     63  CE2       18.4840    9.8100   34.0740 C.ar  205  TYR205      0.0417
     64  CZ        18.3440   10.7770   35.0270 C.ar  205  TYR205      0.1957
     65  OH        19.3300   10.8940   35.9770 O.3   205  TYR205     -0.2866
     66  N         13.1520   12.2830   32.0480 N.am  206  ASP206     -0.1960
     67  CA        12.1700   13.2930   32.4730 C.3   206  ASP206      0.1840
     68  C         11.6730   14.1510   31.3100 C.2   206  ASP206      0.2621
     69  O         11.5610   15.3750   31.4040 O.2   206  ASP206     -0.2715
     70  CB        12.6610   14.1300   33.6550 C.3   206  ASP206      0.1450
     71  CG        12.7690   13.3140   34.9110 C.2   206  ASP206      0.3671
     72  OD1       11.9530   12.3740   35.0740 O.co2 206  ASP206     -0.2456
     73  OD2       13.6780   13.5830   35.7200 O.co2 206  ASP206     -0.2456
     74  N         11.3310   13.4870   30.2150 N.am  207  MET207     -0.1977
     75  CA        10.8530   14.1580   29.0170 C.3   207  MET207      0.1605
     76  C          9.3460   14.0570   28.8270 C.2   207  MET207      0.2287
     77  O          8.8190   14.6400   27.8730 O.2   207  MET207     -0.2864
     78  CB        11.5850   13.5960   27.7950 C.3   207  MET207      0.0413
     79  CG        13.0990   13.7320   27.9130 C.3   207  MET207      0.0598
     80  SD        13.9770   12.8460   26.6080 S.3   207  MET207     -0.1393
     81  CE        15.6830   13.1360   27.0630 C.3   207  MET207      0.0692
     82  N          6.6550   15.4810   29.6320 N.3   209  TYR209     -0.1241
     83  CA         6.0260   16.7150   30.0680 C.3   209  TYR209      0.1605
     84  C          5.4350   17.4110   28.8480 C.2   209  TYR209      0.2264
     85  O          5.7210   17.0520   27.7030 O.2   209  TYR209     -0.2867
     86  CB         7.0290   17.6050   30.8320 C.3   209  TYR209      0.0534
     87  CG         7.3560   17.0280   32.1900 C.ar  209  TYR209     -0.0201
     88  CD1        8.3540   16.0640   32.3420 C.ar  209  TYR209     -0.0009
     89  CD2        6.6310   17.4080   33.3090 C.ar  209  TYR209     -0.0009
     90  CE1        8.6300   15.5090   33.5920 C.ar  209  TYR209      0.0417
     91  CE2        6.8950   16.8590   34.5590 C.ar  209  TYR209      0.0417
     92  CZ         7.8900   15.9070   34.6900 C.ar  209  TYR209      0.1957
     93  OH         8.1450   15.3680   35.9310 O.3   209  TYR209     -0.2866
     94  N         11.8310   16.2700   22.7540 N.3   233  TYR233     -0.1241
     95  CA        13.1070   15.8400   23.3010 C.3   233  TYR233      0.1605
     96  C         13.3140   14.3510   23.0630 C.2   233  TYR233      0.2264
     97  O         12.3640   13.5700   22.9340 O.2   233  TYR233     -0.2867
     98  CB        13.2220   16.1210   24.8230 C.3   233  TYR233      0.0534
     99  CG        13.6260   17.5520   25.1200 C.ar  233  TYR233     -0.0201
    100  CD1       12.6780   18.5680   25.1180 C.ar  233  TYR233     -0.0009
    101  CD2       14.9560   17.8920   25.3680 C.ar  233  TYR233     -0.0009
    102  CE1       13.0360   19.8830   25.3620 C.ar  233  TYR233      0.0417
    103  CE2       15.3220   19.2200   25.6130 C.ar  233  TYR233      0.0417
    104  CZ        14.3510   20.2020   25.6200 C.ar  233  TYR233      0.1957
    105  OH        14.6930   21.5180   25.8610 O.3   233  TYR233     -0.2866
@<TRIPOS>BOND
     1    94    95    1
     2    97    96    2
     3    96    95    1
     4    95    98    1
     5    98    99    1
     6   100    99   ar
     7   100   102   ar
     8    99   101   ar
     9   102   104   ar
    10   101   103   ar
    11   103   104   ar
    12   104   105    1
    13    80    81    1
    14    80    79    1
    15    44    43    2
    16    85    84    2
    17    48    49    2
    18    48    47    1
    19    78    79    1
    20    78    75    1
    21    77    76    2
    22    52    51    2
    23    43    46   am
    24    43    42    1
    25    47    46    1
    26    47    50    1
    27    76    75    1
    28    84    83    1
    29    75    74    1
    30    51    53   am
    31    51    50    1
    32    45    42    1
    33    42    41    1
    34    82    83    1
    35    83    86    1
    36    74    68   am
    37    54    55    1
    38    86    87    1
    39    55    56    1
    40    55    58    1
    41    57    56    2
    42    68    69    2
    43    68    67    1
    44    56    66   am
    45    58    59    1
    46    66    67    1
    47    87    88   ar
    48    87    89   ar
    49    88    90   ar
    50    67    70    1
    51    38    36   ar
    52    38    40   ar
    53    35    36   ar
    54    35    33   ar
    55    59    61   ar
    56    59    60   ar
    57    61    63   ar
    58    89    91   ar
    59    36    34   ar
    60    40    39   ar
    61    90    92   ar
    62    70    71    1
    63    33    32   ar
    64    60    62   ar
    65    63    64   ar
    66    91    92   ar
    67    92    93    1
    68    39    37   ar
    69    34    32   ar
    70    34    37   ar
    71    71    72   ar
    72    71    73   ar
    73    64    62   ar
    74    64    65    1
    75    32    31    1
    76    26    25    1
    77    25    23   ar
    78    25    24   ar
    79    23    21   ar
    80    24    22   ar
    81    21    20   ar
    82    22    20   ar
    83    20    19    1
    84    31    28    1
    85    19    16    1
    86    28    27    1
    87    28    29    1
    88    16    17    1
    89    16    15    1
    90    17    18    2
    91    13    14   ar
    92    13    11   ar
    93    14    12   ar
    94    29    30    2
    95    11     8   ar
    96    12    10   ar
    97     8    10   ar
    98     8     6   ar
    99    10     9   ar
   100     6     5    1
   101     6     7   ar
   102     9     7   ar
   103     5     2    1
   104     2     1    1
   105     2     3    1
   106     3     4    2
