@<TRIPOS>MOLECULE
tmp/6f8nB00.pdb
 133 129 0 0 0
SMALL
GASTEIGER

@<TRIPOS>ATOM
      1  N         14.3470   11.5730   48.0550 N.3    17  ASP17      -0.1239
      2  CA        14.4030   12.4850   46.9230 C.3    17  ASP17       0.1674
      3  C         13.0440   13.1530   46.8050 C.2    17  ASP17       0.2266
      4  O         12.0150   12.5120   47.0430 O.2    17  ASP17      -0.2867
      5  CB        14.7230   11.7120   45.6290 C.3    17  ASP17       0.1410
      6  CG        14.7410   12.6040   44.3920 C.2    17  ASP17       0.3668
      7  OD1       15.7670   13.2710   44.1580 O.co2  17  ASP17      -0.2456
      8  OD2       13.7500   12.6290   43.6300 O.co2  17  ASP17      -0.2456
      9  N         11.2820   14.0640   44.2890 N.3    19  THR19      -0.1218
     10  CA        10.3910   13.4700   43.2980 C.3    19  THR19       0.1862
     11  C         10.2600   11.9590   43.4520 C.2    19  THR19       0.2287
     12  O          9.1680   11.4160   43.2730 O.2    19  THR19      -0.2866
     13  CB        10.8590   13.7910   41.8740 C.3    19  THR19       0.1770
     14  OG1       11.0250   15.2070   41.7040 O.3    19  THR19      -0.2211
     15  CG2        9.8190   13.3080   40.8580 C.3    19  THR19       0.0375
     16  N         16.8800   17.2550   42.7680 N.3    97  TRP97      -0.1241
     17  CA        15.7400   18.1110   42.4720 C.3    97  TRP97       0.1605
     18  C         15.2330   18.7500   43.7570 C.2    97  TRP97       0.2264
     19  O         15.0660   18.0730   44.7780 O.2    97  TRP97      -0.2867
     20  CB        14.6330   17.2660   41.8320 C.3    97  TRP97       0.0550
     21  CG        13.4070   18.0480   41.4990 C.ar   97  TRP97       0.0003
     22  CD1       12.2210   18.0520   42.1840 C.ar   97  TRP97       0.0946
     23  CD2       13.2550   18.9660   40.4210 C.ar   97  TRP97       0.0152
     24  NE1       11.3280   18.9000   41.5710 N.ar   97  TRP97      -0.2442
     25  CE2       11.9410   19.4790   40.4900 C.ar   97  TRP97       0.0810
     26  CE3       14.0970   19.3960   39.3870 C.ar   97  TRP97       0.0012
     27  CZ2       11.4540   20.4070   39.5680 C.ar   97  TRP97       0.0191
     28  CZ3       13.6130   20.3150   38.4760 C.ar   97  TRP97       0.0001
     29  CH2       12.3040   20.8130   38.5730 C.ar   97  TRP97       0.0015
     30  N         20.3130   21.5410   40.3760 N.3   136  GLN136     -0.1231
     31  CA        19.1960   21.6540   39.4430 C.3   136  GLN136      0.1698
     32  C         18.3990   22.9420   39.6720 C.2   136  GLN136      0.2592
     33  O         17.4690   22.9520   40.4690 O.2   136  GLN136     -0.2718
     34  CB        18.2860   20.4320   39.5670 C.3   136  GLN136      0.0381
     35  CG        19.0220   19.1310   39.2100 C.3   136  GLN136      0.0905
     36  CD        18.1440   17.8990   39.2950 C.2   136  GLN136      0.2608
     37  OE1       16.9220   17.9840   39.2510 O.2   136  GLN136     -0.2717
     38  NE2       18.7760   16.7340   39.4020 N.am  136  GLN136     -0.0878
     39  N         18.7430   24.0300   38.9790 N.am  137  TYR137     -0.1976
     40  CA        19.8870   24.1410   38.0660 C.3   137  TYR137      0.1639
     41  C         20.4520   25.5530   38.2480 C.2   137  TYR137      0.2290
     42  O         19.7330   26.4680   38.6610 O.2   137  TYR137     -0.2864
     43  CB        19.4740   24.0160   36.5880 C.3   137  TYR137      0.0560
     44  CG        18.6030   22.8360   36.2210 C.ar  137  TYR137     -0.0198
     45  CD1       19.1530   21.5910   35.9140 C.ar  137  TYR137     -0.0009
     46  CD2       17.2290   22.9870   36.1470 C.ar  137  TYR137     -0.0009
     47  CE1       18.3300   20.5180   35.5750 C.ar  137  TYR137      0.0417
     48  CE2       16.4110   21.9420   35.8010 C.ar  137  TYR137      0.0417
     49  CZ        16.9570   20.7160   35.5200 C.ar  137  TYR137      0.1957
     50  OH        16.1060   19.6970   35.1730 O.3   137  TYR137     -0.2866
     51  N         13.1050   26.6950   37.5360 N.3   143  TRP143     -0.1241
     52  CA        11.9300   27.5320   37.3090 C.3   143  TRP143      0.1605
     53  C         11.3900   28.1060   38.6170 C.2   143  TRP143      0.2264
     54  O         10.1810   28.1870   38.8310 O.2   143  TRP143     -0.2867
     55  CB        10.8670   26.7770   36.4970 C.3   143  TRP143      0.0550
     56  CG        11.3930   26.3690   35.1490 C.ar  143  TRP143      0.0003
     57  CD1       11.4840   27.1540   34.0320 C.ar  143  TRP143      0.0946
     58  CD2       11.9560   25.0940   34.7870 C.ar  143  TRP143      0.0152
     59  NE1       12.0500   26.4470   32.9980 N.ar  143  TRP143     -0.2442
     60  CE2       12.3400   25.1780   33.4290 C.ar  143  TRP143      0.0810
     61  CE3       12.1530   23.8870   35.4700 C.ar  143  TRP143      0.0012
     62  CZ2       12.9200   24.1050   32.7440 C.ar  143  TRP143      0.0191
     63  CZ3       12.7270   22.8160   34.7850 C.ar  143  TRP143      0.0001
     64  CH2       13.1050   22.9370   33.4370 C.ar  143  TRP143      0.0015
     65  N         21.2970   18.9120   33.0330 N.3   178  GLY178     -0.1210
     66  CA        19.9270   18.6830   32.6200 C.3   178  GLY178      0.1956
     67  C         19.7590   18.4700   31.1250 C.2   178  GLY178      0.2611
     68  O         20.6140   18.8050   30.3040 O.2   178  GLY178     -0.2717
     69  N         18.6020   17.9040   30.7730 N.am  179  ALA179     -0.1979
     70  CA        18.2890   17.6720   29.3640 C.3   179  ALA179      0.1597
     71  C         17.9240   18.9550   28.6210 C.2   179  ALA179      0.2287
     72  O         18.1160   19.0270   27.4000 O.2   179  ALA179     -0.2864
     73  CB        17.1570   16.6570   29.2420 C.3   179  ALA179      0.0319
     74  N         21.4210   13.9290   32.2730 N.3   203  MET203     -0.1245
     75  CA        20.1180   13.4690   32.7780 C.3   203  MET203      0.1570
     76  C         19.1090   13.3620   31.6300 C.2   203  MET203      0.2261
     77  O         18.1400   14.1260   31.5180 O.2   203  MET203     -0.2867
     78  CB        19.6310   14.3630   33.9140 C.3   203  MET203      0.0387
     79  CG        20.5090   14.2720   35.1680 C.3   203  MET203      0.0595
     80  SD        19.8620   15.1810   36.5920 S.3   203  MET203     -0.1393
     81  CE        20.1250   16.8740   36.0580 C.3   203  MET203      0.0692
     82  N         16.4680   12.0020   30.5860 N.3   205  TYR205     -0.1227
     83  CA        15.1770   11.4520   30.9800 C.3   205  TYR205      0.1736
     84  C         14.3110   12.6080   31.4670 C.2   205  TYR205      0.2595
     85  O         14.6720   13.7780   31.3030 O.2   205  TYR205     -0.2718
     86  CB        15.3400   10.3060   31.9890 C.3   205  TYR205      0.0548
     87  CG        16.3990   10.5040   33.0580 C.ar  205  TYR205     -0.0200
     88  CD1       16.2620   11.4740   34.0450 C.ar  205  TYR205     -0.0009
     89  CD2       17.5130    9.6730   33.1010 C.ar  205  TYR205     -0.0009
     90  CE1       17.2460   11.6240   35.0310 C.ar  205  TYR205      0.0417
     91  CE2       18.4840    9.8100   34.0740 C.ar  205  TYR205      0.0417
     92  CZ        18.3440   10.7770   35.0270 C.ar  205  TYR205      0.1957
     93  OH        19.3300   10.8940   35.9770 O.3   205  TYR205     -0.2866
     94  N         13.1520   12.2830   32.0480 N.am  206  ASP206     -0.1974
     95  CA        12.1700   13.2930   32.4730 C.3   206  ASP206      0.1709
     96  C         11.6730   14.1510   31.3100 C.2   206  ASP206      0.2293
     97  O         11.5610   15.3750   31.4040 O.2   206  ASP206     -0.2864
     98  CB        12.6610   14.1300   33.6550 C.3   206  ASP206      0.1436
     99  CG        12.7690   13.3140   34.9110 C.2   206  ASP206      0.3671
    100  OD1       11.9530   12.3740   35.0740 O.co2 206  ASP206     -0.2456
    101  OD2       13.6780   13.5830   35.7200 O.co2 206  ASP206     -0.2456
    102  N          6.6550   15.4810   29.6320 N.3   209  TYR209     -0.1241
    103  CA         6.0260   16.7150   30.0680 C.3   209  TYR209      0.1605
    104  C          5.4350   17.4110   28.8480 C.2   209  TYR209      0.2264
    105  O          5.7210   17.0520   27.7030 O.2   209  TYR209     -0.2867
    106  CB         7.0290   17.6050   30.8320 C.3   209  TYR209      0.0534
    107  CG         7.3560   17.0280   32.1900 C.ar  209  TYR209     -0.0201
    108  CD1        8.3540   16.0640   32.3420 C.ar  209  TYR209     -0.0009
    109  CD2        6.6310   17.4080   33.3090 C.ar  209  TYR209     -0.0009
    110  CE1        8.6300   15.5090   33.5920 C.ar  209  TYR209      0.0417
    111  CE2        6.8950   16.8590   34.5590 C.ar  209  TYR209      0.0417
    112  CZ         7.8900   15.9070   34.6900 C.ar  209  TYR209      0.1957
    113  OH         8.1450   15.3680   35.9310 O.3   209  TYR209     -0.2866
    114  N          7.2010    7.4480   33.6630 N.3   261  ARG261     -0.1245
    115  CA         6.3200    8.5410   34.0490 C.3   261  ARG261      0.1563
    116  C          5.0280    8.4600   33.2560 C.2   261  ARG261      0.2260
    117  O          5.0520    8.2110   32.0450 O.2   261  ARG261     -0.2867
    118  CB         6.9630    9.9220   33.7930 C.3   261  ARG261      0.0307
    119  CG         8.0310   10.2830   34.7770 C.3   261  ARG261      0.0489
    120  CD         8.3070   11.7720   34.7140 C.3   261  ARG261      0.2205
    121  NE         9.3530   12.1340   35.6610 N.pl3 261  ARG261     -0.0865
    122  CZ         9.1400   12.4790   36.9290 C.cat 261  ARG261      0.5346
    123  NH1        7.9030   12.5320   37.4290 N.pl3 261  ARG261      0.1354
    124  NH2       10.1710   12.7870   37.7030 N.pl3 261  ARG261      0.1354
    125  N         -0.2900   15.3340   41.6720 N.3   305  LYS305     -0.1245
    126  CA         0.9650   15.7430   42.2990 C.3   305  LYS305      0.1561
    127  C          2.1960   15.1220   41.6600 C.2   305  LYS305      0.2260
    128  O          3.2430   15.7790   41.5770 O.2   305  LYS305     -0.2867
    129  CB         0.9820   15.3720   43.7940 C.3   305  LYS305      0.0271
    130  CG        -0.3210   15.5620   44.5480 C.3   305  LYS305      0.0035
    131  CD        -0.1610   15.1210   46.0080 C.3   305  LYS305      0.0206
    132  CE        -1.5060   15.0980   46.7210 C.3   305  LYS305      0.1093
    133  NZ        -1.4140   15.2130   48.2070 N.3   305  LYS305     -0.1314
@<TRIPOS>BOND
     1    72    71    2
     2   105   104    2
     3    71    70    1
     4   104   103    1
     5    73    70    1
     6    70    69    1
     7   102   103    1
     8   103   106    1
     9    68    67    2
    10    82    83    1
    11    69    67   am
    12   106   107    1
    13    83    84    1
    14    83    86    1
    15    67    66    1
    16    85    84    2
    17    96    97    2
    18    96    95    1
    19    84    94   am
    20    77    76    2
    21    76    75    1
    22    86    87    1
    23   117   116    2
    24    94    95    1
    25   107   108   ar
    26   107   109   ar
    27    74    75    1
    28   108   110   ar
    29    95    98    1
    30    66    65    1
    31    62    60   ar
    32    62    64   ar
    33    75    78    1
    34    59    60   ar
    35    59    57   ar
    36    87    89   ar
    37    87    88   ar
    38    89    91   ar
    39   116   115    1
    40   109   111   ar
    41    60    58   ar
    42    64    63   ar
    43   110   112   ar
    44    98    99    1
    45   114   115    1
    46   118   115    1
    47   118   119    1
    48    78    79    1
    49    57    56   ar
    50    88    90   ar
    51    91    92   ar
    52   111   112   ar
    53   112   113    1
    54   120   119    1
    55   120   121    1
    56    63    61   ar
    57    58    56   ar
    58    58    61   ar
    59    99   100   ar
    60    99   101   ar
    61    92    90   ar
    62    92    93    1
    63    56    55    1
    64    79    80    1
    65    50    49    1
    66    49    47   ar
    67    49    48   ar
    68    47    45   ar
    69   121   122    2
    70    48    46   ar
    71    45    44   ar
    72    81    80    1
    73    46    44   ar
    74    44    43    1
    75    55    52    1
    76    43    40    1
    77   122   123    1
    78   122   124    1
    79    52    51    1
    80    52    53    1
    81    40    41    1
    82    40    39    1
    83    41    42    2
    84    28    29   ar
    85    28    26   ar
    86    29    27   ar
    87    53    54    2
    88    39    32   am
    89    35    36    1
    90    35    34    1
    91    37    36    2
    92    36    38   am
    93    26    23   ar
    94    31    34    1
    95    31    32    1
    96    31    30    1
    97    27    25   ar
    98    32    33    2
    99    23    25   ar
   100    23    21   ar
   101    25    24   ar
   102    15    13    1
   103    21    20    1
   104    21    22   ar
   105    24    22   ar
   106   128   127    2
   107   127   126    1
   108   125   126    1
   109    14    13    1
   110    20    17    1
   111    13    10    1
   112   126   129    1
   113    17    16    1
   114    17    18    1
   115    12    11    2
   116    10    11    1
   117    10     9    1
   118     8     6   ar
   119    18    19    2
   120   129   130    1
   121     7     6   ar
   122     6     5    1
   123   130   131    1
   124     5     2    1
   125   131   132    1
   126   132   133    1
   127     3     2    1
   128     3     4    2
   129     2     1    1
