@<TRIPOS>MOLECULE
tmp/6f8tA00.pdb
 240 235 0 0 0
SMALL
GASTEIGER

@<TRIPOS>ATOM
      1  N         24.7750  235.9410  141.7130 N.3    76  TYR76      -0.1227
      2  CA        25.6560  234.8270  141.3930 C.3    76  TYR76       0.1736
      3  C         24.8690  233.6700  140.7890 C.2    76  TYR76       0.2595
      4  O         25.1770  233.1990  139.6960 O.2    76  TYR76      -0.2718
      5  CB        26.4160  234.3640  142.6390 C.3    76  TYR76       0.0548
      6  CG        27.3550  233.2010  142.3560 C.ar   76  TYR76      -0.0200
      7  CD1       26.8990  231.8830  142.4240 C.ar   76  TYR76      -0.0009
      8  CD2       28.6900  233.4250  141.9900 C.ar   76  TYR76      -0.0009
      9  CE1       27.7480  230.8110  142.1500 C.ar   76  TYR76       0.0417
     10  CE2       29.5530  232.3520  141.7200 C.ar   76  TYR76       0.0417
     11  CZ        29.0720  231.0560  141.7900 C.ar   76  TYR76       0.1957
     12  OH        29.9150  230.0010  141.5260 O.3    76  TYR76      -0.2866
     13  N         23.8590  233.1990  141.5080 N.am   77  HIS77      -0.1975
     14  CA        23.1330  232.0190  141.0400 C.3    77  HIS77       0.1656
     15  C         22.1280  232.3650  139.9500 C.2    77  HIS77       0.2291
     16  O         20.9260  232.2380  140.1290 O.2    77  HIS77      -0.2864
     17  CB        22.4590  231.3280  142.2210 C.3    77  HIS77       0.0771
     18  CG        23.4280  230.6030  143.0960 C.ar   77  HIS77       0.0820
     19  ND1       23.8250  231.0770  144.3250 N.ar   77  HIS77      -0.2267
     20  CD2       24.1230  229.4600  142.8900 C.ar   77  HIS77       0.1154
     21  CE1       24.7060  230.2440  144.8520 C.ar   77  HIS77       0.1986
     22  NE2       24.9010  229.2510  144.0040 N.ar   77  HIS77      -0.2212
     23  N         16.8640  229.6040  141.3780 N.3   121  HIS121     -0.1241
     24  CA        17.5310  229.8900  142.6380 C.3   121  HIS121      0.1621
     25  C         17.1010  231.2750  143.1420 C.2   121  HIS121      0.2264
     26  O         17.1250  232.2340  142.3860 O.2   121  HIS121     -0.2867
     27  CB        19.0500  229.8410  142.4580 C.3   121  HIS121      0.0745
     28  CG        19.8020  229.5890  143.7240 C.ar  121  HIS121      0.0817
     29  ND1       19.8240  230.4880  144.7700 N.ar  121  HIS121     -0.2268
     30  CD2       20.5730  228.5440  144.1080 C.ar  121  HIS121      0.1154
     31  CE1       20.5700  230.0020  145.7480 C.ar  121  HIS121      0.1986
     32  NE2       21.0400  228.8250  145.3700 N.ar  121  HIS121     -0.2212
     33  N         19.2040  232.8290  148.1110 N.3   124  VAL124     -0.1231
     34  CA        19.4020  232.5400  149.5200 C.3   124  VAL124      0.1692
     35  C         19.6380  231.0450  149.7160 C.2   124  VAL124      0.2593
     36  O         19.2270  230.2240  148.8910 O.2   124  VAL124     -0.2718
     37  CB        18.2010  232.9910  150.3850 C.3   124  VAL124      0.0266
     38  CG1       18.1140  234.5140  150.4350 C.3   124  VAL124      0.0020
     39  CG2       16.8940  232.3820  149.8710 C.3   124  VAL124      0.0020
     40  N         20.2920  230.7120  150.8210 N.am  125  SER125     -0.1938
     41  CA        20.7310  229.3480  151.1270 C.3   125  SER125      0.2055
     42  C         19.6250  228.4080  151.5990 C.2   125  SER125      0.2643
     43  O         18.5860  228.8490  152.0610 O.2   125  SER125     -0.2714
     44  CB        21.7950  229.3960  152.2110 C.3   125  SER125      0.2130
     45  OG        21.1980  229.7110  153.4610 O.3   125  SER125     -0.2179
     46  N         19.8820  227.1020  151.5310 N.am  126  ASN126     -0.1957
     47  CA        18.9830  226.1350  152.1600 C.3   126  ASN126      0.1819
     48  C         18.6960  226.4850  153.6180 C.2   126  ASN126      0.2621
     49  O         17.5450  226.4620  154.0570 O.2   126  ASN126     -0.2715
     50  CB        19.5630  224.7290  152.0830 C.3   126  ASN126      0.1195
     51  CG        19.2850  224.0650  150.7630 C.2   126  ASN126      0.2630
     52  OD1       18.2740  224.3440  150.1220 O.2   126  ASN126     -0.2716
     53  ND2       20.1810  223.1830  150.3420 N.am  126  ASN126     -0.0877
     54  N         19.7470  226.8070  154.3690 N.am  127  GLN127     -0.1977
     55  CA        19.5790  227.0840  155.7920 C.3   127  GLN127      0.1601
     56  C         18.7060  228.3150  156.0350 C.2   127  GLN127      0.2287
     57  O         17.8980  228.3370  156.9700 O.2   127  GLN127     -0.2864
     58  CB        20.9270  227.2640  156.4870 C.3   127  GLN127      0.0394
     59  CG        20.7910  227.2040  158.0080 C.3   127  GLN127      0.0908
     60  CD        20.2910  225.8470  158.4930 C.2   127  GLN127      0.2608
     61  OE1       20.9130  224.8180  158.2270 O.2   127  GLN127     -0.2717
     62  NE2       19.1710  225.8410  159.2080 N.am  127  GLN127     -0.0878
     63  N         16.7270  223.3930  148.0060 N.3   146  LEU146     -0.1245
     64  CA        16.9880  224.0170  146.7110 C.3   146  LEU146      0.1561
     65  C         17.1890  223.0010  145.5910 C.2   146  LEU146      0.2260
     66  O         16.6380  223.1410  144.5080 O.2   146  LEU146     -0.2867
     67  CB        18.2280  224.9100  146.7930 C.3   146  LEU146      0.0270
     68  CG        18.0300  226.2060  147.5850 C.3   146  LEU146      0.0019
     69  CD1       19.4000  226.7680  147.9920 C.3   146  LEU146      0.0001
     70  CD2       17.2740  227.2000  146.7450 C.3   146  LEU146      0.0001
     71  N         25.7580  221.3360  148.9990 N.3   190  MET190     -0.1245
     72  CA        27.0410  221.4630  149.6890 C.3   190  MET190      0.1570
     73  C         27.0600  220.6890  150.9980 C.2   190  MET190      0.2261
     74  O         28.1330  220.3450  151.4980 O.2   190  MET190     -0.2867
     75  CB        27.3890  222.9350  149.9420 C.3   190  MET190      0.0387
     76  CG        28.3430  223.5300  148.9040 C.3   190  MET190      0.0595
     77  SD        29.8660  222.5740  148.6560 S.3   190  MET190     -0.1393
     78  CE        30.6640  222.7590  150.2490 C.3   190  MET190      0.0692
     79  N         30.8310  223.0360  139.5270 N.3   235  ASP235     -0.1225
     80  CA        30.1090  223.9780  140.3890 C.3   235  ASP235      0.1805
     81  C         31.0830  224.7760  141.2710 C.2   235  ASP235      0.2597
     82  O         30.8620  225.9510  141.5480 O.2   235  ASP235     -0.2718
     83  CB        29.1050  223.1980  141.2420 C.3   235  ASP235      0.1424
     84  CG        27.9990  224.0560  141.8130 C.2   235  ASP235      0.3668
     85  OD1       27.6360  225.0990  141.2300 O.co2 235  ASP235     -0.2456
     86  OD2       27.4640  223.6520  142.8580 O.co2 235  ASP235     -0.2456
     87  N         32.1570  224.1200  141.6960 N.am  236  LEU236     -0.1979
     88  CA        33.1750  224.7190  142.5600 C.3   236  LEU236      0.1596
     89  C         34.4550  225.0580  141.7960 C.2   236  LEU236      0.2287
     90  O         35.5660  224.9420  142.3410 O.2   236  LEU236     -0.2864
     91  CB        33.5050  223.7760  143.7190 C.3   236  LEU236      0.0297
     92  CG        32.3620  223.5850  144.7240 C.3   236  LEU236      0.0022
     93  CD1       32.7770  222.6340  145.8390 C.3   236  LEU236      0.0001
     94  CD2       31.9390  224.9390  145.2840 C.3   236  LEU236      0.0001
     95  N         35.1910  228.0690  140.1830 N.3   238  ASN238     -0.1226
     96  CA        35.5380  229.4890  140.0410 C.3   238  ASN238      0.1770
     97  C         36.9990  229.7910  140.4130 C.2   238  ASN238      0.2439
     98  O         37.6970  230.4850  139.6680 O.2   238  ASN238     -0.2733
     99  CB        34.6430  230.3950  140.9010 C.3   238  ASN238      0.1168
    100  CG        33.1750  230.4170  140.4580 C.2   238  ASN238      0.2627
    101  OD1       32.3130  230.8440  141.2280 O.2   238  ASN238     -0.2716
    102  ND2       32.8830  229.9600  139.2390 N.am  238  ASN238     -0.0877
    103  N         37.4570  229.2970  141.5750 N.am  239  PRO239     -0.2729
    104  CA        38.8190  229.6570  141.9870 C.3   239  PRO239      0.1401
    105  C         39.8940  229.0080  141.1220 C.2   239  PRO239      0.2269
    106  O         41.0620  229.3710  141.2670 O.2   239  PRO239     -0.2865
    107  CB        38.8920  229.1520  143.4370 C.3   239  PRO239      0.0296
    108  CG        37.4410  229.0730  143.8840 C.3   239  PRO239      0.0237
    109  CD        36.7440  228.5770  142.6440 C.3   239  PRO239      0.0939
    110  N         37.6850  234.6400  138.0680 N.3   246  TYR246     -0.1241
    111  CA        37.5520  234.3530  139.4920 C.3   246  TYR246      0.1605
    112  C         37.2190  235.6370  140.2540 C.2   246  TYR246      0.2264
    113  O         36.3270  235.6480  141.1060 O.2   246  TYR246     -0.2867
    114  CB        38.8410  233.6970  140.0100 C.3   246  TYR246      0.0534
    115  CG        38.8810  233.2960  141.4670 C.ar  246  TYR246     -0.0201
    116  CD1       37.7120  233.1260  142.2230 C.ar  246  TYR246     -0.0009
    117  CD2       40.1060  233.0820  142.0960 C.ar  246  TYR246     -0.0009
    118  CE1       37.7780  232.7510  143.5620 C.ar  246  TYR246      0.0417
    119  CE2       40.1800  232.7040  143.4110 C.ar  246  TYR246      0.0417
    120  CZ        39.0260  232.5440  144.1490 C.ar  246  TYR246      0.1957
    121  OH        39.1430  232.1810  145.4690 O.3   246  TYR246     -0.2866
    122  N         33.5960  236.3960  139.7870 N.3   249  TRP249     -0.1227
    123  CA        32.7470  235.4270  140.5190 C.3   249  TRP249      0.1737
    124  C         32.7130  235.7560  142.0150 C.2   249  TRP249      0.2596
    125  O         31.6650  235.6620  142.6730 O.2   249  TRP249     -0.2718
    126  CB        33.2250  233.9730  140.3150 C.3   249  TRP249      0.0564
    127  CG        32.9900  233.4460  138.9350 C.ar  249  TRP249      0.0003
    128  CD1       33.9350  232.9860  138.0570 C.ar  249  TRP249      0.0946
    129  CD2       31.7330  233.3470  138.2550 C.ar  249  TRP249      0.0152
    130  NE1       33.3380  232.6020  136.8800 N.ar  249  TRP249     -0.2442
    131  CE2       31.9920  232.8250  136.9700 C.ar  249  TRP249      0.0810
    132  CE3       30.4110  233.6590  138.6030 C.ar  249  TRP249      0.0012
    133  CZ2       30.9810  232.5920  136.0420 C.ar  249  TRP249      0.0191
    134  CZ3       29.4090  233.4330  137.6750 C.ar  249  TRP249      0.0001
    135  CH2       29.6990  232.8950  136.4140 C.ar  249  TRP249      0.0015
    136  N         33.8640  236.1510  142.5560 N.am  250  THR250     -0.1953
    137  CA        33.9610  236.4910  143.9630 C.3   250  THR250      0.1897
    138  C         33.0900  237.7020  144.2520 C.2   250  THR250      0.2313
    139  O         32.2940  237.6890  145.2030 O.2   250  THR250     -0.2863
    140  CB        35.4320  236.7490  144.3770 C.3   250  THR250      0.1794
    141  OG1       36.1590  235.5180  144.2860 O.3   250  THR250     -0.2208
    142  CG2       35.5200  237.2560  145.8060 C.3   250  THR250      0.0378
    143  N         29.3380  236.4990  144.2020 N.3   253  ILE253     -0.1231
    144  CA        28.8670  235.7010  145.3230 C.3   253  ILE253      0.1692
    145  C         28.8030  236.5580  146.5930 C.2   253  ILE253      0.2591
    146  O         27.8890  236.4020  147.4080 O.2   253  ILE253     -0.2718
    147  CB        29.7360  234.4370  145.5610 C.3   253  ILE253      0.0266
    148  CG1       28.9780  233.4370  146.4460 C.3   253  ILE253      0.0019
    149  CG2       31.1210  234.7890  146.1610 C.3   253  ILE253      0.0020
    150  CD1       27.7430  232.8220  145.7800 C.3   253  ILE253      0.0001
    151  N         29.7320  237.4950  146.7560 N.am  254  MET254     -0.1979
    152  CA        29.6780  238.3240  147.9620 C.3   254  MET254      0.1605
    153  C         28.4580  239.2400  147.9220 C.2   254  MET254      0.2287
    154  O         27.8110  239.4640  148.9540 O.2   254  MET254     -0.2864
    155  CB        30.9700  239.1210  148.1390 C.3   254  MET254      0.0413
    156  CG        32.1720  238.2200  148.4290 C.3   254  MET254      0.0598
    157  SD        31.9520  236.9990  149.7500 S.3   254  MET254     -0.1393
    158  CE        31.5300  238.0050  151.1750 C.3   254  MET254      0.0692
    159  N         25.6090  238.5400  146.5030 N.3   256  GLU256     -0.1231
    160  CA        24.4540  237.7040  146.8060 C.3   256  GLU256      0.1699
    161  C         24.4260  237.3810  148.2970 C.2   256  GLU256      0.2592
    162  O         23.3860  237.4920  148.9400 O.2   256  GLU256     -0.2718
    163  CB        24.4890  236.4280  145.9630 C.3   256  GLU256      0.0402
    164  CG        23.3000  235.5110  146.1830 C.3   256  GLU256      0.1161
    165  CD        23.2640  234.3560  145.1920 C.2   256  GLU256      0.3649
    166  OE1       23.5310  234.5750  143.9950 O.co2 256  GLU256     -0.2457
    167  OE2       22.9720  233.2340  145.6270 O.co2 256  GLU256     -0.2457
    168  N         25.5730  237.0150  148.8600 N.am  257  PHE257     -0.1976
    169  CA        25.6630  236.7310  150.2920 C.3   257  PHE257      0.1639
    170  C         25.2300  237.9320  151.1250 C.2   257  PHE257      0.2290
    171  O         24.4500  237.7950  152.0720 O.2   257  PHE257     -0.2864
    172  CB        27.0810  236.3340  150.6930 C.3   257  PHE257      0.0560
    173  CG        27.4050  234.8880  150.4360 C.ar  257  PHE257     -0.0200
    174  CD1       26.5980  234.1190  149.6110 C.ar  257  PHE257     -0.0042
    175  CD2       28.5090  234.3030  151.0290 C.ar  257  PHE257     -0.0042
    176  CE1       26.8910  232.7890  149.3720 C.ar  257  PHE257     -0.0003
    177  CE2       28.7980  232.9680  150.8030 C.ar  257  PHE257     -0.0003
    178  CZ        27.9920  232.2160  149.9680 C.ar  257  PHE257     -0.0000
    179  N         21.5800  238.3990  151.2860 N.3   260  GLN260     -0.1245
    180  CA        20.9490  237.4950  152.2520 C.3   260  GLN260      0.1566
    181  C         21.1370  237.9770  153.6920 C.2   260  GLN260      0.2260
    182  O         20.2160  237.9180  154.5030 O.2   260  GLN260     -0.2867
    183  CB        21.4920  236.0610  152.1370 C.3   260  GLN260      0.0367
    184  CG        20.9940  235.1690  153.2750 C.3   260  GLN260      0.0905
    185  CD        21.4500  233.7250  153.1380 C.2   260  GLN260      0.2608
    186  OE1       21.5440  233.2020  152.0290 O.2   260  GLN260     -0.2717
    187  NE2       21.7810  233.0910  154.2640 N.am  260  GLN260     -0.0878
    188  N         24.2420  235.0370  158.8040 N.3   272  SER272     -0.1203
    189  CA        24.9990  233.8460  158.4170 C.3   272  SER272      0.2005
    190  C         26.4640  234.1900  158.1790 C.2   272  SER272      0.2461
    191  O         26.7720  235.2850  157.7210 O.2   272  SER272     -0.2732
    192  CB        24.3990  233.2060  157.1630 C.3   272  SER272      0.2103
    193  OG        23.1260  232.6360  157.4460 O.3   272  SER272     -0.2182
    194  N         27.3720  233.2550  158.5030 N.am  273  PRO273     -0.2717
    195  CA        28.7990  233.4270  158.2120 C.3   273  PRO273      0.1535
    196  C         29.0500  233.9740  156.8050 C.2   273  PRO273      0.2598
    197  O         28.4580  233.4840  155.8370 O.2   273  PRO273     -0.2715
    198  CB        29.3510  232.0050  158.3510 C.3   273  PRO273      0.0310
    199  CG        28.4760  231.3730  159.3880 C.3   273  PRO273      0.0237
    200  CD        27.0960  231.9840  159.2000 C.3   273  PRO273      0.0939
    201  N         29.8970  234.9990  156.7170 N.am  274  MET274     -0.1964
    202  CA        30.2710  235.6450  155.4520 C.3   274  MET274      0.1736
    203  C         29.1510  236.4340  154.7560 C.2   274  MET274      0.2616
    204  O         29.3150  236.8790  153.6110 O.2   274  MET274     -0.2715
    205  CB        30.8200  234.5960  154.4860 C.3   274  MET274      0.0427
    206  CG        32.1230  233.9660  154.9550 C.3   274  MET274      0.0599
    207  SD        32.5470  232.5270  153.9610 S.3   274  MET274     -0.1393
    208  CE        31.2360  231.3860  154.4160 C.3   274  MET274      0.0692
    209  N         28.0200  236.6180  155.4330 N.am  275  CYS275     -0.1968
    210  CA        26.9110  237.3860  154.8410 C.3   275  CYS275      0.1712
    211  C         26.7320  238.7840  155.4280 C.2   275  CYS275      0.2296
    212  O         25.7660  239.4570  155.1150 O.2   275  CYS275     -0.2864
    213  CB        25.5940  236.6240  154.9920 C.3   275  CYS275      0.0983
    214  SG        25.5540  235.1040  154.0140 S.3   275  CYS275     -0.0798
    215  N         38.3100  235.1340  153.2650 N.3   285  SER285     -0.1202
    216  CA        37.2920  234.1020  153.1090 C.3   285  SER285      0.2020
    217  C         37.5460  233.2550  151.8630 C.2   285  SER285      0.2618
    218  O         37.3370  232.0330  151.8840 O.2   285  SER285     -0.2717
    219  CB        35.9010  234.7350  153.0680 C.3   285  SER285      0.2103
    220  OG        35.5380  235.1550  154.3700 O.3   285  SER285     -0.2182
    221  N         38.0160  233.8890  150.7920 N.am  286  GLN286     -0.1979
    222  CA        38.3930  233.1440  149.5860 C.3   286  GLN286      0.1601
    223  C         39.5600  232.2140  149.8600 C.2   286  GLN286      0.2287
    224  O         39.5820  231.0930  149.3660 O.2   286  GLN286     -0.2864
    225  CB        38.7530  234.0760  148.4260 C.3   286  GLN286      0.0394
    226  CG        37.5550  234.6430  147.6790 C.3   286  GLN286      0.0908
    227  CD        36.5680  233.5660  147.2610 C.2   286  GLN286      0.2608
    228  OE1       36.9460  232.5560  146.6600 O.2   286  GLN286     -0.2717
    229  NE2       35.2930  233.7790  147.5790 N.am  286  GLN286     -0.0878
    230  N         38.2000  229.3200  151.7220 N.3   289  PHE289     -0.1241
    231  CA        37.3860  228.5470  150.7740 C.3   289  PHE289      0.1605
    232  C         38.2690  227.5700  149.9840 C.2   289  PHE289      0.2264
    233  O         37.9540  226.3840  149.8100 O.2   289  PHE289     -0.2867
    234  CB        36.6530  229.5310  149.8520 C.3   289  PHE289      0.0534
    235  CG        35.6940  228.8940  148.8830 C.ar  289  PHE289     -0.0203
    236  CD1       34.9140  227.8120  149.2530 C.ar  289  PHE289     -0.0042
    237  CD2       35.5480  229.4170  147.6070 C.ar  289  PHE289     -0.0042
    238  CE1       34.0190  227.2520  148.3510 C.ar  289  PHE289     -0.0003
    239  CE2       34.6600  228.8700  146.7100 C.ar  289  PHE289     -0.0003
    240  CZ        33.8940  227.7830  147.0840 C.ar  289  PHE289     -0.0000
@<TRIPOS>BOND
     1   133   135   ar
     2   133   131   ar
     3   135   134   ar
     4   130   131   ar
     5   130   128   ar
     6   131   129   ar
     7   134   132   ar
     8   128   127   ar
     9   110   111    1
    10   129   132   ar
    11   129   127   ar
    12   127   126    1
    13   102   100   am
    14   111   114    1
    15   111   112    1
    16    79    80    1
    17    98    97    2
    18     4     3    2
    19   122   123    1
    20    15    16    2
    21    15    14    1
    22   114   115    1
    23    96    95    1
    24    96    97    1
    25    96    99    1
    26   112   113    2
    27   126   123    1
    28    80    83    1
    29    80    81    1
    30    97   103   am
    31   100    99    1
    32   100   101    2
    33   123   124    1
    34     3     2    1
    35     3    13   am
    36    14    13    1
    37    14    17    1
    38   105   106    2
    39   105   104    1
    40    85    84   ar
    41    83    84    1
    42    81    82    2
    43    81    87   am
    44    23    24    1
    45     2     1    1
    46     2     5    1
    47   115   117   ar
    48   115   116   ar
    49    12    11    1
    50   103   104    1
    51   103   109    1
    52    87    88    1
    53    10    11   ar
    54    10     8   ar
    55    11     9   ar
    56    89    90    2
    57    89    88    1
    58    84    86   ar
    59   104   107    1
    60     8     6   ar
    61   124   136   am
    62   124   125    2
    63   117   119   ar
    64     9     7   ar
    65    17    18    1
    66   116   118   ar
    67     6     7   ar
    68     6     5    1
    69    26    25    2
    70    27    24    1
    71    27    28    1
    72   136   137    1
    73    88    91    1
    74    24    25    1
    75   109   108    1
    76    20    18   ar
    77    20    22   ar
    78    18    19   ar
    79   119   120   ar
    80   107   108    1
    81   118   120   ar
    82    91    92    1
    83    28    30   ar
    84    28    29   ar
    85   137   138    1
    86   137   140    1
    87   166   165   ar
    88    22    21   ar
    89    30    32   ar
    90   120   121    1
    91   143   144    1
    92   138   139    2
    93   141   140    1
    94    19    21   ar
    95   140   142    1
    96    66    65    2
    97    92    94    1
    98    92    93    1
    99    29    31   ar
   100   165   167   ar
   101   165   164    1
   102   144   147    1
   103   144   145    1
   104    32    31   ar
   105   147   149    1
   106   147   148    1
   107    65    64    1
   108   150   148    1
   109   163   164    1
   110   163   160    1
   111   159   160    1
   112   145   151   am
   113   145   146    2
   114   228   227    2
   115   239   240   ar
   116   239   237   ar
   117    64    67    1
   118    64    63    1
   119    70    68    1
   120   151   152    1
   121    67    68    1
   122   160   161    1
   123   240   238   ar
   124   227   229   am
   125   227   226    1
   126    68    69    1
   127   237   235   ar
   128   226   225    1
   129   153   152    1
   130   153   154    2
   131   152   155    1
   132    33    34    1
   133   155   156    1
   134   161   168   am
   135   161   162    2
   136   238   236   ar
   137   225   222    1
   138   156   157    1
   139    77    76    1
   140    77    78    1
   141   168   169    1
   142   235   236   ar
   143   235   234    1
   144    36    35    2
   145    76    75    1
   146    71    72    1
   147   224   223    2
   148   176   174   ar
   149   176   178   ar
   150    34    35    1
   151    34    37    1
   152   222   223    1
   153   222   221    1
   154   174   173   ar
   155    72    75    1
   156    72    73    1
   157    35    40   am
   158   157   158    1
   159   233   232    2
   160   234   231    1
   161    39    37    1
   162   178   177   ar
   163   232   231    1
   164    52    51    2
   165   169   172    1
   166   169   170    1
   167    53    51   am
   168    37    38    1
   169   173   172    1
   170   173   175   ar
   171    51    50    1
   172   231   230    1
   173   221   217   am
   174   177   175   ar
   175    40    41    1
   176    73    74    2
   177   170   171    2
   178    41    42    1
   179    41    44    1
   180   179   180    1
   181    46    42   am
   182    46    47    1
   183    42    43    2
   184   217   218    2
   185   217   216    1
   186   186   185    2
   187    50    47    1
   188   183   180    1
   189   183   184    1
   190    47    48    1
   191    44    45    1
   192   180   181    1
   193   219   216    1
   194   219   220    1
   195   216   215    1
   196   185   184    1
   197   185   187   am
   198   204   203    2
   199    48    49    2
   200    48    54   am
   201   181   182    2
   202   207   208    1
   203   207   206    1
   204   214   213    1
   205    54    55    1
   206   205   206    1
   207   205   202    1
   208   203   209   am
   209   203   202    1
   210   210   213    1
   211   210   211    1
   212   210   209    1
   213   212   211    2
   214   202   201    1
   215    55    56    1
   216    55    58    1
   217   197   196    2
   218    56    57    2
   219    58    59    1
   220   201   196   am
   221   196   195    1
   222   192   193    1
   223   192   189    1
   224   191   190    2
   225    59    60    1
   226   190   189    1
   227   190   194   am
   228   195   198    1
   229   195   194    1
   230    61    60    2
   231   198   199    1
   232   189   188    1
   233    60    62   am
   234   194   200    1
   235   200   199    1
