@<TRIPOS>MOLECULE
tmp/6f8uB00.pdb
 176 172 0 0 0
SMALL
GASTEIGER

@<TRIPOS>ATOM
      1  N         -7.8140  201.3170  152.1400 N.3    70  TYR70      -0.1227
      2  CA        -6.9040  201.0140  153.2540 C.3    70  TYR70       0.1736
      3  C         -6.2260  202.2630  153.8230 C.2    70  TYR70       0.2595
      4  O         -6.2900  202.5070  155.0300 O.2    70  TYR70      -0.2718
      5  CB        -5.8390  199.9930  152.8370 C.3    70  TYR70       0.0548
      6  CG        -4.8650  199.6280  153.9530 C.ar   70  TYR70      -0.0200
      7  CD1       -3.7200  200.3980  154.1970 C.ar   70  TYR70      -0.0009
      8  CD2       -5.0960  198.5140  154.7680 C.ar   70  TYR70      -0.0009
      9  CE1       -2.8350  200.0640  155.2320 C.ar   70  TYR70       0.0417
     10  CE2       -4.2280  198.1710  155.7970 C.ar   70  TYR70       0.0417
     11  CZ        -3.0980  198.9420  156.0270 C.ar   70  TYR70       0.1957
     12  OH        -2.2370  198.5900  157.0550 O.3    70  TYR70      -0.2866
     13  N         -5.5700  203.0460  152.9670 N.am   71  HIS71      -0.1975
     14  CA        -4.8140  204.2030  153.4430 C.3    71  HIS71       0.1656
     15  C         -5.7040  205.4070  153.7570 C.2    71  HIS71       0.2291
     16  O         -5.6380  206.4420  153.0930 O.2    71  HIS71      -0.2864
     17  CB        -3.7150  204.5740  152.4330 C.3    71  HIS71       0.0771
     18  CG        -2.5550  203.6270  152.4640 C.ar   71  HIS71       0.0820
     19  ND1       -2.3890  202.6200  151.5360 N.ar   71  HIS71      -0.2267
     20  CD2       -1.5430  203.4870  153.3570 C.ar   71  HIS71       0.1154
     21  CE1       -1.3060  201.9200  151.8360 C.ar   71  HIS71       0.1986
     22  NE2       -0.7750  202.4260  152.9370 N.ar   71  HIS71      -0.2212
     23  N          0.6450  203.2500  144.8600 N.3   119  SER119     -0.1217
     24  CA         2.0110  203.1900  145.3740 C.3   119  SER119      0.1889
     25  C          2.9440  204.2540  144.8070 C.2   119  SER119      0.2288
     26  O          2.6730  204.8640  143.7730 O.2   119  SER119     -0.2866
     27  CB         2.6230  201.8260  145.0730 C.3   119  SER119      0.2089
     28  OG         2.8250  201.6680  143.6830 O.3   119  SER119     -0.2183
     29  N          8.5970  201.9040  152.3450 N.3   184  MET184     -0.1245
     30  CA         8.9630  200.4860  152.3050 C.3   184  MET184      0.1570
     31  C         10.2810  200.2330  151.5800 C.2   184  MET184      0.2261
     32  O         10.9210  199.2190  151.8210 O.2   184  MET184     -0.2867
     33  CB         7.8570  199.6420  151.6550 C.3   184  MET184      0.0387
     34  CG         6.6970  199.2860  152.5990 C.3   184  MET184      0.0595
     35  SD         7.1910  198.3860  154.0960 S.3   184  MET184     -0.1393
     36  CE         8.0750  196.9680  153.4110 C.3   184  MET184      0.0692
     37  N          2.9920  200.4700  161.7170 N.3   229  ASP229     -0.1225
     38  CA         2.4760  200.5620  160.3430 C.3   229  ASP229      0.1805
     39  C          2.2780  199.1690  159.7290 C.2   229  ASP229      0.2597
     40  O          1.3890  198.9620  158.8900 O.2   229  ASP229     -0.2718
     41  CB         3.4450  201.3860  159.4770 C.3   229  ASP229      0.1424
     42  CG         2.8030  201.9210  158.1890 C.2   229  ASP229      0.3668
     43  OD1        1.5640  202.0220  158.0980 O.co2 229  ASP229     -0.2456
     44  OD2        3.5570  202.2640  157.2540 O.co2 229  ASP229     -0.2456
     45  N          3.1290  198.2330  160.1430 N.am  230  LEU230     -0.1979
     46  CA         3.0860  196.8490  159.6760 C.3   230  LEU230      0.1596
     47  C          2.5510  195.9250  160.7740 C.2   230  LEU230      0.2287
     48  O          3.0260  194.8010  160.9490 O.2   230  LEU230     -0.2864
     49  CB         4.4910  196.3970  159.2340 C.3   230  LEU230      0.0297
     50  CG         5.0180  197.0880  157.9670 C.3   230  LEU230      0.0022
     51  CD1        6.4480  196.6630  157.6370 C.3   230  LEU230      0.0001
     52  CD2        4.0920  196.7930  156.8030 C.3   230  LEU230      0.0001
     53  N         -0.8130  194.9740  161.2380 N.3   232  ASN232     -0.1226
     54  CA        -2.1120  194.3320  161.0120 C.3   232  ASN232      0.1770
     55  C         -2.0510  192.8210  161.2550 C.2   232  ASN232      0.2439
     56  O         -2.9140  192.2700  161.9300 O.2   232  ASN232     -0.2733
     57  CB        -2.6490  194.5730  159.5870 C.3   232  ASN232      0.1168
     58  CG        -2.8580  196.0500  159.2620 C.2   232  ASN232      0.2627
     59  OD1       -2.8460  196.4360  158.0920 O.2   232  ASN232     -0.2716
     60  ND2       -3.0390  196.8750  160.2870 N.am  232  ASN232     -0.0877
     61  N         -1.0230  192.1490  160.7100 N.am  233  PRO233     -0.2729
     62  CA        -1.0030  190.6880  160.8480 C.3   233  PRO233      0.1401
     63  C         -0.7320  190.2200  162.2750 C.2   233  PRO233      0.2269
     64  O         -0.8010  189.0200  162.5350 O.2   233  PRO233     -0.2865
     65  CB         0.1290  190.2620  159.9040 C.3   233  PRO233      0.0296
     66  CG         0.1750  191.3740  158.8580 C.3   233  PRO233      0.0237
     67  CD        -0.0290  192.6160  159.7240 C.3   233  PRO233      0.0939
     68  N         -7.4890  191.6690  161.6980 N.3   240  TYR240     -0.1241
     69  CA        -6.5870  191.3720  160.5940 C.3   240  TYR240      0.1605
     70  C         -7.3340  191.1200  159.2850 C.2   240  TYR240      0.2264
     71  O         -6.9970  191.7120  158.2450 O.2   240  TYR240     -0.2867
     72  CB        -5.7240  190.1750  160.9590 C.3   240  TYR240      0.0534
     73  CG        -4.6690  189.7870  159.9480 C.ar  240  TYR240     -0.0201
     74  CD1       -4.2380  190.6690  158.9550 C.ar  240  TYR240     -0.0009
     75  CD2       -4.1000  188.5280  159.9940 C.ar  240  TYR240     -0.0009
     76  CE1       -3.2610  190.2870  158.0400 C.ar  240  TYR240      0.0417
     77  CE2       -3.1340  188.1360  159.0900 C.ar  240  TYR240      0.0417
     78  CZ        -2.7200  189.0080  158.1130 C.ar  240  TYR240      0.1957
     79  OH        -1.7500  188.5740  157.2270 O.3   240  TYR240     -0.2866
     80  N         -8.4970  194.3740  157.7530 N.3   243  TRP243     -0.1227
     81  CA        -7.3990  195.1200  157.1370 C.3   243  TRP243      0.1737
     82  C         -7.0030  194.4960  155.8000 C.2   243  TRP243      0.2596
     83  O         -6.6850  195.1970  154.8450 O.2   243  TRP243     -0.2718
     84  CB        -6.1930  195.1710  158.0770 C.3   243  TRP243      0.0564
     85  CG        -6.4090  196.0540  159.2510 C.ar  243  TRP243      0.0003
     86  CD1       -6.3650  195.6970  160.5680 C.ar  243  TRP243      0.0946
     87  CD2       -6.6840  197.4560  159.2250 C.ar  243  TRP243      0.0152
     88  NE1       -6.6020  196.7980  161.3670 N.ar  243  TRP243     -0.2442
     89  CE2       -6.8030  197.8880  160.5660 C.ar  243  TRP243      0.0810
     90  CE3       -6.8460  198.3930  158.1970 C.ar  243  TRP243      0.0012
     91  CZ2       -7.0850  199.2100  160.9060 C.ar  243  TRP243      0.0191
     92  CZ3       -7.1220  199.7060  158.5340 C.ar  243  TRP243      0.0001
     93  CH2       -7.2430  200.1030  159.8800 C.ar  243  TRP243      0.0015
     94  N         -7.0360  193.1700  155.7360 N.am  244  THR244     -0.1953
     95  CA        -6.6570  192.4610  154.5240 C.3   244  THR244      0.1897
     96  C         -7.6490  192.7270  153.3910 C.2   244  THR244      0.2313
     97  O         -7.2510  192.8850  152.2430 O.2   244  THR244     -0.2863
     98  CB        -6.5620  190.9450  154.7690 C.3   244  THR244      0.1794
     99  OG1       -5.4460  190.6700  155.6230 O.3   244  THR244     -0.2208
    100  CG2       -6.3610  190.2080  153.4590 C.3   244  THR244      0.0378
    101  N         -6.8340  196.3900  152.0340 N.3   247  ILE247     -0.1231
    102  CA        -5.6010  196.5430  151.2580 C.3   247  ILE247      0.1692
    103  C         -5.7480  195.9090  149.8750 C.2   247  ILE247      0.2591
    104  O         -5.2200  196.4230  148.8860 O.2   247  ILE247     -0.2718
    105  CB        -4.3740  195.9270  151.9690 C.3   247  ILE247      0.0266
    106  CG1       -3.0790  196.4460  151.3250 C.3   247  ILE247      0.0019
    107  CG2       -4.4370  194.3990  151.9490 C.3   247  ILE247      0.0020
    108  CD1       -2.8530  197.9340  151.5290 C.3   247  ILE247      0.0001
    109  N         -6.4710  194.7990  149.7900 N.am  248  MET248     -0.1979
    110  CA        -6.6060  194.1200  148.5060 C.3   248  MET248      0.1605
    111  C         -7.5640  194.8870  147.5910 C.2   248  MET248      0.2287
    112  O         -7.3720  194.9050  146.3780 O.2   248  MET248     -0.2864
    113  CB        -7.0710  192.6720  148.6870 C.3   248  MET248      0.0413
    114  CG        -6.0570  191.7480  149.3730 C.3   248  MET248      0.0598
    115  SD        -4.3930  191.6150  148.6500 S.3   248  MET248     -0.1393
    116  CE        -4.7290  191.1790  146.9540 C.3   248  MET248      0.0692
    117  N         -5.4140  197.7450  146.3510 N.3   251  PHE251     -0.1241
    118  CA        -4.4790  197.2240  145.3570 C.3   251  PHE251      0.1605
    119  C         -5.1730  196.9120  144.0340 C.2   251  PHE251      0.2264
    120  O         -4.6740  197.2650  142.9620 O.2   251  PHE251     -0.2867
    121  CB        -3.7770  195.9640  145.8680 C.3   251  PHE251      0.0534
    122  CG        -2.6230  196.2380  146.7930 C.ar  251  PHE251     -0.0203
    123  CD1       -2.4000  197.5100  147.2980 C.ar  251  PHE251     -0.0042
    124  CD2       -1.7420  195.2300  147.1290 C.ar  251  PHE251     -0.0042
    125  CE1       -1.3190  197.7650  148.1420 C.ar  251  PHE251     -0.0003
    126  CE2       -0.6570  195.4740  147.9660 C.ar  251  PHE251     -0.0003
    127  CZ        -0.4470  196.7440  148.4760 C.ar  251  PHE251     -0.0000
    128  N          2.3770  193.5190  141.2980 N.3   267  PRO267     -0.2102
    129  CA         2.1840  192.3420  142.1540 C.3   267  PRO267      0.1504
    130  C          1.0510  192.5100  143.1650 C.2   267  PRO267      0.2575
    131  O          1.0060  193.4990  143.8990 O.2   267  PRO267     -0.2718
    132  CB         3.5250  192.2100  142.8710 C.3   267  PRO267      0.0282
    133  CG         4.5060  192.8130  141.9180 C.3   267  PRO267      0.0208
    134  CD         3.7800  193.9640  141.2840 C.3   267  PRO267      0.0893
    135  N          0.1490  191.5330  143.1790 N.am  268  MET268     -0.1980
    136  CA        -1.0070  191.5030  144.0680 C.3   268  MET268      0.1605
    137  C         -2.0150  192.5830  143.7600 C.2   268  MET268      0.2287
    138  O         -2.8920  192.8650  144.5760 O.2   268  MET268     -0.2864
    139  CB        -0.5690  191.6280  145.5180 C.3   268  MET268      0.0413
    140  CG         0.3060  190.4950  145.9590 C.3   268  MET268      0.0598
    141  SD         1.6920  191.0960  146.9000 S.3   268  MET268     -0.1393
    142  CE         2.7500  189.6450  146.8420 C.3   268  MET268      0.0692
    143  N         -0.7540  185.6140  149.3620 N.3   279  SER279     -0.1202
    144  CA        -0.1650  186.9400  149.4770 C.3   279  SER279      0.2020
    145  C          0.1340  187.2830  150.9350 C.2   279  SER279      0.2618
    146  O          1.2340  187.7220  151.2610 O.2   279  SER279     -0.2717
    147  CB        -1.0850  187.9870  148.8510 C.3   279  SER279      0.2103
    148  OG        -1.1950  187.7790  147.4570 O.3   279  SER279     -0.2182
    149  N         -0.8350  187.0670  151.8200 N.am  280  GLN280     -0.1979
    150  CA        -0.6070  187.3300  153.2450 C.3   280  GLN280      0.1601
    151  C          0.5100  186.4650  153.8580 C.2   280  GLN280      0.2287
    152  O          1.3120  186.9440  154.6680 O.2   280  GLN280     -0.2864
    153  CB        -1.8990  187.1430  154.0360 C.3   280  GLN280      0.0394
    154  CG        -2.8890  188.2700  153.7900 C.3   280  GLN280      0.0908
    155  CD        -2.2490  189.6360  153.9870 C.2   280  GLN280      0.2608
    156  OE1       -1.6000  189.8900  155.0020 O.2   280  GLN280     -0.2717
    157  NE2       -2.4320  190.5240  153.0160 N.am  280  GLN280     -0.0878
    158  N          3.7180  187.9660  152.6090 N.3   283  PHE283     -0.1241
    159  CA         3.8590  189.2260  153.3340 C.3   283  PHE283      0.1605
    160  C          4.4470  188.9950  154.7170 C.2   283  PHE283      0.2264
    161  O          5.4090  189.6440  155.1110 O.2   283  PHE283     -0.2867
    162  CB         2.4870  189.9110  153.4390 C.3   283  PHE283      0.0534
    163  CG         2.5090  191.2820  154.0800 C.ar  283  PHE283     -0.0203
    164  CD1        3.5140  192.1990  153.7880 C.ar  283  PHE283     -0.0042
    165  CD2        1.4910  191.6650  154.9460 C.ar  283  PHE283     -0.0042
    166  CE1        3.5070  193.4710  154.3650 C.ar  283  PHE283     -0.0003
    167  CE2        1.4800  192.9280  155.5240 C.ar  283  PHE283     -0.0003
    168  CZ         2.4910  193.8330  155.2270 C.ar  283  PHE283     -0.0000
    169  N          8.3260  189.9340  155.1850 N.3   287  ILE287     -0.1245
    170  CA         8.3920  191.3240  155.6630 C.3   287  ILE287      0.1561
    171  C          8.0270  191.4580  157.1400 C.2   287  ILE287      0.2260
    172  O          8.8360  191.9190  157.9520 O.2   287  ILE287     -0.2867
    173  CB         7.4720  192.2520  154.8030 C.3   287  ILE287      0.0252
    174  CG1        8.0480  192.4030  153.3930 C.3   287  ILE287      0.0019
    175  CG2        7.3390  193.6350  155.4210 C.3   287  ILE287      0.0019
    176  CD1        7.0050  192.5670  152.3590 C.3   287  ILE287      0.0001
@<TRIPOS>BOND
     1   134   128    1
     2   134   133    1
     3   128   129    1
     4   133   132    1
     5   129   132    1
     6   129   130    1
     7   120   119    2
     8   130   135   am
     9   130   131    2
    10   135   136    1
    11    28    27    1
    12   137   136    1
    13   137   138    2
    14    26    25    2
    15   119   118    1
    16   136   139    1
    17    25    24    1
    18    23    24    1
    19    27    24    1
    20   118   121    1
    21   118   117    1
    22   139   140    1
    23   121   122    1
    24   140   141    1
    25   112   111    2
    26   122   124   ar
    27   122   123   ar
    28   142   141    1
    29   116   115    1
    30   124   126   ar
    31   123   125   ar
    32   148   147    1
    33   111   110    1
    34   126   127   ar
    35   125   127   ar
    36   110   113    1
    37   110   109    1
    38   115   114    1
    39   113   114    1
    40   147   144    1
    41   104   103    2
    42   143   144    1
    43   144   145    1
    44   109   103   am
    45   103   102    1
    46   145   146    2
    47   145   149   am
    48   102   105    1
    49   102   101    1
    50   106   108    1
    51   106   105    1
    52    19    21   ar
    53    19    18   ar
    54    31    32    2
    55    31    30    1
    56    33    30    1
    57    33    34    1
    58   149   150    1
    59    21    22   ar
    60   107   105    1
    61     1     2    1
    62    97    96    2
    63    30    29    1
    64   176   174    1
    65    17    18    1
    66    17    14    1
    67    18    20   ar
    68    34    35    1
    69   158   159    1
    70     5     2    1
    71     5     6    1
    72    22    20   ar
    73    13    14    1
    74    13     3   am
    75   157   155   am
    76    16    15    2
    77   150   151    1
    78   150   153    1
    79     2     3    1
    80   159   162    1
    81   159   160    1
    82    96    95    1
    83   174   173    1
    84    36    35    1
    85   162   163    1
    86    14    15    1
    87   100    98    1
    88   164   163   ar
    89   164   166   ar
    90   154   155    1
    91   154   153    1
    92     3     4    2
    93   151   152    2
    94     6     7   ar
    95     6     8   ar
    96   155   156    2
    97   163   165   ar
    98     7     9   ar
    99   166   168   ar
   100    95    98    1
   101    95    94    1
   102   160   161    2
   103     8    10   ar
   104    98    99    1
   105   173   175    1
   106   173   170    1
   107    83    82    2
   108   165   167   ar
   109   169   170    1
   110   168   167   ar
   111     9    11   ar
   112   170   171    1
   113    94    82   am
   114    10    11   ar
   115    82    81    1
   116    11    12    1
   117    52    50    1
   118    81    80    1
   119    81    84    1
   120   171   172    2
   121    79    78    1
   122    44    42   ar
   123    51    50    1
   124    50    49    1
   125    76    78   ar
   126    76    74   ar
   127    84    85    1
   128    59    58    2
   129    43    42   ar
   130    78    77   ar
   131    42    41    1
   132    90    92   ar
   133    90    87   ar
   134    71    70    2
   135    92    93   ar
   136    66    67    1
   137    66    65    1
   138    40    39    2
   139    74    73   ar
   140    77    75   ar
   141    87    85   ar
   142    87    89   ar
   143    49    46    1
   144    85    86   ar
   145    58    57    1
   146    58    60   am
   147    70    69    1
   148    41    38    1
   149    57    54    1
   150    46    45    1
   151    46    47    1
   152    67    61    1
   153    39    45   am
   154    39    38    1
   155    93    91   ar
   156    65    62    1
   157    73    75   ar
   158    73    72    1
   159    38    37    1
   160    89    91   ar
   161    89    88   ar
   162    86    88   ar
   163    69    72    1
   164    69    68    1
   165    61    62    1
   166    61    55   am
   167    47    48    2
   168    62    63    1
   169    54    53    1
   170    54    55    1
   171    55    56    2
   172    63    64    2
