@<TRIPOS>MOLECULE
tmp/6f8vB00.pdb
 214 205 0 0 0
SMALL
GASTEIGER

@<TRIPOS>ATOM
      1  N         -7.8380  200.5670  152.8100 N.3    70  TYR70      -0.1227
      2  CA        -6.9010  200.2680  153.8870 C.3    70  TYR70       0.1736
      3  C         -6.2720  201.5330  154.4530 C.2    70  TYR70       0.2595
      4  O         -6.3600  201.8030  155.6580 O.2    70  TYR70      -0.2718
      5  CB        -5.7960  199.3300  153.4070 C.3    70  TYR70       0.0548
      6  CG        -4.8460  198.9320  154.5200 C.ar   70  TYR70      -0.0200
      7  CD1       -5.1140  197.8210  155.3210 C.ar   70  TYR70      -0.0009
      8  CD2       -3.6980  199.6790  154.7900 C.ar   70  TYR70      -0.0009
      9  CE1       -4.2490  197.4510  156.3530 C.ar   70  TYR70       0.0417
     10  CE2       -2.8300  199.3270  155.8160 C.ar   70  TYR70       0.0417
     11  CZ        -3.1150  198.2110  156.5960 C.ar   70  TYR70       0.1957
     12  OH        -2.2740  197.8480  157.6160 O.3    70  TYR70      -0.2866
     13  N         -5.6440  202.3180  153.5810 N.am   71  HIS71      -0.1975
     14  CA        -4.8920  203.4710  154.0560 C.3    71  HIS71       0.1656
     15  C         -5.7880  204.6510  154.3700 C.2    71  HIS71       0.2291
     16  O         -5.7250  205.6880  153.7210 O.2    71  HIS71      -0.2864
     17  CB        -3.8280  203.8540  153.0420 C.3    71  HIS71       0.0771
     18  CG        -2.6550  202.9430  153.0750 C.ar   71  HIS71       0.0820
     19  ND1       -2.4290  201.9800  152.1150 N.ar   71  HIS71      -0.2267
     20  CD2       -1.6760  202.8000  153.9990 C.ar   71  HIS71       0.1154
     21  CE1       -1.3390  201.3030  152.4320 C.ar   71  HIS71       0.1986
     22  NE2       -0.8690  201.7780  153.5730 N.ar   71  HIS71      -0.2212
     23  N          0.3480  208.2510  157.3170 N.3   112  ASP112     -0.1239
     24  CA        -0.2250  207.9160  156.0130 C.3   112  ASP112      0.1674
     25  C         -1.2620  208.9280  155.5360 C.2   112  ASP112      0.2266
     26  O         -2.1350  208.5790  154.7350 O.2   112  ASP112     -0.2867
     27  CB        -0.9100  206.5400  156.0310 C.3   112  ASP112      0.1410
     28  CG         0.0500  205.3850  155.7970 C.2   112  ASP112      0.3668
     29  OD1        1.1110  205.5760  155.1680 O.co2 112  ASP112     -0.2456
     30  OD2       -0.2830  204.2730  156.2430 O.co2 112  ASP112     -0.2456
     31  N         -3.2780  209.5630  151.8320 N.3   115  HIS115     -0.1241
     32  CA        -2.8380  208.4270  151.0360 C.3   115  HIS115      0.1621
     33  C         -3.8260  208.1890  149.8970 C.2   115  HIS115      0.2264
     34  O         -5.0370  208.1120  150.1190 O.2   115  HIS115     -0.2867
     35  CB        -2.7060  207.1810  151.9180 C.3   115  HIS115      0.0745
     36  CG        -1.8700  206.0950  151.3120 C.ar  115  HIS115      0.0817
     37  ND1       -2.2450  205.3980  150.1810 N.ar  115  HIS115     -0.2268
     38  CD2       -0.6850  205.5670  151.7050 C.ar  115  HIS115      0.1154
     39  CE1       -1.3190  204.5020  149.8940 C.ar  115  HIS115      0.1986
     40  NE2       -0.3600  204.5860  150.8010 N.ar  115  HIS115     -0.2212
     41  N          0.6020  202.4610  145.4830 N.3   119  SER119     -0.1202
     42  CA         1.9670  202.3980  146.0130 C.3   119  SER119      0.2020
     43  C          2.9060  203.4570  145.4400 C.2   119  SER119      0.2618
     44  O          2.6150  204.0710  144.4130 O.2   119  SER119     -0.2717
     45  CB         2.5680  201.0150  145.7470 C.3   119  SER119      0.2103
     46  OG         2.8040  200.8250  144.3740 O.3   119  SER119     -0.2182
     47  N          4.0340  203.6570  146.1180 N.am  120  ASN120     -0.1974
     48  CA         5.1130  204.4820  145.6070 C.3   120  ASN120      0.1688
     49  C          5.4740  204.0640  144.1940 C.2   120  ASN120      0.2292
     50  O          5.6150  204.9040  143.3110 O.2   120  ASN120     -0.2864
     51  CB         6.3550  204.3860  146.5020 C.3   120  ASN120      0.1181
     52  CG         6.2480  205.2370  147.7470 C.2   120  ASN120      0.2629
     53  OD1        5.3930  206.1170  147.8400 O.2   120  ASN120     -0.2716
     54  ND2        7.1250  204.9890  148.7060 N.am  120  ASN120     -0.0877
     55  N          5.7690  208.9390  151.6150 N.3   141  GLU141     -0.1245
     56  CA         6.1760  209.2170  152.9920 C.3   141  GLU141      0.1567
     57  C          6.5980  210.6790  153.1740 C.2   141  GLU141      0.2260
     58  O          6.2560  211.3270  154.1680 O.2   141  GLU141     -0.2867
     59  CB         7.3100  208.2580  153.4120 C.3   141  GLU141      0.0388
     60  CG         6.9000  206.7540  153.5150 C.3   141  GLU141      0.1160
     61  CD         6.7590  206.0500  152.1590 C.2   141  GLU141      0.3649
     62  OE1        7.3030  206.5470  151.1520 O.co2 141  GLU141     -0.2457
     63  OE2        6.0980  204.9850  152.0970 O.co2 141  GLU141     -0.2457
     64  N          8.9640  204.4990  157.5290 N.3   182  THR182     -0.1218
     65  CA         7.8270  203.6560  157.1150 C.3   182  THR182      0.1862
     66  C          7.8340  203.3560  155.6160 C.2   182  THR182      0.2287
     67  O          6.9330  202.7030  155.1000 O.2   182  THR182     -0.2866
     68  CB         6.4540  204.2820  157.4660 C.3   182  THR182      0.1770
     69  OG1        6.2100  205.4440  156.6500 O.3   182  THR182     -0.2211
     70  CG2        6.3660  204.6100  158.9570 C.3   182  THR182      0.0375
     71  N          8.8720  201.1890  152.7870 N.3   184  MET184     -0.1245
     72  CA         9.2670  199.7760  152.7260 C.3   184  MET184      0.1570
     73  C         10.6510  199.5580  152.1140 C.2   184  MET184      0.2261
     74  O         11.2970  198.5400  152.3730 O.2   184  MET184     -0.2867
     75  CB         8.2360  198.9610  151.9530 C.3   184  MET184      0.0387
     76  CG         7.1770  198.3250  152.8360 C.3   184  MET184      0.0595
     77  SD         7.8490  197.3500  154.2170 S.3   184  MET184     -0.1393
     78  CE         8.5930  195.9770  153.3500 C.3   184  MET184      0.0692
     79  N          7.3670  201.3470  162.7610 N.3   226  HIS226     -0.1241
     80  CA         7.3880  200.3700  161.6610 C.3   226  HIS226      0.1621
     81  C          6.6880  199.0440  162.0650 C.2   226  HIS226      0.2264
     82  O          5.8720  198.5120  161.3030 O.2   226  HIS226     -0.2867
     83  CB         8.8490  200.1340  161.2260 C.3   226  HIS226      0.0745
     84  CG         9.0140  199.2710  160.0120 C.ar  226  HIS226      0.0817
     85  ND1        8.2730  199.4400  158.8620 N.ar  226  HIS226     -0.2268
     86  CD2        9.8600  198.2400  159.7670 C.ar  226  HIS226      0.1154
     87  CE1        8.6520  198.5490  157.9630 C.ar  226  HIS226      0.1986
     88  NE2        9.6170  197.8120  158.4860 N.ar  226  HIS226     -0.2212
     89  N          3.0620  199.7580  162.2230 N.3   229  ASP229     -0.1225
     90  CA         2.5580  199.8370  160.8610 C.3   229  ASP229      0.1805
     91  C          2.3310  198.4330  160.3210 C.2   229  ASP229      0.2597
     92  O          1.4130  198.1890  159.5360 O.2   229  ASP229     -0.2718
     93  CB         3.5380  200.5990  159.9670 C.3   229  ASP229      0.1424
     94  CG         2.8880  201.1520  158.7210 C.2   229  ASP229      0.3668
     95  OD1        1.6440  201.3070  158.6900 O.co2 229  ASP229     -0.2456
     96  OD2        3.6330  201.4440  157.7620 O.co2 229  ASP229     -0.2456
     97  N          3.1740  197.5090  160.7660 N.am  230  LEU230     -0.1979
     98  CA         3.1480  196.1340  160.2960 C.3   230  LEU230      0.1596
     99  C          2.5110  195.1850  161.3190 C.2   230  LEU230      0.2287
    100  O          2.9180  194.0370  161.4400 O.2   230  LEU230     -0.2864
    101  CB         4.5770  195.6750  159.9770 C.3   230  LEU230      0.0297
    102  CG         5.2230  196.3270  158.7480 C.3   230  LEU230      0.0022
    103  CD1        6.6850  195.8730  158.5360 C.3   230  LEU230      0.0001
    104  CD2        4.3760  196.0150  157.5400 C.3   230  LEU230      0.0001
    105  N         -0.8040  194.2140  161.7990 N.3   232  ASN232     -0.1240
    106  CA        -2.0990  193.5630  161.5810 C.3   232  ASN232      0.1653
    107  C         -2.0540  192.0640  161.8600 C.2   232  ASN232      0.2266
    108  O         -2.9360  191.5340  162.5290 O.2   232  ASN232     -0.2867
    109  CB        -2.6170  193.7410  160.1510 C.3   232  ASN232      0.1155
    110  CG        -2.9150  195.1770  159.7850 C.2   232  ASN232      0.2627
    111  OD1       -2.9320  195.5000  158.6120 O.2   232  ASN232     -0.2716
    112  ND2       -3.1520  196.0370  160.7690 N.am  232  ASN232     -0.0877
    113  N         -7.5250  190.9480  162.2020 N.3   240  TYR240     -0.1241
    114  CA        -6.5700  190.6880  161.1430 C.3   240  TYR240      0.1605
    115  C         -7.2910  190.3740  159.8300 C.2   240  TYR240      0.2264
    116  O         -6.9170  190.8860  158.7600 O.2   240  TYR240     -0.2867
    117  CB        -5.6410  189.5390  161.5660 C.3   240  TYR240      0.0534
    118  CG        -4.6030  189.1090  160.5420 C.ar  240  TYR240     -0.0201
    119  CD1       -4.2210  189.9440  159.4870 C.ar  240  TYR240     -0.0009
    120  CD2       -4.0090  187.8560  160.6310 C.ar  240  TYR240     -0.0009
    121  CE1       -3.2790  189.5290  158.5670 C.ar  240  TYR240      0.0417
    122  CE2       -3.0560  187.4420  159.7280 C.ar  240  TYR240      0.0417
    123  CZ        -2.7020  188.2710  158.6900 C.ar  240  TYR240      0.1957
    124  OH        -1.7650  187.8250  157.7830 O.3   240  TYR240     -0.2866
    125  N         -8.5250  193.6230  158.2180 N.3   243  TRP243     -0.1227
    126  CA        -7.3960  194.3110  157.6130 C.3   243  TRP243      0.1737
    127  C         -6.9890  193.6810  156.2890 C.2   243  TRP243      0.2596
    128  O         -6.6440  194.3820  155.3330 O.2   243  TRP243     -0.2718
    129  CB        -6.2060  194.3220  158.5720 C.3   243  TRP243      0.0564
    130  CG        -6.4240  195.1890  159.7630 C.ar  243  TRP243      0.0003
    131  CD1       -6.3600  194.8020  161.0610 C.ar  243  TRP243      0.0946
    132  CD2       -6.7250  196.5920  159.7760 C.ar  243  TRP243      0.0152
    133  NE1       -6.5950  195.8670  161.8880 N.ar  243  TRP243     -0.2442
    134  CE2       -6.8260  196.9800  161.1280 C.ar  243  TRP243      0.0810
    135  CE3       -6.9190  197.5590  158.7790 C.ar  243  TRP243      0.0012
    136  CZ2       -7.1140  198.2910  161.5180 C.ar  243  TRP243      0.0191
    137  CZ3       -7.2100  198.8600  159.1630 C.ar  243  TRP243      0.0001
    138  CH2       -7.3030  199.2170  160.5250 C.ar  243  TRP243      0.0015
    139  N         -7.0360  192.3570  156.2310 N.am  244  THR244     -0.1953
    140  CA        -6.6890  191.6250  155.0180 C.3   244  THR244      0.1897
    141  C         -7.6960  191.9090  153.9030 C.2   244  THR244      0.2313
    142  O         -7.3010  192.1530  152.7650 O.2   244  THR244     -0.2863
    143  CB        -6.6040  190.1190  155.2990 C.3   244  THR244      0.1794
    144  OG1       -5.4520  189.8630  156.1040 O.3   244  THR244     -0.2208
    145  CG2       -6.5060  189.3060  153.9990 C.3   244  THR244      0.0378
    146  N         -6.8480  195.5580  152.5880 N.3   247  ILE247     -0.1231
    147  CA        -5.6440  195.7500  151.7900 C.3   247  ILE247      0.1692
    148  C         -5.8310  195.0890  150.4310 C.2   247  ILE247      0.2591
    149  O         -5.3540  195.6010  149.4240 O.2   247  ILE247     -0.2718
    150  CB        -4.3700  195.2150  152.4850 C.3   247  ILE247      0.0266
    151  CG1       -3.1240  195.8160  151.8190 C.3   247  ILE247      0.0019
    152  CG2       -4.3180  193.6900  152.4550 C.3   247  ILE247      0.0020
    153  CD1       -3.0210  197.3300  151.9530 C.3   247  ILE247      0.0001
    154  N         -6.5830  193.9940  150.3720 N.am  248  MET248     -0.1979
    155  CA        -6.7720  193.3390  149.0820 C.3   248  MET248      0.1605
    156  C         -7.6980  194.1460  148.1790 C.2   248  MET248      0.2287
    157  O         -7.4730  194.2280  146.9800 O.2   248  MET248     -0.2864
    158  CB        -7.3080  191.9060  149.2410 C.3   248  MET248      0.0413
    159  CG        -6.3480  190.9350  149.9230 C.3   248  MET248      0.0598
    160  SD        -4.6650  190.8880  149.2450 S.3   248  MET248     -0.1393
    161  CE        -4.9500  190.2980  147.5800 C.3   248  MET248      0.0692
    162  N         -5.4370  196.9360  146.9110 N.3   251  PHE251     -0.1241
    163  CA        -4.4950  196.4160  145.9270 C.3   251  PHE251      0.1605
    164  C         -5.1740  196.0510  144.6120 C.2   251  PHE251      0.2264
    165  O         -4.6520  196.3420  143.5410 O.2   251  PHE251     -0.2867
    166  CB        -3.7620  195.1920  146.4770 C.3   251  PHE251      0.0534
    167  CG        -2.5130  195.5300  147.2420 C.ar  251  PHE251     -0.0203
    168  CD1       -2.3890  196.7570  147.8830 C.ar  251  PHE251     -0.0042
    169  CD2       -1.4460  194.6470  147.2760 C.ar  251  PHE251     -0.0042
    170  CE1       -1.2430  197.0840  148.5720 C.ar  251  PHE251     -0.0003
    171  CE2       -0.2880  194.9630  147.9640 C.ar  251  PHE251     -0.0003
    172  CZ        -0.1880  196.1860  148.6190 C.ar  251  PHE251     -0.0000
    173  N          0.2160  190.6340  143.6110 N.3   268  MET268     -0.1245
    174  CA        -0.8950  190.5990  144.5530 C.3   268  MET268      0.1570
    175  C         -1.9650  191.6320  144.2490 C.2   268  MET268      0.2261
    176  O         -2.8760  191.8310  145.0550 O.2   268  MET268     -0.2867
    177  CB        -0.3800  190.7870  145.9870 C.3   268  MET268      0.0387
    178  CG         0.4850  189.6290  146.4930 C.3   268  MET268      0.0595
    179  SD         1.3990  190.1110  147.9760 S.3   268  MET268     -0.1393
    180  CE         2.0230  188.5340  148.5700 C.3   268  MET268      0.0692
    181  N         -0.7430  184.9530  149.9260 N.3   279  SER279     -0.1202
    182  CA        -0.2090  186.3090  150.1010 C.3   279  SER279      0.2020
    183  C          0.0870  186.6560  151.5610 C.2   279  SER279      0.2618
    184  O          1.1650  187.1820  151.8790 O.2   279  SER279     -0.2717
    185  CB        -1.1770  187.3310  149.5160 C.3   279  SER279      0.2103
    186  OG        -1.0800  187.3310  148.1100 O.3   279  SER279     -0.2182
    187  N         -0.8580  186.3710  152.4510 N.am  280  GLN280     -0.1979
    188  CA        -0.6430  186.6610  153.8650 C.3   280  GLN280      0.1601
    189  C          0.4510  185.7960  154.4840 C.2   280  GLN280      0.2287
    190  O          1.2070  186.2650  155.3330 O.2   280  GLN280     -0.2864
    191  CB        -1.9370  186.5030  154.6570 C.3   280  GLN280      0.0394
    192  CG        -2.9280  187.6170  154.4040 C.3   280  GLN280      0.0908
    193  CD        -2.3420  188.9950  154.6560 C.2   280  GLN280      0.2608
    194  OE1       -1.6530  189.2150  155.6550 O.2   280  GLN280     -0.2717
    195  NE2       -2.6200  189.9370  153.7510 N.am  280  GLN280     -0.0878
    196  N          3.6370  187.2760  153.3830 N.3   283  PHE283     -0.1241
    197  CA         3.7550  188.5540  154.0880 C.3   283  PHE283      0.1605
    198  C          4.3190  188.3350  155.4860 C.2   283  PHE283      0.2264
    199  O          5.2700  189.0010  155.9000 O.2   283  PHE283     -0.2867
    200  CB         2.3730  189.2480  154.1320 C.3   283  PHE283      0.0534
    201  CG         2.3350  190.5580  154.8880 C.ar  283  PHE283     -0.0203
    202  CD1        3.3040  191.5360  154.6980 C.ar  283  PHE283     -0.0042
    203  CD2        1.2780  190.8320  155.7470 C.ar  283  PHE283     -0.0042
    204  CE1        3.2450  192.7500  155.3890 C.ar  283  PHE283     -0.0003
    205  CE2        1.2130  192.0440  156.4400 C.ar  283  PHE283     -0.0003
    206  CZ         2.2030  192.9980  156.2550 C.ar  283  PHE283     -0.0000
    207  N          8.3060  189.2640  155.7740 N.3   287  ILE287     -0.1245
    208  CA         8.3340  190.6410  156.2900 C.3   287  ILE287      0.1561
    209  C          7.9510  190.7550  157.7750 C.2   287  ILE287      0.2260
    210  O          8.7420  191.2100  158.5990 O.2   287  ILE287     -0.2867
    211  CB         7.4090  191.5560  155.4580 C.3   287  ILE287      0.0252
    212  CG1        7.9150  191.6630  154.0240 C.3   287  ILE287      0.0019
    213  CG2        7.3300  192.9520  156.0670 C.3   287  ILE287      0.0019
    214  CD1        7.0390  192.5420  153.1520 C.3   287  ILE287      0.0001
@<TRIPOS>BOND
     1    50    49    2
     2   165   164    2
     3   173   174    1
     4    49    48    1
     5   175   174    1
     6   175   176    2
     7    46    45    1
     8    44    43    2
     9   174   177    1
    10   164   163    1
    11    43    42    1
    12    43    47   am
    13    41    42    1
    14    48    47    1
    15    48    51    1
    16    45    42    1
    17   163   166    1
    18   163   162    1
    19   177   178    1
    20   166   167    1
    21   178   179    1
    22    51    52    1
    23   157   156    2
    24   167   169   ar
    25   167   168   ar
    26   169   171   ar
    27   161   160    1
    28    52    53    2
    29    52    54   am
    30   168   170   ar
    31   171   172   ar
    32   179   180    1
    33   186   185    1
    34   156   155    1
    35   170   172   ar
    36   155   158    1
    37   155   154    1
    38   158   159    1
    39   160   159    1
    40   149   148    2
    41   185   182    1
    42    39    37   ar
    43    39    40   ar
    44    33    34    2
    45    33    32    1
    46   181   182    1
    47   182   183    1
    48    37    36   ar
    49   154   148   am
    50   148   147    1
    51    40    38   ar
    52    32    31    1
    53    32    35    1
    54    62    61   ar
    55    36    38   ar
    56    36    35    1
    57   183   184    2
    58   183   187   am
    59    55    56    1
    60   147   150    1
    61   147   146    1
    62   151   153    1
    63   151   150    1
    64    75    72    1
    65    75    76    1
    66    63    61   ar
    67    73    74    2
    68    73    72    1
    69    19    21   ar
    70    19    18   ar
    71    61    60    1
    72    21    22   ar
    73   187   188    1
    74   152   150    1
    75    72    71    1
    76   142   141    2
    77     1     2    1
    78    76    77    1
    79    56    57    1
    80    56    59    1
    81    17    18    1
    82    17    14    1
    83    18    20   ar
    84   214   212    1
    85    57    58    2
    86    78    77    1
    87   196   197    1
    88     5     2    1
    89     5     6    1
    90    59    60    1
    91    22    20   ar
    92    13    14    1
    93    13     3   am
    94    16    15    2
    95   195   193   am
    96   188   189    1
    97   188   191    1
    98     2     3    1
    99   141   140    1
   100   145   143    1
   101   212   211    1
   102    14    15    1
   103   197   200    1
   104   197   198    1
   105   200   201    1
   106   192   193    1
   107   192   191    1
   108     3     4    2
   109   189   190    2
   110     6     8   ar
   111     6     7   ar
   112   193   194    2
   113   202   201   ar
   114   202   204   ar
   115    26    25    2
   116     8    10   ar
   117   201   203   ar
   118   140   143    1
   119   140   139    1
   120    67    66    2
   121    29    28   ar
   122   143   144    1
   123     7     9   ar
   124   128   127    2
   125   204   206   ar
   126   211   213    1
   127   211   208    1
   128   198   199    2
   129    25    24    1
   130    66    65    1
   131   203   205   ar
   132   207   208    1
   133    28    27    1
   134    28    30   ar
   135    10    11   ar
   136    24    27    1
   137    24    23    1
   138   139   127   am
   139   206   205   ar
   140   127   126    1
   141   208   209    1
   142     9    11   ar
   143    11    12    1
   144    69    68    1
   145    65    68    1
   146    65    64    1
   147    68    70    1
   148   104   102    1
   149   126   125    1
   150   126   129    1
   151    96    94   ar
   152   209   210    2
   153   124   123    1
   154    87    88   ar
   155    87    85   ar
   156    88    86   ar
   157   103   102    1
   158   121   123   ar
   159   121   119   ar
   160   129   130    1
   161   111   110    2
   162    95    94   ar
   163   123   122   ar
   164    94    93    1
   165   102   101    1
   166   116   115    2
   167   135   137   ar
   168   135   132   ar
   169    85    84   ar
   170   137   138   ar
   171   119   118   ar
   172    92    91    2
   173   122   120   ar
   174   130   132   ar
   175   130   131   ar
   176    86    84   ar
   177   132   134   ar
   178   110   109    1
   179   110   112   am
   180   115   114    1
   181    93    90    1
   182   101    98    1
   183    84    83    1
   184   109   106    1
   185    98    97    1
   186    98    99    1
   187    91    97   am
   188    91    90    1
   189   138   136   ar
   190   118   120   ar
   191   118   117    1
   192    90    89    1
   193   131   133   ar
   194   134   136   ar
   195   134   133   ar
   196   114   117    1
   197   114   113    1
   198    83    80    1
   199    82    81    2
   200    99   100    2
   201   106   105    1
   202   106   107    1
   203    80    81    1
   204    80    79    1
   205   107   108    2
