@<TRIPOS>MOLECULE
tmp/6f8xA00.pdb
 255 249 0 0 0
SMALL
GASTEIGER

@<TRIPOS>ATOM
      1  N         38.5430  -22.0100  -24.6630 N.3    70  TYR70      -0.1227
      2  CA        37.4170  -21.7000  -25.5390 C.3    70  TYR70       0.1736
      3  C         36.2450  -21.0970  -24.7660 C.2    70  TYR70       0.2595
      4  O         35.7480  -20.0250  -25.1100 O.2    70  TYR70      -0.2718
      5  CB        36.9680  -22.9590  -26.2930 C.3    70  TYR70       0.0548
      6  CG        35.8080  -22.6940  -27.2310 C.ar   70  TYR70      -0.0200
      7  CD1       34.4870  -22.7630  -26.7760 C.ar   70  TYR70      -0.0009
      8  CD2       36.0290  -22.3410  -28.5620 C.ar   70  TYR70      -0.0009
      9  CE1       33.4160  -22.4940  -27.6280 C.ar   70  TYR70       0.0417
     10  CE2       34.9550  -22.0840  -29.4300 C.ar   70  TYR70       0.0417
     11  CZ        33.6590  -22.1570  -28.9620 C.ar   70  TYR70       0.1957
     12  OH        32.6070  -21.8980  -29.8290 O.3    70  TYR70      -0.2866
     13  N         35.7910  -21.7930  -23.7290 N.am   71  HIS71      -0.1975
     14  CA        34.6070  -21.3400  -23.0090 C.3    71  HIS71       0.1656
     15  C         34.9270  -20.2380  -22.0130 C.2    71  HIS71       0.2291
     16  O         34.7800  -20.4010  -20.8090 O.2    71  HIS71      -0.2864
     17  CB        33.9270  -22.5220  -22.3300 C.3    71  HIS71       0.0771
     18  CG        33.2060  -23.4090  -23.2960 C.ar   71  HIS71       0.0820
     19  ND1       33.6710  -24.6540  -23.6590 N.ar   71  HIS71      -0.2267
     20  CD2       32.0850  -23.1980  -24.0270 C.ar   71  HIS71       0.1154
     21  CE1       32.8460  -25.1890  -24.5440 C.ar   71  HIS71       0.1986
     22  NE2       31.8830  -24.3200  -24.7920 N.ar   71  HIS71      -0.2212
     23  N         34.2750  -16.0180  -25.9610 N.3    75  HIS75      -0.1241
     24  CA        33.2050  -16.8200  -26.5380 C.3    75  HIS75       0.1621
     25  C         31.8550  -16.2260  -26.1570 C.2    75  HIS75       0.2264
     26  O         30.9620  -16.1480  -26.9950 O.2    75  HIS75      -0.2867
     27  CB        33.2840  -18.2830  -26.0800 C.3    75  HIS75       0.0745
     28  CG        32.0410  -19.0750  -26.3710 C.ar   75  HIS75       0.0817
     29  ND1       31.6110  -19.3490  -27.6530 N.ar   75  HIS75      -0.2268
     30  CD2       31.1360  -19.6490  -25.5430 C.ar   75  HIS75       0.1154
     31  CE1       30.4950  -20.0570  -27.6030 C.ar   75  HIS75       0.1986
     32  NE2       30.1860  -20.2560  -26.3340 N.ar   75  HIS75      -0.2212
     33  N         32.1370  -21.6740  -16.7850 N.3   115  HIS115     -0.1241
     34  CA        32.4400  -22.9370  -17.4420 C.3   115  HIS115      0.1621
     35  C         33.8090  -23.4380  -16.9900 C.2   115  HIS115      0.2264
     36  O         34.7800  -22.6830  -17.0050 O.2   115  HIS115     -0.2867
     37  CB        32.4100  -22.7630  -18.9670 C.3   115  HIS115      0.0745
     38  CG        32.1820  -24.0370  -19.7190 C.ar  115  HIS115      0.0817
     39  ND1       33.1080  -25.0580  -19.7590 N.ar  115  HIS115     -0.2268
     40  CD2       31.1310  -24.4500  -20.4740 C.ar  115  HIS115      0.1154
     41  CE1       32.6430  -26.0440  -20.5080 C.ar  115  HIS115      0.1986
     42  NE2       31.4400  -25.7050  -20.9450 N.ar  115  HIS115     -0.2212
     43  N         35.3810  -28.4220  -19.0950 N.3   118  VAL118     -0.1231
     44  CA        35.1290  -29.8370  -19.3380 C.3   118  VAL118      0.1692
     45  C         33.6410  -30.0340  -19.5970 C.2   118  VAL118      0.2593
     46  O         32.8340  -29.1800  -19.2500 O.2   118  VAL118     -0.2718
     47  CB        35.5840  -30.7390  -18.1550 C.3   118  VAL118      0.0266
     48  CG1       37.1170  -30.7320  -18.0200 C.3   118  VAL118      0.0020
     49  CG2       34.9100  -30.3100  -16.8340 C.3   118  VAL118      0.0020
     50  N         33.2990  -31.1660  -20.2000 N.am  119  SER119     -0.1938
     51  CA        31.9510  -31.4600  -20.6790 C.3   119  SER119      0.2055
     52  C         31.0010  -31.8990  -19.5650 C.2   119  SER119      0.2643
     53  O         31.4410  -32.2830  -18.4850 O.2   119  SER119     -0.2714
     54  CB        32.0180  -32.5600  -21.7420 C.3   119  SER119      0.2130
     55  OG        32.3830  -33.8050  -21.1510 O.3   119  SER119     -0.2179
     56  N         29.6970  -31.8760  -19.8390 N.am  120  ASN120     -0.1957
     57  CA        28.7420  -32.4930  -18.9210 C.3   120  ASN120      0.1819
     58  C         29.1050  -33.9370  -18.6270 C.2   120  ASN120      0.2621
     59  O         29.0840  -34.3590  -17.4760 O.2   120  ASN120     -0.2715
     60  CB        27.3100  -32.4240  -19.4760 C.3   120  ASN120      0.1195
     61  CG        26.7090  -31.0550  -19.3250 C.2   120  ASN120      0.2630
     62  OD1       27.1030  -30.2950  -18.4380 O.2   120  ASN120     -0.2716
     63  ND2       25.7480  -30.7260  -20.1780 N.am  120  ASN120     -0.0877
     64  N         29.4350  -34.7050  -19.6630 N.am  121  GLN121     -0.1977
     65  CA        29.6910  -36.1260  -19.4450 C.3   121  GLN121      0.1601
     66  C         30.9170  -36.3680  -18.5610 C.2   121  GLN121      0.2287
     67  O         30.9510  -37.3220  -17.7810 O.2   121  GLN121     -0.2864
     68  CB        29.8590  -36.8660  -20.7760 C.3   121  GLN121      0.0394
     69  CG        29.7490  -38.3740  -20.5980 C.3   121  GLN121      0.0908
     70  CD        28.3720  -38.7960  -20.0770 C.2   121  GLN121      0.2608
     71  OE1       27.3440  -38.3660  -20.5960 O.2   121  GLN121     -0.2717
     72  NE2       28.3560  -39.6310  -19.0440 N.am  121  GLN121     -0.0878
     73  N         25.9410  -28.3490  -16.7380 N.3   140  LEU140     -0.1231
     74  CA        26.5600  -27.0410  -16.9070 C.3   140  LEU140      0.1693
     75  C         25.5340  -25.9420  -17.1630 C.2   140  LEU140      0.2591
     76  O         25.6370  -24.8560  -16.5930 O.2   140  LEU140     -0.2718
     77  CB        27.5870  -27.0770  -18.0430 C.3   140  LEU140      0.0284
     78  CG        28.8940  -27.7030  -17.5430 C.3   140  LEU140      0.0019
     79  CD1       29.9150  -27.8660  -18.6500 C.3   140  LEU140      0.0001
     80  CD2       29.4810  -26.8930  -16.3750 C.3   140  LEU140      0.0001
     81  N         24.5490  -26.2250  -18.0150 N.am  141  GLU141     -0.1979
     82  CA        23.5940  -25.2020  -18.4250 C.3   141  GLU141      0.1602
     83  C         22.7520  -24.7270  -17.2260 C.2   141  GLU141      0.2287
     84  O         22.4780  -23.5310  -17.0810 O.2   141  GLU141     -0.2864
     85  CB        22.7130  -25.7340  -19.5670 C.3   141  GLU141      0.0415
     86  CG        23.5220  -26.0180  -20.8880 C.3   141  GLU141      0.1163
     87  CD        24.3970  -27.2840  -20.8420 C.2   141  GLU141      0.3649
     88  OE1       24.1570  -28.1950  -20.0010 O.co2 141  GLU141     -0.2457
     89  OE2       25.3450  -27.3710  -21.6650 O.co2 141  GLU141     -0.2457
     90  N         20.8120  -24.5820  -24.9870 N.3   182  THR182     -0.1203
     91  CA        22.1850  -24.6460  -25.5000 C.3   182  THR182      0.1994
     92  C         22.8560  -25.9650  -25.1310 C.2   182  THR182      0.2618
     93  O         23.9670  -26.2220  -25.5590 O.2   182  THR182     -0.2717
     94  CB        23.0940  -23.4770  -24.9880 C.3   182  THR182      0.1784
     95  OG1       23.1390  -23.4720  -23.5480 O.3   182  THR182     -0.2211
     96  CG2       22.5650  -22.1320  -25.4810 C.3   182  THR182      0.0376
     97  N         22.1940  -26.7830  -24.3160 N.am  183  ASP183     -0.1959
     98  CA        22.6600  -28.1460  -24.0280 C.3   183  ASP183      0.1840
     99  C         22.6580  -28.9840  -25.3170 C.2   183  ASP183      0.2621
    100  O         21.6130  -29.1900  -25.9190 O.2   183  ASP183     -0.2715
    101  CB        21.7720  -28.7930  -22.9720 C.3   183  ASP183      0.1450
    102  CG        22.2310  -30.1980  -22.5760 C.2   183  ASP183      0.3671
    103  OD1       23.1460  -30.7620  -23.2120 O.co2 183  ASP183     -0.2456
    104  OD2       21.6420  -30.7490  -21.6200 O.co2 183  ASP183     -0.2456
    105  N         23.8250  -29.4810  -25.7180 N.am  184  MET184     -0.1977
    106  CA        23.9600  -30.1860  -26.9950 C.3   184  MET184      0.1605
    107  C         23.1710  -31.4900  -27.0450 C.2   184  MET184      0.2287
    108  O         22.9050  -32.0090  -28.1200 O.2   184  MET184     -0.2864
    109  CB        25.4440  -30.4650  -27.2950 C.3   184  MET184      0.0413
    110  CG        26.2110  -29.2420  -27.8080 C.3   184  MET184      0.0598
    111  SD        25.4910  -28.5080  -29.3100 S.3   184  MET184     -0.1393
    112  CE        25.6730  -29.8650  -30.4640 C.3   184  MET184      0.0692
    113  N         25.6050  -19.8810  -30.8100 N.3   229  ASP229     -0.1225
    114  CA        26.5520  -20.7080  -30.0550 C.3   229  ASP229      0.1805
    115  C         27.3580  -21.5750  -31.0240 C.2   229  ASP229      0.2597
    116  O         28.5430  -21.8170  -30.8230 O.2   229  ASP229     -0.2718
    117  CB        25.7930  -21.5820  -29.0500 C.3   229  ASP229      0.1424
    118  CG        26.6730  -22.1220  -27.9480 C.2   229  ASP229      0.3668
    119  OD1       27.6920  -21.4770  -27.6150 O.co2 229  ASP229     -0.2456
    120  OD2       26.3260  -23.1850  -27.3910 O.co2 229  ASP229     -0.2456
    121  N         26.7010  -22.0420  -32.0810 N.am  230  LEU230     -0.1979
    122  CA        27.3570  -22.8690  -33.0850 C.3   230  LEU230      0.1596
    123  C         27.6930  -22.0920  -34.3610 C.2   230  LEU230      0.2287
    124  O         27.5920  -22.6270  -35.4630 O.2   230  LEU230     -0.2864
    125  CB        26.4820  -24.0690  -33.4190 C.3   230  LEU230      0.0297
    126  CG        26.2550  -25.0000  -32.2210 C.3   230  LEU230      0.0022
    127  CD1       25.4210  -26.1940  -32.6440 C.3   230  LEU230      0.0001
    128  CD2       27.5960  -25.4320  -31.6270 C.3   230  LEU230      0.0001
    129  N         30.7030  -20.4800  -35.1070 N.3   232  ASN232     -0.1226
    130  CA        32.1360  -20.3700  -35.4280 C.3   232  ASN232      0.1770
    131  C         32.4600  -20.7360  -36.8820 C.2   232  ASN232      0.2439
    132  O         33.1820  -20.0080  -37.5520 O.2   232  ASN232     -0.2733
    133  CB        33.0010  -21.2530  -34.5190 C.3   232  ASN232      0.1168
    134  CG        33.0560  -20.7750  -33.0600 C.2   232  ASN232      0.2627
    135  OD1       33.5280  -21.5140  -32.2030 O.2   232  ASN232     -0.2716
    136  ND2       32.5630  -19.5720  -32.7740 N.am  232  ASN232     -0.0877
    137  N         31.9350  -21.8730  -37.3680 N.am  233  PRO233     -0.2729
    138  CA        32.3120  -22.2930  -38.7240 C.3   233  PRO233      0.1401
    139  C         31.6650  -21.4590  -39.8320 C.2   233  PRO233      0.2269
    140  O         32.0390  -21.6210  -40.9990 O.2   233  PRO233     -0.2865
    141  CB        31.8220  -23.7480  -38.7890 C.3   233  PRO233      0.0296
    142  CG        31.6890  -24.1790  -37.3520 C.3   233  PRO233      0.0237
    143  CD        31.2010  -22.9370  -36.6600 C.3   233  PRO233      0.0939
    144  N         37.3260  -18.3420  -37.5750 N.3   240  TYR240     -0.1241
    145  CA        37.0560  -19.7640  -37.4660 C.3   240  TYR240      0.1605
    146  C         38.3280  -20.5410  -37.1300 C.2   240  TYR240      0.2264
    147  O         38.3020  -21.4700  -36.3160 O.2   240  TYR240     -0.2867
    148  CB        36.4390  -20.2820  -38.7720 C.3   240  TYR240      0.0534
    149  CG        36.0160  -21.7340  -38.7570 C.ar  240  TYR240     -0.0201
    150  CD1       35.8010  -22.4250  -37.5530 C.ar  240  TYR240     -0.0009
    151  CD2       35.8250  -22.4230  -39.9480 C.ar  240  TYR240     -0.0009
    152  CE1       35.4100  -23.7590  -37.5570 C.ar  240  TYR240      0.0417
    153  CE2       35.4340  -23.7390  -39.9620 C.ar  240  TYR240      0.0417
    154  CZ        35.2280  -24.4110  -38.7760 C.ar  240  TYR240      0.1957
    155  OH        34.8400  -25.7400  -38.8350 O.3   240  TYR240     -0.2866
    156  N         39.0440  -20.0480  -33.4380 N.3   243  TRP243     -0.1227
    157  CA        38.0880  -20.7870  -32.6120 C.3   243  TRP243      0.1737
    158  C         38.4190  -22.2810  -32.6050 C.2   243  TRP243      0.2596
    159  O         38.2680  -22.9620  -31.5810 O.2   243  TRP243     -0.2718
    160  CB        36.6360  -20.5610  -33.0890 C.3   243  TRP243      0.0564
    161  CG        36.1280  -19.1750  -32.8140 C.ar  243  TRP243      0.0003
    162  CD1       35.6740  -18.2630  -33.7330 C.ar  243  TRP243      0.0946
    163  CD2       36.0480  -18.5300  -31.5360 C.ar  243  TRP243      0.0152
    164  NE1       35.3090  -17.0980  -33.1010 N.ar  243  TRP243     -0.2442
    165  CE2       35.5250  -17.2350  -31.7540 C.ar  243  TRP243      0.0810
    166  CE3       36.3570  -18.9230  -30.2260 C.ar  243  TRP243      0.0012
    167  CZ2       35.3140  -16.3270  -30.7110 C.ar  243  TRP243      0.0191
    168  CZ3       36.1400  -18.0080  -29.1780 C.ar  243  TRP243      0.0001
    169  CH2       35.6320  -16.7310  -29.4330 C.ar  243  TRP243      0.0015
    170  N         38.8840  -22.7960  -33.7370 N.am  244  THR244     -0.1953
    171  CA        39.2100  -24.2120  -33.8330 C.3   244  THR244      0.1897
    172  C         40.4320  -24.5300  -32.9750 C.2   244  THR244      0.2313
    173  O         40.4380  -25.5110  -32.2280 O.2   244  THR244     -0.2863
    174  CB        39.4440  -24.6340  -35.2970 C.3   244  THR244      0.1794
    175  OG1       38.1870  -24.6230  -35.9880 O.3   244  THR244     -0.2208
    176  CG2       40.0280  -26.0450  -35.3690 C.3   244  THR244      0.0378
    177  N         39.1180  -24.4840  -29.2650 N.3   247  ILE247     -0.1231
    178  CA        38.2930  -25.5980  -28.8080 C.3   247  ILE247      0.1692
    179  C         39.1420  -26.8730  -28.6980 C.2   247  ILE247      0.2591
    180  O         38.9620  -27.6700  -27.7690 O.2   247  ILE247     -0.2718
    181  CB        37.0470  -25.8480  -29.7190 C.3   247  ILE247      0.0266
    182  CG1       36.0210  -26.7350  -28.9940 C.3   247  ILE247      0.0019
    183  CG2       37.4360  -26.4440  -31.1020 C.3   247  ILE247      0.0020
    184  CD1       35.3460  -26.0530  -27.8230 C.3   247  ILE247      0.0001
    185  N         40.0850  -27.0640  -29.6150 N.am  248  MET248     -0.1979
    186  CA        40.9620  -28.2370  -29.5150 C.3   248  MET248      0.1605
    187  C         41.8600  -28.1810  -28.2790 C.2   248  MET248      0.2287
    188  O         42.0750  -29.2060  -27.6140 O.2   248  MET248     -0.2864
    189  CB        41.8130  -28.3990  -30.7810 C.3   248  MET248      0.0413
    190  CG        40.9810  -28.7050  -32.0330 C.3   248  MET248      0.0598
    191  SD        39.6980  -29.9820  -31.8680 S.3   248  MET248     -0.1393
    192  CE        40.6760  -31.4520  -31.5350 C.3   248  MET248      0.0692
    193  N         41.1520  -26.7270  -25.4240 N.3   250  GLU250     -0.1231
    194  CA        40.2890  -27.0650  -24.3020 C.3   250  GLU250      0.1699
    195  C         39.9490  -28.5610  -24.2820 C.2   250  GLU250      0.2592
    196  O         40.0100  -29.2020  -23.2320 O.2   250  GLU250     -0.2718
    197  CB        39.0210  -26.2200  -24.3500 C.3   250  GLU250      0.0402
    198  CG        38.0320  -26.5190  -23.2310 C.3   250  GLU250      0.1161
    199  CD        36.9560  -25.4480  -23.1150 C.2   250  GLU250      0.3649
    200  OE1       37.2580  -24.2630  -23.3800 O.co2 250  GLU250     -0.2457
    201  OE2       35.8090  -25.7900  -22.7580 O.co2 250  GLU250     -0.2457
    202  N         39.6010  -29.1220  -25.4300 N.am  251  PHE251     -0.1976
    203  CA        39.2690  -30.5440  -25.4990 C.3   251  PHE251      0.1639
    204  C         40.4630  -31.4020  -25.1000 C.2   251  PHE251      0.2290
    205  O         40.3190  -32.4030  -24.3820 O.2   251  PHE251     -0.2864
    206  CB        38.8060  -30.9360  -26.8980 C.3   251  PHE251      0.0560
    207  CG        37.3440  -30.6400  -27.1700 C.ar  251  PHE251     -0.0200
    208  CD1       36.6120  -29.8160  -26.3250 C.ar  251  PHE251     -0.0042
    209  CD2       36.7110  -31.1900  -28.2720 C.ar  251  PHE251     -0.0042
    210  CE1       35.2630  -29.5460  -26.5800 C.ar  251  PHE251     -0.0003
    211  CE2       35.3730  -30.9240  -28.5290 C.ar  251  PHE251     -0.0003
    212  CZ        34.6500  -30.1020  -27.6710 C.ar  251  PHE251     -0.0000
    213  N         40.9890  -31.6050  -21.4040 N.3   254  GLN254     -0.1245
    214  CA        40.0590  -32.5640  -20.8010 C.3   254  GLN254      0.1566
    215  C         40.5220  -34.0030  -21.0140 C.2   254  GLN254      0.2260
    216  O         40.4740  -34.8290  -20.0940 O.2   254  GLN254     -0.2867
    217  CB        38.6390  -32.4200  -21.3740 C.3   254  GLN254      0.0367
    218  CG        37.6910  -33.5070  -20.8390 C.3   254  GLN254      0.0905
    219  CD        36.2780  -33.3580  -21.3640 C.2   254  GLN254      0.2608
    220  OE1       35.7570  -32.2500  -21.4350 O.2   254  GLN254     -0.2717
    221  NE2       35.6620  -34.4740  -21.7650 N.am  254  GLN254     -0.0878
    222  N         37.5130  -36.8200  -29.7900 N.3   268  MET268     -0.1245
    223  CA        38.2050  -35.5880  -30.1670 C.3   268  MET268      0.1570
    224  C         38.9600  -34.9270  -29.0190 C.2   268  MET268      0.2261
    225  O         39.3680  -33.7640  -29.1300 O.2   268  MET268     -0.2867
    226  CB        37.2050  -34.5960  -30.7610 C.3   268  MET268      0.0387
    227  CG        36.5290  -35.1170  -32.0170 C.3   268  MET268      0.0595
    228  SD        35.0540  -34.1970  -32.4720 S.3   268  MET268     -0.1393
    229  CE        33.9080  -34.6740  -31.1660 C.3   268  MET268      0.0692
    230  N         37.7970  -33.5550  -38.0560 N.3   279  SER279     -0.1202
    231  CA        36.7480  -33.4000  -37.0430 C.3   279  SER279      0.2020
    232  C         35.9070  -32.1450  -37.2760 C.2   279  SER279      0.2618
    233  O         34.7010  -32.1550  -37.0180 O.2   279  SER279     -0.2717
    234  CB        37.3540  -33.3800  -35.6430 C.3   279  SER279      0.2103
    235  OG        37.7530  -34.6840  -35.2580 O.3   279  SER279     -0.2182
    236  N         36.5330  -31.0760  -37.7660 N.am  280  GLN280     -0.1979
    237  CA        35.7940  -29.8730  -38.1600 C.3   280  GLN280      0.1601
    238  C         34.8410  -30.1600  -39.3070 C.2   280  GLN280      0.2287
    239  O         33.7220  -29.6470  -39.3310 O.2   280  GLN280     -0.2864
    240  CB        36.7430  -28.7390  -38.5680 C.3   280  GLN280      0.0394
    241  CG        37.3020  -27.9290  -37.4110 C.3   280  GLN280      0.0908
    242  CD        36.2360  -27.5550  -36.4020 C.2   280  GLN280      0.2608
    243  OE1       35.1720  -27.0290  -36.7580 O.2   280  GLN280     -0.2717
    244  NE2       36.5020  -27.8520  -35.1320 N.am  280  GLN280     -0.0878
    245  N         31.9560  -32.1720  -37.9380 N.3   283  PHE283     -0.1241
    246  CA        31.1790  -31.2290  -37.1260 C.3   283  PHE283      0.1605
    247  C         30.2290  -30.4200  -38.0130 C.2   283  PHE283      0.2264
    248  O         29.0260  -30.2970  -37.7310 O.2   283  PHE283     -0.2867
    249  CB        32.1530  -30.3180  -36.3520 C.3   283  PHE283      0.0534
    250  CG        31.4930  -29.2880  -35.4580 C.ar  283  PHE283     -0.0203
    251  CD1       30.4320  -29.6230  -34.6330 C.ar  283  PHE283     -0.0042
    252  CD2       31.9800  -27.9860  -35.4220 C.ar  283  PHE283     -0.0042
    253  CE1       29.8600  -28.6670  -33.7990 C.ar  283  PHE283     -0.0003
    254  CE2       31.4150  -27.0340  -34.5980 C.ar  283  PHE283     -0.0003
    255  CZ        30.3490  -27.3750  -33.7880 C.ar  283  PHE283     -0.0000
@<TRIPOS>BOND
     1   140   139    2
     2   153   151   ar
     3   153   154   ar
     4   151   149   ar
     5   139   138    1
     6   239   238    2
     7   238   237    1
     8   155   154    1
     9   141   138    1
    10   141   142    1
    11   154   152   ar
    12   148   149    1
    13   148   145    1
    14   149   150   ar
    15   138   137    1
    16   240   237    1
    17   240   241    1
    18   237   236    1
    19   230   231    1
    20   247   248    2
    21   247   246    1
    22   245   246    1
    23   236   232   am
    24   144   145    1
    25   152   150   ar
    26   132   131    2
    27   145   146    1
    28   241   242    1
    29   137   131   am
    30   137   143    1
    31   142   143    1
    32   232   231    1
    33   232   233    2
    34   146   147    2
    35   246   249    1
    36   231   234    1
    37   131   130    1
    38   243   242    2
    39   242   244   am
    40   249   250    1
    41   175   174    1
    42   234   235    1
    43   124   123    2
    44   250   252   ar
    45   250   251   ar
    46   130   129    1
    47   130   133    1
    48   252   254   ar
    49   176   174    1
    50   174   171    1
    51   251   253   ar
    52   254   255   ar
    53   133   134    1
    54   123   122    1
    55   171   170    1
    56   171   172    1
    57   253   255   ar
    58   170   158   am
    59   162   164   ar
    60   162   161   ar
    61   156   157    1
    62   125   122    1
    63   125   126    1
    64   164   165   ar
    65   160   161    1
    66   160   157    1
    67   122   121    1
    68   134   136   am
    69   134   135    2
    70   172   173    2
    71   161   163   ar
    72   127   126    1
    73   157   158    1
    74   158   159    2
    75   228   227    1
    76   228   229    1
    77   126   128    1
    78   121   115   am
    79   190   191    1
    80   190   189    1
    81   227   226    1
    82   191   192    1
    83   165   163   ar
    84   165   167   ar
    85   163   166   ar
    86   183   181    1
    87   115   116    2
    88   115   114    1
    89   113   114    1
    90   189   186    1
    91   226   223    1
    92   167   169   ar
    93   112   111    1
    94   166   168   ar
    95   223   222    1
    96   223   224    1
    97   114   117    1
    98    12    11    1
    99   181   182    1
   100   181   178    1
   101   185   186    1
   102   185   179   am
   103   186   187    1
   104   169   168   ar
   105    10    11   ar
   106    10     8   ar
   107   111   110    1
   108   177   178    1
   109   225   224    2
   110   117   118    1
   111   182   184    1
   112    11     9   ar
   113   178   179    1
   114   179   180    2
   115     8     6   ar
   116   211   209   ar
   117   211   212   ar
   118   187   188    2
   119   209   207   ar
   120   108   107    2
   121   118   119   ar
   122   118   120   ar
   123   110   109    1
   124   212   210   ar
   125    29    31   ar
   126    29    28   ar
   127     9     7   ar
   128    31    32   ar
   129   109   106    1
   130     6     7   ar
   131     6     5    1
   132   207   206    1
   133   207   208   ar
   134   107   106    1
   135   106   105    1
   136    26    25    2
   137   206   203    1
   138   210   208   ar
   139    24    25    1
   140    24    27    1
   141    24    23    1
   142    28    27    1
   143    28    30   ar
   144    32    30   ar
   145     5     2    1
   146   100    99    2
   147   105    99   am
   148    93    92    2
   149     2     3    1
   150     2     1    1
   151    91    92    1
   152    91    94    1
   153    91    90    1
   154   203   202    1
   155   203   204    1
   156    96    94    1
   157   202   195   am
   158   193   194    1
   159    99    98    1
   160    92    97   am
   161     4     3    2
   162   204   205    2
   163    94    95    1
   164    22    21   ar
   165    22    20   ar
   166     3    13   am
   167    21    19   ar
   168   197   194    1
   169   197   198    1
   170    97    98    1
   171   194   195    1
   172   195   196    2
   173    98   101    1
   174    20    18   ar
   175    13    14    1
   176    19    18   ar
   177   200   199   ar
   178    18    17    1
   179   198   199    1
   180   103   102   ar
   181   199   201   ar
   182    14    17    1
   183    14    15    1
   184   101   102    1
   185   102   104   ar
   186    15    16    2
   187   221   219   am
   188    54    55    1
   189    54    51    1
   190    89    87   ar
   191   220   219    2
   192   213   214    1
   193   217   218    1
   194   217   214    1
   195   219   218    1
   196   215   214    1
   197   215   216    2
   198    42    41   ar
   199    42    40   ar
   200    86    87    1
   201    86    85    1
   202    87    88   ar
   203    68    69    1
   204    68    65    1
   205    51    50    1
   206    51    52    1
   207    69    70    1
   208    71    70    2
   209    41    39   ar
   210    40    38   ar
   211    50    45   am
   212    63    61   am
   213    70    72   am
   214    56    52   am
   215    56    57    1
   216    39    38   ar
   217    38    37    1
   218    64    65    1
   219    64    58   am
   220    45    44    1
   221    45    46    2
   222    85    82    1
   223    52    53    2
   224    60    61    1
   225    60    57    1
   226    65    66    1
   227    44    43    1
   228    44    47    1
   229    61    62    2
   230    37    34    1
   231    57    58    1
   232    79    78    1
   233    58    59    2
   234    66    67    2
   235    82    81    1
   236    82    83    1
   237    47    48    1
   238    47    49    1
   239    77    78    1
   240    77    74    1
   241    81    75   am
   242    78    80    1
   243    34    35    1
   244    34    33    1
   245    83    84    2
   246    75    74    1
   247    75    76    2
   248    36    35    2
   249    74    73    1
