@<TRIPOS>MOLECULE
tmp/6f90A00.pdb
 154 149 0 0 0
SMALL
GASTEIGER

@<TRIPOS>ATOM
      1  N         23.8750  120.8840   -3.1210 N.3    72  THR72      -0.1203
      2  CA        22.8930  121.4760   -4.0190 C.3    72  THR72       0.1994
      3  C         22.8590  122.9820   -3.8200 C.2    72  THR72       0.2618
      4  O         23.3030  123.4940   -2.8010 O.2    72  THR72      -0.2717
      5  CB        21.5010  120.8610   -3.7860 C.3    72  THR72       0.1784
      6  OG1       21.1160  121.0320   -2.4210 O.3    72  THR72      -0.2211
      7  CG2       21.5230  119.3680   -4.0930 C.3    72  THR72       0.0376
      8  N         22.3600  123.7000   -4.8130 N.am   73  GLY73      -0.1942
      9  CA        22.1650  125.1620   -4.6920 C.3    73  GLY73       0.2014
     10  C         20.7670  125.5910   -4.2370 C.2    73  GLY73       0.2638
     11  O         20.4720  126.7830   -4.2080 O.2    73  GLY73      -0.2714
     12  N         19.9040  124.6220   -3.9110 N.am   74  ALA74      -0.1977
     13  CA        18.5960  124.8810   -3.3090 C.3    74  ALA74       0.1597
     14  C         18.4040  123.9000   -2.1730 C.2    74  ALA74       0.2287
     15  O         18.9100  122.7760   -2.2420 O.2    74  ALA74      -0.2864
     16  CB        17.4860  124.7170   -4.3320 C.3    74  ALA74       0.0319
     17  N         10.5010  122.2600   -2.6950 N.3   179  TRP179     -0.1241
     18  CA        11.1870  122.1010   -3.9700 C.3   179  TRP179      0.1605
     19  C         10.7290  120.8010   -4.6160 C.2   179  TRP179      0.2264
     20  O         10.4260  120.7640   -5.7980 O.2   179  TRP179     -0.2867
     21  CB        12.7060  122.1510   -3.7520 C.3   179  TRP179      0.0550
     22  CG        13.5470  122.2140   -4.9870 C.ar  179  TRP179      0.0003
     23  CD1       13.1810  122.6760   -6.2090 C.ar  179  TRP179      0.0946
     24  CD2       14.9200  121.8340   -5.0930 C.ar  179  TRP179      0.0152
     25  NE1       14.2240  122.5800   -7.0840 N.ar  179  TRP179     -0.2442
     26  CE2       15.3150  122.0780   -6.4230 C.ar  179  TRP179      0.0810
     27  CE3       15.8590  121.3060   -4.1900 C.ar  179  TRP179      0.0012
     28  CZ2       16.6070  121.7950   -6.8840 C.ar  179  TRP179      0.0191
     29  CZ3       17.1330  121.0390   -4.6370 C.ar  179  TRP179      0.0001
     30  CH2       17.4990  121.2810   -5.9760 C.ar  179  TRP179      0.0015
     31  N         20.6040  114.4310   -9.3100 N.3   331  SER331     -0.1217
     32  CA        20.8570  115.8310   -9.7010 C.3   331  SER331      0.1889
     33  C         21.4250  115.8360  -11.1110 C.2   331  SER331      0.2288
     34  O         22.5460  116.2580  -11.3380 O.2   331  SER331     -0.2866
     35  CB        21.8130  116.5060   -8.7070 C.3   331  SER331      0.2089
     36  OG        22.0700  117.8820   -9.0140 O.3   331  SER331     -0.2183
     37  N         21.4260  117.0880  -14.2560 N.3   333  TRP333     -0.1227
     38  CA        22.1260  118.0880  -15.0710 C.3   333  TRP333      0.1737
     39  C         23.6070  118.1400  -14.7210 C.2   333  TRP333      0.2595
     40  O         24.4350  118.4120  -15.5850 O.2   333  TRP333     -0.2718
     41  CB        21.5230  119.4730  -14.8860 C.3   333  TRP333      0.0564
     42  CG        22.0710  120.5260  -15.7830 C.ar  333  TRP333      0.0003
     43  CD1       21.8250  120.6830  -17.1070 C.ar  333  TRP333      0.0946
     44  CD2       22.9340  121.6060  -15.4050 C.ar  333  TRP333      0.0152
     45  NE1       22.4940  121.7970  -17.5830 N.ar  333  TRP333     -0.2442
     46  CE2       23.1710  122.3750  -16.5460 C.ar  333  TRP333      0.0810
     47  CE3       23.5490  121.9750  -14.2100 C.ar  333  TRP333      0.0012
     48  CZ2       23.9790  123.5020  -16.5240 C.ar  333  TRP333      0.0191
     49  CZ3       24.3550  123.0860  -14.1890 C.ar  333  TRP333      0.0001
     50  CH2       24.5570  123.8450  -15.3340 C.ar  333  TRP333      0.0015
     51  N         23.9120  117.8850  -13.4550 N.am  334  ASP334     -0.1974
     52  CA        25.2770  117.7810  -12.9830 C.3   334  ASP334      0.1709
     53  C         25.8540  116.3640  -13.1710 C.2   334  ASP334      0.2293
     54  O         26.9040  116.1890  -13.8010 O.2   334  ASP334     -0.2864
     55  CB        25.3360  118.1560  -11.5170 C.3   334  ASP334      0.1436
     56  CG        24.5510  119.4210  -11.2040 C.2   334  ASP334      0.3671
     57  OD1       24.9130  120.4890  -11.7300 O.co2 334  ASP334     -0.2456
     58  OD2       23.5790  119.3360  -10.4190 O.co2 334  ASP334     -0.2456
     59  N         15.2650  116.2620  -12.8710 N.3   371  TRP371     -0.1241
     60  CA        15.9730  116.4140  -11.6000 C.3   371  TRP371      0.1605
     61  C         15.0560  115.8380  -10.5300 C.2   371  TRP371      0.2264
     62  O         13.9740  116.3850  -10.3020 O.2   371  TRP371     -0.2867
     63  CB        16.2370  117.8950  -11.3190 C.3   371  TRP371      0.0550
     64  CG        17.4270  118.2490  -10.4670 C.ar  371  TRP371      0.0003
     65  CD1       18.5420  118.9020  -10.8930 C.ar  371  TRP371      0.0946
     66  CD2       17.6140  118.0320   -9.0540 C.ar  371  TRP371      0.0152
     67  NE1       19.4110  119.0940   -9.8530 N.ar  371  TRP371     -0.2442
     68  CE2       18.8630  118.5820   -8.7110 C.ar  371  TRP371      0.0810
     69  CE3       16.8510  117.4270   -8.0490 C.ar  371  TRP371      0.0012
     70  CZ2       19.3740  118.5400   -7.4130 C.ar  371  TRP371      0.0191
     71  CZ3       17.3570  117.3880   -6.7580 C.ar  371  TRP371      0.0001
     72  CH2       18.6110  117.9380   -6.4550 C.ar  371  TRP371      0.0015
     73  N         14.3310  120.9340  -12.3070 N.3   380  CYS380     -0.1221
     74  CA        15.4260  121.8840  -12.1340 C.3   380  CYS380      0.1808
     75  C         16.4040  121.7350  -13.3080 C.2   380  CYS380      0.2601
     76  O         16.6580  120.6330  -13.7580 O.2   380  CYS380     -0.2717
     77  CB        16.1390  121.6850  -10.7940 C.3   380  CYS380      0.0970
     78  SG        17.3000  123.0160  -10.3620 S.3   380  CYS380     -0.0800
     79  N         16.8990  122.8640  -13.8090 N.am  381  MET381     -0.1979
     80  CA        17.8750  122.9300  -14.9080 C.3   381  MET381      0.1605
     81  C         17.2550  122.5050  -16.2360 C.2   381  MET381      0.2287
     82  O         16.1050  122.8510  -16.4800 O.2   381  MET381     -0.2864
     83  CB        19.1800  122.1870  -14.5630 C.3   381  MET381      0.0413
     84  CG        19.7280  122.5160  -13.1920 C.3   381  MET381      0.0598
     85  SD        19.9210  124.2740  -12.8700 S.3   381  MET381     -0.1393
     86  CE        20.9480  124.7360  -14.2710 C.3   381  MET381      0.0692
     87  N         18.2840  131.1730  -15.1960 N.3   509  ASN509     -0.1240
     88  CA        17.4890  129.9640  -15.3990 C.3   509  ASN509      0.1653
     89  C         16.1720  130.3410  -16.0930 C.2   509  ASN509      0.2266
     90  O         15.0860  129.9790  -15.6470 O.2   509  ASN509     -0.2867
     91  CB        17.2650  129.2530  -14.0550 C.3   509  ASN509      0.1155
     92  CG        18.5760  128.8660  -13.3690 C.2   509  ASN509      0.2627
     93  OD1       19.1100  127.7800  -13.5880 O.2   509  ASN509     -0.2716
     94  ND2       19.0870  129.7510  -12.5270 N.am  509  ASN509     -0.0877
     95  N         22.9070  129.5410  -16.7440 N.3   516  GLU516     -0.1245
     96  CA        23.9480  129.8080  -15.7430 C.3   516  GLU516      0.1567
     97  C         25.3430  129.8710  -16.3420 C.2   516  GLU516      0.2260
     98  O         26.3060  129.3700  -15.7780 O.2   516  GLU516     -0.2867
     99  CB        23.9070  128.7620  -14.6420 C.3   516  GLU516      0.0388
    100  CG        22.6330  128.7450  -13.8350 C.3   516  GLU516      0.1160
    101  CD        22.6580  127.6770  -12.7710 C.2   516  GLU516      0.3649
    102  OE1       23.7130  127.0160  -12.6060 O.co2 516  GLU516     -0.2457
    103  OE2       21.6180  127.4850  -12.1120 O.co2 516  GLU516     -0.2457
    104  N         26.0930  134.1460  -10.1300 N.3   560  HIS560     -0.1226
    105  CA        26.7930  133.6660   -8.9250 C.3   560  HIS560      0.1752
    106  C         27.0560  132.1370   -8.8880 C.2   560  HIS560      0.2596
    107  O         27.7660  131.6630   -8.0090 O.2   560  HIS560     -0.2718
    108  CB        26.1180  134.2010   -7.6360 C.3   560  HIS560      0.0759
    109  CG        24.8440  133.5030   -7.2410 C.ar  560  HIS560      0.0818
    110  ND1       24.2480  133.7050   -6.0120 N.ar  560  HIS560     -0.2268
    111  CD2       24.0570  132.6110   -7.8930 C.ar  560  HIS560      0.1154
    112  CE1       23.1510  132.9740   -5.9260 C.ar  560  HIS560      0.1986
    113  NE2       23.0150  132.2960   -7.0520 N.ar  560  HIS560     -0.2212
    114  N         26.4890  131.3800   -9.8310 N.am  561  ASN561     -0.1974
    115  CA        26.8630  129.9770  -10.0370 C.3   561  ASN561      0.1688
    116  C         28.2510  129.8230  -10.6650 C.2   561  ASN561      0.2292
    117  O         28.9720  128.8710  -10.3550 O.2   561  ASN561     -0.2864
    118  CB        25.8120  129.2370  -10.8740 C.3   561  ASN561      0.1181
    119  CG        24.5060  129.0280  -10.1180 C.2   561  ASN561      0.2629
    120  OD1       24.4210  128.1870   -9.2200 O.2   561  ASN561     -0.2716
    121  ND2       23.4790  129.7880  -10.4830 N.am  561  ASN561     -0.0877
    122  N         30.9830  125.8360  -11.8720 N.3   573  ASN573     -0.1225
    123  CA        29.7550  125.2940  -12.4110 C.3   573  ASN573      0.1785
    124  C         30.0810  124.3680  -13.5590 C.2   573  ASN573      0.2597
    125  O         31.1370  124.4940  -14.1860 O.2   573  ASN573     -0.2718
    126  CB        28.8260  126.4330  -12.8770 C.3   573  ASN573      0.1169
    127  CG        27.3370  126.0720  -12.7820 C.2   573  ASN573      0.2627
    128  OD1       26.9190  125.2500  -11.9350 O.2   573  ASN573     -0.2716
    129  ND2       26.5260  126.6980  -13.6430 N.am  573  ASN573     -0.0877
    130  N         29.1480  123.4770  -13.8690 N.am  574  GLU574     -0.1979
    131  CA        29.4700  122.2920  -14.6540 C.3   574  GLU574      0.1602
    132  C         29.4260  122.3640  -16.1860 C.2   574  GLU574      0.2287
    133  O         29.8330  121.3930  -16.8390 O.2   574  GLU574     -0.2864
    134  CB        28.7340  121.0180  -14.1400 C.3   574  GLU574      0.0415
    135  CG        27.4400  121.1740  -13.3810 C.3   574  GLU574      0.1163
    136  CD        27.6090  121.5900  -11.9300 C.2   574  GLU574      0.3649
    137  OE1       28.0340  120.7590  -11.1060 O.co2 574  GLU574     -0.2457
    138  OE2       27.2500  122.7500  -11.6220 O.co2 574  GLU574     -0.2457
    139  N         29.3210  124.8810   -5.7220 N.3   614  ASN614     -0.1240
    140  CA        28.4380  123.8280   -5.2310 C.3   614  ASN614      0.1653
    141  C         28.9330  122.4620   -5.7110 C.2   614  ASN614      0.2266
    142  O         29.1770  122.2640   -6.9030 O.2   614  ASN614     -0.2867
    143  CB        26.9950  124.0320   -5.7460 C.3   614  ASN614      0.1155
    144  CG        26.2530  125.2150   -5.0940 C.2   614  ASN614      0.2627
    145  OD1       26.6330  125.7570   -4.0390 O.2   614  ASN614     -0.2716
    146  ND2       25.1700  125.6210   -5.7450 N.am  614  ASN614     -0.0877
    147  N         27.2180  119.7870   -5.9110 N.3   616  ASP616     -0.1239
    148  CA        26.1270  119.2440   -6.7320 C.3   616  ASP616      0.1674
    149  C         26.0400  117.7340   -6.7270 C.2   616  ASP616      0.2266
    150  O         26.2130  117.0890   -7.7550 O.2   616  ASP616     -0.2867
    151  CB        26.1860  119.7920   -8.1720 C.3   616  ASP616      0.1410
    152  CG        25.8920  121.2820   -8.2400 C.2   616  ASP616      0.3668
    153  OD1       24.9830  121.7230   -7.4910 O.co2 616  ASP616     -0.2456
    154  OD2       26.5480  122.0130   -9.0290 O.co2 616  ASP616     -0.2456
@<TRIPOS>BOND
     1    45    43   ar
     2    45    46   ar
     3    43    42   ar
     4   133   132    2
     5    95    96    1
     6    46    48   ar
     7    46    44   ar
     8    48    50   ar
     9    82    81    2
    10    97    98    2
    11    97    96    1
    12    81    80    1
    13   132   131    1
    14    89    90    2
    15    89    88    1
    16    42    44   ar
    17    42    41    1
    18    96    99    1
    19    40    39    2
    20    44    47   ar
    21    88    87    1
    22    88    91    1
    23    50    49   ar
    24    38    41    1
    25    38    39    1
    26    38    37    1
    27    80    83    1
    28    80    79    1
    29    39    51   am
    30   131   134    1
    31   131   130    1
    32    99   100    1
    33    83    84    1
    34    86    85    1
    35    47    49   ar
    36   125   124    2
    37   134   135    1
    38    91    92    1
    39   130   124   am
    40   100   101    1
    41    79    75   am
    42    54    53    2
    43    76    75    2
    44   129   127   am
    45    93    92    2
    46   124   123    1
    47    51    52    1
    48   135   136    1
    49    92    94   am
    50    75    74    1
    51    84    85    1
    52    53    52    1
    53    52    55    1
    54   126   127    1
    55   126   123    1
    56    59    60    1
    57   127   128    2
    58   101   102   ar
    59   101   103   ar
    60   123   122    1
    61    73    74    1
    62    74    77    1
    63   136   138   ar
    64   136   137   ar
    65    57    56   ar
    66    60    63    1
    67    60    61    1
    68    55    56    1
    69    34    33    2
    70    63    64    1
    71    56    58   ar
    72    33    32    1
    73    65    64   ar
    74    65    67   ar
    75   118   119    1
    76   118   115    1
    77    77    78    1
    78   116   117    2
    79   116   115    1
    80    61    62    2
    81   121   119   am
    82    64    66   ar
    83   104   105    1
    84   119   120    2
    85   115   114    1
    86    67    68   ar
    87   114   106   am
    88    32    31    1
    89    32    35    1
    90    66    68   ar
    91    66    69   ar
    92   154   152   ar
    93    36    35    1
    94   105   106    1
    95   105   108    1
    96   106   107    2
    97    68    70   ar
    98   152   151    1
    99   152   153   ar
   100   151   148    1
   101    69    71   ar
   102   111   109   ar
   103   111   113   ar
   104   150   149    2
   105   108   109    1
   106    70    72   ar
   107   109   110   ar
   108    25    26   ar
   109    25    23   ar
   110   113   112   ar
   111   142   141    2
   112    28    26   ar
   113    28    30   ar
   114    71    72   ar
   115   148   149    1
   116   148   147    1
   117    26    24   ar
   118    23    22   ar
   119   110   112   ar
   120    30    29   ar
   121    20    19    2
   122   143   140    1
   123   143   144    1
   124   146   144   am
   125   139   140    1
   126   141   140    1
   127   144   145    2
   128    24    22   ar
   129    24    27   ar
   130    22    21    1
   131     8     9    1
   132     8     3   am
   133     9    10    1
   134    29    27   ar
   135    19    18    1
   136    16    13    1
   137    10    11    2
   138    10    12   am
   139     7     5    1
   140     2     3    1
   141     2     5    1
   142     2     1    1
   143    18    21    1
   144    18    17    1
   145    12    13    1
   146     3     4    2
   147     5     6    1
   148    13    14    1
   149    15    14    2
