@<TRIPOS>MOLECULE
tmp/6f95D00.pdb
 161 154 0 0 0
SMALL
GASTEIGER

@<TRIPOS>ATOM
      1  N        208.9790  184.8490  239.0790 N.3     7  ASP7       -0.1239
      2  CA       207.6010  185.0530  239.5190 C.3     7  ASP7        0.1674
      3  C        206.7330  185.2530  238.2870 C.2     7  ASP7        0.2266
      4  O        206.5150  186.3750  237.8380 O.2     7  ASP7       -0.2867
      5  CB       207.5070  186.2420  240.4660 C.3     7  ASP7        0.1410
      6  CG       206.1050  186.4560  241.0050 C.2     7  ASP7        0.3668
      7  OD1      205.6620  185.6530  241.8490 O.co2   7  ASP7       -0.2456
      8  OD2      205.4470  187.4340  240.5990 O.co2   7  ASP7       -0.2456
      9  N        203.6460  185.9300  236.5270 N.3     9  GLY9       -0.1210
     10  CA       202.3720  186.5310  236.8090 C.3     9  GLY9        0.1956
     11  C        201.4740  186.5430  235.5950 C.2     9  GLY9        0.2612
     12  O        201.6510  185.7740  234.6440 O.2     9  GLY9       -0.2717
     13  N        200.4910  187.4320  235.6240 N.am   10  ASN10      -0.1960
     14  CA       199.5790  187.6080  234.5060 C.3    10  ASN10       0.1819
     15  C        199.8180  188.8980  233.7490 C.2    10  ASN10       0.2621
     16  O        199.7060  188.9180  232.5260 O.2    10  ASN10      -0.2715
     17  CB       198.1370  187.5660  235.0010 C.3    10  ASN10       0.1195
     18  CG       197.7560  186.2120  235.5230 C.2    10  ASN10       0.2630
     19  OD1      198.0620  185.1950  234.9120 O.2    10  ASN10      -0.2716
     20  ND2      197.1080  186.1850  236.6730 N.am   10  ASN10      -0.0877
     21  N        200.1540  189.9790  234.4450 N.am   11  PHE11      -0.1960
     22  CA       200.5200  191.2080  233.7620 C.3    11  PHE11       0.1771
     23  C        201.9570  191.1590  233.2790 C.2    11  PHE11       0.2620
     24  O        202.2670  191.6660  232.2010 O.2    11  PHE11      -0.2715
     25  CB       200.3300  192.4030  234.6870 C.3    11  PHE11       0.0574
     26  CG       200.5910  193.7240  234.0370 C.ar   11  PHE11      -0.0200
     27  CD1      199.6250  194.3300  233.2680 C.ar   11  PHE11      -0.0042
     28  CD2      201.8040  194.3630  234.1990 C.ar   11  PHE11      -0.0042
     29  CE1      199.8610  195.5490  232.6780 C.ar   11  PHE11      -0.0003
     30  CE2      202.0450  195.5740  233.6040 C.ar   11  PHE11      -0.0003
     31  CZ       201.0730  196.1680  232.8430 C.ar   11  PHE11      -0.0000
     32  N        202.8460  190.5780  234.0710 N.am   12  SER12      -0.1950
     33  CA       204.2560  190.5420  233.7360 C.3    12  SER12       0.1924
     34  C        204.8670  189.2940  234.3430 C.2    12  SER12       0.2314
     35  O        204.2220  188.5730  235.1010 O.2    12  SER12      -0.2863
     36  CB       204.9770  191.7890  234.2320 C.3    12  SER12       0.2116
     37  OG       206.3600  191.7000  233.9600 O.3    12  SER12      -0.2180
     38  N        208.3430  188.3190  236.3920 N.3    14  LYS14      -0.1245
     39  CA       209.4850  188.9050  237.0700 C.3    14  LYS14       0.1561
     40  C        210.4990  187.8240  237.3980 C.2    14  LYS14       0.2260
     41  O        210.1460  186.7860  237.9610 O.2    14  LYS14      -0.2867
     42  CB       209.0520  189.6100  238.3530 C.3    14  LYS14       0.0271
     43  CG       208.5830  191.0410  238.1890 C.3    14  LYS14       0.0035
     44  CD       207.1840  191.1410  237.6410 C.3    14  LYS14       0.0206
     45  CE       206.1780  190.6150  238.6230 C.3    14  LYS14       0.1093
     46  NZ       204.8100  190.8230  238.1060 N.3    14  LYS14      -0.1314
     47  N        212.2150  192.1540  234.2050 N.3    27  SER27      -0.1202
     48  CA       210.9480  191.5330  233.8420 C.3    27  SER27       0.2020
     49  C        210.6980  191.7400  232.3560 C.2    27  SER27       0.2619
     50  O        211.5040  192.3420  231.6430 O.2    27  SER27      -0.2717
     51  CB       209.7890  192.1010  234.6570 C.3    27  SER27       0.2103
     52  OG       209.4990  193.4270  234.2640 O.3    27  SER27      -0.2182
     53  N        209.5540  191.2360  231.9040 N.am   28  PHE28      -0.1962
     54  CA       209.0660  191.3850  230.5400 C.3    28  PHE28       0.1756
     55  C        207.5720  191.1070  230.5680 C.2    28  PHE28       0.2461
     56  O        207.1270  190.2940  231.3780 O.2    28  PHE28      -0.2730
     57  CB       209.7900  190.4310  229.5750 C.3    28  PHE28       0.0574
     58  CG       209.6360  188.9750  229.9040 C.ar   28  PHE28      -0.0200
     59  CD1      210.5280  188.3560  230.7580 C.ar   28  PHE28      -0.0042
     60  CD2      208.6390  188.2120  229.3220 C.ar   28  PHE28      -0.0042
     61  CE1      210.4060  187.0250  231.0540 C.ar   28  PHE28      -0.0003
     62  CE2      208.5110  186.8820  229.6190 C.ar   28  PHE28      -0.0003
     63  CZ       209.3990  186.2860  230.4840 C.ar   28  PHE28      -0.0000
     64  N        206.7840  191.7700  229.7230 N.am   29  PRO29      -0.2727
     65  CA       205.3260  191.6430  229.8440 C.3    29  PRO29       0.1402
     66  C        204.8200  190.2740  229.4320 C.2    29  PRO29       0.2269
     67  O        205.3550  189.6280  228.5310 O.2    29  PRO29      -0.2865
     68  CB       204.8010  192.7350  228.9080 C.3    29  PRO29       0.0296
     69  CG       205.8810  192.9520  227.9520 C.3    29  PRO29       0.0237
     70  CD       207.1540  192.7550  228.7030 C.3    29  PRO29       0.0939
     71  N        203.2410  182.3430  246.5360 N.3   150  GLU150     -0.1245
     72  CA       203.1760  183.6590  245.9120 C.3   150  GLU150      0.1567
     73  C        202.7680  184.6590  246.9800 C.2   150  GLU150      0.2260
     74  O        201.5890  184.7960  247.3030 O.2   150  GLU150     -0.2867
     75  CB       202.2100  183.6500  244.7350 C.3   150  GLU150      0.0388
     76  CG       202.2660  184.8920  243.8770 C.3   150  GLU150      0.1160
     77  CD       201.4360  184.7610  242.6140 C.2   150  GLU150      0.3649
     78  OE1      200.7670  183.7200  242.4520 O.co2 150  GLU150     -0.2457
     79  OE2      201.4720  185.6880  241.7760 O.co2 150  GLU150     -0.2457
     80  N        198.4810  190.0850  248.5260 N.3   167  ASP167     -0.1225
     81  CA       199.1150  190.1930  247.2160 C.3   167  ASP167      0.1805
     82  C        198.1060  190.8380  246.2780 C.2   167  ASP167      0.2598
     83  O        197.2430  190.1720  245.7090 O.2   167  ASP167     -0.2718
     84  CB       199.5630  188.8230  246.7260 C.3   167  ASP167      0.1424
     85  CG       200.4860  188.8950  245.5250 C.2   167  ASP167      0.3668
     86  OD1      200.7950  190.0060  245.0560 O.co2 167  ASP167     -0.2456
     87  OD2      200.9090  187.8240  245.0470 O.co2 167  ASP167     -0.2456
     88  N        198.2210  192.1530  246.1110 N.am  168  ALA168     -0.1966
     89  CA       197.3510  192.8970  245.2040 C.3   168  ALA168      0.1728
     90  C        197.8130  192.6250  243.7810 C.2   168  ALA168      0.2617
     91  O        198.5200  193.4170  243.1550 O.2   168  ALA168     -0.2715
     92  CB       197.3720  194.3800  245.5330 C.3   168  ALA168      0.0334
     93  N        197.3940  191.4780  243.2600 N.am  169  GLY169     -0.1940
     94  CA       197.8630  191.0120  241.9730 C.3   169  GLY169      0.2014
     95  C        197.2110  191.6970  240.7940 C.2   169  GLY169      0.2639
     96  O        196.7870  192.8520  240.8750 O.2   169  GLY169     -0.2714
     97  N        197.1300  190.9850  239.6830 N.am  170  SER170     -0.1949
     98  CA       196.5640  191.5270  238.4600 C.3   170  SER170      0.1924
     99  C        195.2990  190.8190  238.0260 C.2   170  SER170      0.2314
    100  O        194.4100  191.4510  237.4610 O.2   170  SER170     -0.2863
    101  CB       197.5960  191.4590  237.3440 C.3   170  SER170      0.2116
    102  OG       197.9570  190.1160  237.1030 O.3   170  SER170     -0.2180
    103  N        194.1790  188.2290  240.4480 N.3   172  THR172     -0.1218
    104  CA       193.7960  187.5210  241.6580 C.3   172  THR172      0.1862
    105  C        194.4590  188.1690  242.8650 C.2   172  THR172      0.2287
    106  O        195.5120  188.8000  242.7530 O.2   172  THR172     -0.2866
    107  CB       194.1610  186.0340  241.5500 C.3   172  THR172      0.1770
    108  OG1      193.6810  185.3300  242.6980 O.3   172  THR172     -0.2211
    109  CG2      195.6580  185.8390  241.4150 C.3   172  THR172      0.0375
    110  N        193.8000  193.8750  239.9260 N.3   195  THR195     -0.1203
    111  CA       193.8160  195.3120  239.7080 C.3   195  THR195      0.1994
    112  C        193.5790  195.7000  238.2580 C.2   195  THR195      0.2617
    113  O        193.3220  196.8780  237.9890 O.2   195  THR195     -0.2717
    114  CB       195.1400  195.8960  240.1780 C.3   195  THR195      0.1784
    115  OG1      196.2140  195.2450  239.4950 O.3   195  THR195     -0.2211
    116  CG2      195.2980  195.6980  241.6650 C.3   195  THR195      0.0376
    117  N        193.6660  194.7560  237.3240 N.am  196  ILE196     -0.1979
    118  CA       193.3320  195.0520  235.9340 C.3   196  ILE196      0.1595
    119  C        191.8320  195.2470  235.7850 C.2   196  ILE196      0.2287
    120  O        191.3660  196.2730  235.2780 O.2   196  ILE196     -0.2864
    121  CB       193.8380  193.9350  235.0080 C.3   196  ILE196      0.0276
    122  CG1      195.3590  193.8860  235.0020 C.3   196  ILE196      0.0022
    123  CG2      193.3260  194.1350  233.6050 C.3   196  ILE196      0.0022
    124  CD1      195.8940  192.6820  234.2950 C.3   196  ILE196      0.0001
    125  N        202.7390  193.1870  245.7640 N.3   224  GLY224     -0.1210
    126  CA       202.2190  193.2750  244.4160 C.3   224  GLY224      0.1956
    127  C        202.5530  194.6060  243.7790 C.2   224  GLY224      0.2612
    128  O        203.1840  195.4820  244.3750 O.2   224  GLY224     -0.2717
    129  N        202.1150  194.7520  242.5300 N.am  225  GLY225     -0.1942
    130  CA       202.4530  195.9440  241.7770 C.3   225  GLY225      0.2014
    131  C        201.7240  197.1830  242.2340 C.2   225  GLY225      0.2638
    132  O        202.2340  198.2950  242.0780 O.2   225  GLY225     -0.2714
    133  N        200.5370  197.0180  242.8040 N.am  226  LYS226     -0.1977
    134  CA       199.7410  198.1320  243.3020 C.3   226  LYS226      0.1596
    135  C        199.7910  198.2140  244.8180 C.2   226  LYS226      0.2287
    136  O        198.7800  198.5030  245.4570 O.2   226  LYS226     -0.2864
    137  CB       198.3030  198.0040  242.8250 C.3   226  LYS226      0.0298
    138  CG       198.1350  198.0910  241.3290 C.3   226  LYS226      0.0038
    139  CD       198.4160  199.4890  240.8330 C.3   226  LYS226      0.0206
    140  CE       198.1040  199.6110  239.3580 C.3   226  LYS226      0.1093
    141  NZ       198.4220  200.9680  238.8420 N.3   226  LYS226     -0.1314
    142  N        206.6450  195.9820  242.2930 N.3   254  TYR254     -0.1241
    143  CA       206.2270  194.7220  241.7000 C.3   254  TYR254      0.1605
    144  C        207.3220  193.6700  241.6830 C.2   254  TYR254      0.2264
    145  O        207.1070  192.5910  241.1270 O.2   254  TYR254     -0.2867
    146  CB       205.6830  194.9420  240.2840 C.3   254  TYR254      0.0534
    147  CG       206.6100  195.6290  239.3110 C.ar  254  TYR254     -0.0201
    148  CD1      206.5810  197.0050  239.1590 C.ar  254  TYR254     -0.0009
    149  CD2      207.4850  194.9030  238.5210 C.ar  254  TYR254     -0.0009
    150  CE1      207.4120  197.6380  238.2660 C.ar  254  TYR254      0.0417
    151  CE2      208.3180  195.5300  237.6250 C.ar  254  TYR254      0.0417
    152  CZ       208.2790  196.8960  237.5060 C.ar  254  TYR254      0.1957
    153  OH       209.1100  197.5250  236.6130 O.3   254  TYR254     -0.2866
    154  N        207.5840  190.2220  245.5460 N.3   257  ASN257     -0.1240
    155  CA       207.3570  188.7840  245.6280 C.3   257  ASN257      0.1653
    156  C        208.5290  187.9770  245.1000 C.2   257  ASN257      0.2266
    157  O        208.6540  186.7970  245.4370 O.2   257  ASN257     -0.2867
    158  CB       206.1120  188.3980  244.8420 C.3   257  ASN257      0.1155
    159  CG       204.8570  188.9480  245.4440 C.2   257  ASN257      0.2627
    160  OD1      204.6890  188.9540  246.6580 O.2   257  ASN257     -0.2716
    161  ND2      203.9560  189.4190  244.5970 N.am  257  ASN257     -0.0877
@<TRIPOS>BOND
     1    69    70    1
     2    69    68    1
     3    67    66    2
     4    70    64    1
     5    68    65    1
     6    60    62   ar
     7    60    58   ar
     8    66    65    1
     9    57    58    1
    10    57    54    1
    11    62    63   ar
    12    64    65    1
    13    64    55   am
    14    58    59   ar
    15    63    61   ar
    16    54    55    1
    17    54    53    1
    18    55    56    2
    19    59    61   ar
    20    50    49    2
    21    53    49   am
    22    24    23    2
    23    49    48    1
    24    16    15    2
    25    29    31   ar
    26    29    27   ar
    27    31    30   ar
    28    27    26   ar
    29    23    22    1
    30    23    32   am
    31    30    28   ar
    32   123   121    1
    33    33    32    1
    34    33    36    1
    35    33    34    1
    36    15    21   am
    37    15    14    1
    38    22    21    1
    39    22    25    1
    40    48    47    1
    41    48    51    1
    42    37    36    1
    43    26    28   ar
    44    26    25    1
    45    52    51    1
    46   124   122    1
    47    34    35    2
    48    14    17    1
    49    14    13    1
    50    12    11    2
    51    19    18    2
    52    17    18    1
    53   122   121    1
    54   121   118    1
    55   120   119    2
    56    18    20   am
    57    11    13   am
    58    11    10    1
    59   119   118    1
    60   118   117    1
    61    38    39    1
    62     9    10    1
    63   153   152    1
    64    39    40    1
    65    39    42    1
    66   102   101    1
    67   117   112   am
    68   101    98    1
    69    40    41    2
    70   100    99    2
    71   152   151   ar
    72   152   150   ar
    73   151   149   ar
    74    44    43    1
    75    44    45    1
    76     4     3    2
    77   113   112    2
    78    99    98    1
    79    46    45    1
    80    43    42    1
    81   112   111    1
    82   150   148   ar
    83     3     2    1
    84    98    97    1
    85   149   147   ar
    86   141   140    1
    87     1     2    1
    88   148   147   ar
    89   147   146    1
    90   140   139    1
    91   115   114    1
    92     2     5    1
    93    97    95   am
    94   111   110    1
    95   111   114    1
    96   114   116    1
    97   146   143    1
    98   103   104    1
    99     5     6    1
   100     8     6   ar
   101    95    96    2
   102    95    94    1
   103   139   138    1
   104     6     7   ar
   105   145   144    2
   106   138   137    1
   107   109   107    1
   108   107   104    1
   109   107   108    1
   110   104   105    1
   111   144   143    1
   112   143   142    1
   113    79    77   ar
   114   130   131    1
   115   130   129    1
   116    94    93    1
   117   132   131    2
   118   131   133   am
   119    78    77   ar
   120   129   127   am
   121    77    76    1
   122   106   105    2
   123   133   134    1
   124   137   134    1
   125    91    90    2
   126    93    90   am
   127   134   135    1
   128   127   128    2
   129   127   126    1
   130    90    89    1
   131    76    75    1
   132   126   125    1
   133   161   159   am
   134    75    72    1
   135   135   136    2
   136   158   159    1
   137   158   155    1
   138    87    85   ar
   139    86    85   ar
   140   156   157    2
   141   156   155    1
   142    89    92    1
   143    89    88    1
   144   159   160    2
   145    85    84    1
   146   154   155    1
   147    83    82    2
   148    72    71    1
   149    72    73    1
   150    88    82   am
   151    82    81    1
   152    84    81    1
   153    73    74    2
   154    81    80    1
