@<TRIPOS>MOLECULE
tmp/6f96A00.pdb
 126 116 0 0 0
SMALL
GASTEIGER

@<TRIPOS>ATOM
      1  N         63.9040   31.0690   52.5440 N.3    29  VAL29      -0.1245
      2  CA        64.4390   31.4840   53.8360 C.3    29  VAL29       0.1561
      3  C         63.5460   32.5220   54.5270 C.2    29  VAL29       0.2260
      4  O         63.2320   32.3800   55.7000 O.2    29  VAL29      -0.2867
      5  CB        65.8730   32.0330   53.7210 C.3    29  VAL29       0.0252
      6  CG1       66.4150   32.3940   55.0990 C.3    29  VAL29       0.0019
      7  CG2       66.7940   31.0060   53.0550 C.3    29  VAL29       0.0019
      8  N         60.1200   31.3190   56.4030 N.3    32  ASN32      -0.1225
      9  CA        60.2990   30.8640   57.7740 C.3    32  ASN32       0.1785
     10  C         60.3480   32.0150   58.7720 C.2    32  ASN32       0.2597
     11  O         59.7250   31.9380   59.8260 O.2    32  ASN32      -0.2718
     12  CB        61.5640   30.0110   57.8930 C.3    32  ASN32       0.1169
     13  CG        61.4160   28.6390   57.2450 C.2    32  ASN32       0.2627
     14  OD1       60.3140   28.1470   57.0520 O.2    32  ASN32      -0.2716
     15  ND2       62.5340   28.0110   56.9360 N.am   32  ASN32      -0.0877
     16  N         61.0650   33.0840   58.4450 N.am   33  ALA33      -0.1979
     17  CA        61.0480   34.2630   59.2990 C.3    33  ALA33       0.1597
     18  C         59.6470   34.8630   59.3700 C.2    33  ALA33       0.2287
     19  O         59.1910   35.2380   60.4390 O.2    33  ALA33      -0.2864
     20  CB        62.0630   35.2960   58.8400 C.3    33  ALA33       0.0319
     21  N         56.8370   33.2340   59.0920 N.3    35  ASP35      -0.1225
     22  CA        56.0900   32.3120   59.9890 C.3    35  ASP35       0.1805
     23  C         56.3210   32.5560   61.4640 C.2    35  ASP35       0.2597
     24  O         55.3870   32.4780   62.2710 O.2    35  ASP35      -0.2718
     25  CB        56.4660   30.8610   59.7260 C.3    35  ASP35       0.1424
     26  CG        55.9060   30.3450   58.4500 C.2    35  ASP35       0.3668
     27  OD1       55.0040   30.9900   57.8700 O.co2  35  ASP35      -0.2456
     28  OD2       56.3720   29.2760   58.0270 O.co2  35  ASP35      -0.2456
     29  N         57.5760   32.8250   61.8050 N.am   36  GLU36      -0.1979
     30  CA        57.9280   33.2590   63.1470 C.3    36  GLU36       0.1602
     31  C         57.2370   34.5990   63.5350 C.2    36  GLU36       0.2287
     32  O         56.8510   34.7830   64.6920 O.2    36  GLU36      -0.2864
     33  CB        59.4570   33.3300   63.2830 C.3    36  GLU36       0.0415
     34  CG        59.9680   33.6180   64.6820 C.3    36  GLU36       0.1163
     35  CD        59.6650   32.5150   65.6740 C.2    36  GLU36       0.3649
     36  OE1       59.1140   31.4580   65.2850 O.co2  36  GLU36      -0.2457
     37  OE2       60.0000   32.6960   66.8640 O.co2  36  GLU36      -0.2457
     38  N         69.4590   36.5250   55.6330 N.3    57  VAL57      -0.1245
     39  CA        68.1690   36.9070   56.1780 C.3    57  VAL57       0.1561
     40  C         68.3350   36.8280   57.6960 C.2    57  VAL57       0.2260
     41  O         68.7600   35.8040   58.2080 O.2    57  VAL57      -0.2867
     42  CB        67.0550   35.9540   55.6780 C.3    57  VAL57       0.0252
     43  CG1       65.6920   36.4030   56.1720 C.3    57  VAL57       0.0019
     44  CG2       67.0550   35.8660   54.1520 C.3    57  VAL57       0.0019
     45  N         66.2120   37.5000   61.3370 N.3    59  ASP59      -0.1239
     46  CA        65.0000   37.8320   62.0920 C.3    59  ASP59       0.1674
     47  C         65.3480   38.1210   63.5580 C.2    59  ASP59       0.2266
     48  O         66.4710   37.8810   64.0000 O.2    59  ASP59      -0.2867
     49  CB        63.8800   36.7780   61.9160 C.3    59  ASP59       0.1410
     50  CG        64.1500   35.4670   62.6340 C.2    59  ASP59       0.3668
     51  OD1       64.4340   35.4750   63.8570 O.co2  59  ASP59      -0.2456
     52  OD2       64.0240   34.4070   61.9780 O.co2  59  ASP59      -0.2456
     53  N         62.4230   34.1700   68.2090 N.3    62  ARG62      -0.1231
     54  CA        62.8860   33.3360   69.2970 C.3    62  ARG62       0.1694
     55  C         64.1630   32.5790   68.9840 C.2    62  ARG62       0.2593
     56  O         64.8270   32.0980   69.9000 O.2    62  ARG62      -0.2718
     57  CB        61.8090   32.3260   69.6570 C.3    62  ARG62       0.0321
     58  CG        60.5850   32.9550   70.2690 C.3    62  ARG62       0.0489
     59  CD        59.4990   31.9150   70.4200 C.3    62  ARG62       0.2205
     60  NE        59.0030   31.4500   69.1290 N.pl3  62  ARG62      -0.0865
     61  CZ        58.0190   30.5670   68.9690 C.cat  62  ARG62       0.5346
     62  NH1       57.4270   30.0340   70.0320 N.pl3  62  ARG62       0.1354
     63  NH2       57.6140   30.2190   67.7410 N.pl3  62  ARG62       0.1354
     64  N         64.4860   32.4530   67.7030 N.am   63  GLY63      -0.1942
     65  CA        65.6390   31.6950   67.2830 C.3    63  GLY63       0.2014
     66  C         65.2680   30.2440   67.0330 C.2    63  GLY63       0.2639
     67  O         64.3920   29.6930   67.6900 O.2    63  GLY63      -0.2714
     68  N         65.9500   29.6310   66.0730 N.am   64  ILE64      -0.1963
     69  CA        65.7310   28.2320   65.7380 C.3    64  ILE64       0.1712
     70  C         66.1360   27.3570   66.9480 C.2    64  ILE64       0.2458
     71  O         67.1270   27.6550   67.6230 O.2    64  ILE64      -0.2730
     72  CB        66.4810   27.8660   64.4130 C.3    64  ILE64       0.0289
     73  CG1       65.6770   28.3890   63.2180 C.3    64  ILE64       0.0022
     74  CG2       66.7360   26.3610   64.2500 C.3    64  ILE64       0.0023
     75  CD1       66.3070   28.1000   61.8830 C.3    64  ILE64       0.0001
     76  N         65.3690   26.2900   67.2310 N.am   65  PRO65      -0.2727
     77  CA        65.7400   25.3880   68.3330 C.3    65  PRO65       0.1402
     78  C         67.1700   24.8420   68.2200 C.2    65  PRO65       0.2269
     79  O         67.5840   24.4480   67.1310 O.2    65  PRO65      -0.2865
     80  CB        64.7160   24.2420   68.2120 C.3    65  PRO65       0.0296
     81  CG        64.1490   24.3460   66.8310 C.3    65  PRO65       0.0237
     82  CD        64.1660   25.8110   66.5170 C.3    65  PRO65       0.0939
     83  N         66.4160   20.5070   60.9810 N.3    80  ILE80      -0.1245
     84  CA        65.6800   21.5030   60.1960 C.3    80  ILE80       0.1561
     85  C         66.3510   21.7610   58.8400 C.2    80  ILE80       0.2260
     86  O         65.6900   21.7640   57.7960 O.2    80  ILE80      -0.2867
     87  CB        65.5180   22.8030   61.0190 C.3    80  ILE80       0.0252
     88  CG1       64.3900   22.6060   62.0370 C.3    80  ILE80       0.0019
     89  CG2       65.2550   24.0220   60.1260 C.3    80  ILE80       0.0019
     90  CD1       64.3940   23.6040   63.1800 C.3    80  ILE80       0.0001
     91  N         60.7360   24.5590   51.3680 N.3    87  GLY87      -0.1210
     92  CA        61.5330   24.4290   52.6030 C.3    87  GLY87       0.1956
     93  C         63.0040   24.8280   52.5060 C.2    87  GLY87       0.2611
     94  O         63.6000   24.7960   51.4290 O.2    87  GLY87      -0.2717
     95  N         63.5890   25.1910   53.6470 N.am   88  VAL88      -0.1979
     96  CA        64.9820   25.6830   53.7170 C.3    88  VAL88       0.1595
     97  C         66.0800   24.6200   53.4860 C.2    88  VAL88       0.2287
     98  O         67.1940   24.9640   53.1100 O.2    88  VAL88      -0.2864
     99  CB        65.2620   26.4380   55.0540 C.3    88  VAL88       0.0276
    100  CG1       65.4090   25.4750   56.2390 C.3    88  VAL88       0.0022
    101  CG2       66.4950   27.3240   54.9320 C.3    88  VAL88       0.0022
    102  N         69.8730   32.7340   71.1080 N.3   104  ARG104     -0.1245
    103  CA        68.8440   32.0630   71.8690 C.3   104  ARG104      0.1563
    104  C         69.3140   31.7060   73.2720 C.2   104  ARG104      0.2260
    105  O         70.4270   31.2130   73.4530 O.2   104  ARG104     -0.2867
    106  CB        68.4340   30.8060   71.1210 C.3   104  ARG104      0.0307
    107  CG        67.1250   30.2620   71.5730 C.3   104  ARG104      0.0489
    108  CD        66.7130   29.0760   70.7320 C.3   104  ARG104      0.2205
    109  NE        65.9580   28.1780   71.5800 N.pl3 104  ARG104     -0.0865
    110  CZ        64.7120   28.3840   71.9840 C.cat 104  ARG104      0.5346
    111  NH1       64.0150   29.4590   71.5940 N.pl3 104  ARG104      0.1354
    112  NH2       64.1510   27.4900   72.7940 N.pl3 104  ARG104      0.1354
    113  N         67.4010   34.5240   64.3760 N.3   133  THR133     -0.1218
    114  CA        68.0050   33.5660   63.4760 C.3   133  THR133      0.1862
    115  C         68.5120   34.2920   62.2530 C.2   133  THR133      0.2287
    116  O         67.8340   35.1740   61.7230 O.2   133  THR133     -0.2866
    117  CB        66.9670   32.5450   63.0340 C.3   133  THR133      0.1770
    118  OG1       66.4710   31.8680   64.1860 O.3   133  THR133     -0.2211
    119  CG2       67.5570   31.5510   62.0870 C.3   133  THR133      0.0375
    120  N         70.3520   33.3770   58.4880 N.3   135  VAL135     -0.1245
    121  CA        70.8210   32.4300   57.4740 C.3   135  VAL135      0.1561
    122  C         71.4690   33.2260   56.3480 C.2   135  VAL135      0.2260
    123  O         70.8780   34.1640   55.8240 O.2   135  VAL135     -0.2867
    124  CB        69.6760   31.5650   56.9030 C.3   135  VAL135      0.0252
    125  CG1       70.1740   30.6750   55.7650 C.3   135  VAL135      0.0019
    126  CG2       69.0290   30.7390   58.0170 C.3   135  VAL135      0.0019
@<TRIPOS>BOND
     1    91    92    1
     2    94    93    2
     3    93    92    1
     4    93    95   am
     5     1     2    1
     6     7     5    1
     7    98    97    2
     8    97    96    1
     9    95    96    1
    10    96    99    1
    11     5     2    1
    12     5     6    1
    13     2     3    1
    14    44    42    1
    15     3     4    2
    16   101    99    1
    17    99   100    1
    18    38    39    1
    19    42    43    1
    20    42    39    1
    21   125   124    1
    22   123   122    2
    23    39    40    1
    24   122   121    1
    25     8     9    1
    26   124   121    1
    27   124   126    1
    28    15    13   am
    29    14    13    2
    30    13    12    1
    31   121   120    1
    32    40    41    2
    33     9    12    1
    34     9    10    1
    35    86    85    2
    36    27    26   ar
    37    28    26   ar
    38    16    10   am
    39    16    17    1
    40    26    25    1
    41    10    11    2
    42    85    84    1
    43    20    17    1
    44    21    22    1
    45    17    18    1
    46    18    19    2
    47    25    22    1
    48    22    23    1
    49    89    87    1
    50    84    83    1
    51    84    87    1
    52    87    88    1
    53    45    46    1
    54    23    29   am
    55    23    24    2
    56   116   115    2
    57    29    30    1
    58    75    73    1
    59    49    46    1
    60    49    50    1
    61    52    50   ar
    62    88    90    1
    63   119   117    1
    64    46    47    1
    65   115   114    1
    66    50    51   ar
    67   117   114    1
    68   117   118    1
    69    30    33    1
    70    30    31    1
    71    73    72    1
    72    33    34    1
    73   114   113    1
    74    31    32    2
    75    47    48    2
    76    74    72    1
    77    72    69    1
    78    34    35    1
    79    36    35   ar
    80    35    37   ar
    81    69    68    1
    82    69    70    1
    83    68    66   am
    84    82    81    1
    85    82    76    1
    86    81    80    1
    87    70    76   am
    88    70    71    2
    89    66    65    1
    90    66    67    2
    91    79    78    2
    92    76    77    1
    93    65    64    1
    94    64    55   am
    95    63    61    1
    96    53    54    1
    97    80    77    1
    98    78    77    1
    99    61    60    2
   100    61    62    1
   101    55    54    1
   102    55    56    2
   103    60    59    1
   104    54    57    1
   105    57    58    1
   106    58    59    1
   107   108   107    1
   108   108   109    1
   109   102   103    1
   110   106   107    1
   111   106   103    1
   112   109   110    2
   113   111   110    1
   114   103   104    1
   115   110   112    1
   116   104   105    2
