@<TRIPOS>MOLECULE
tmp/6f9hA01.pdb
 127 119 0 0 0
SMALL
GASTEIGER

@<TRIPOS>ATOM
      1  N         12.7400   14.4880   22.6900 N.3    11  MET11      -0.1245
      2  CA        12.3080   15.6300   21.9050 C.3    11  MET11       0.1570
      3  C         11.2280   16.3780   22.6610 C.2    11  MET11       0.2261
      4  O         10.2710   15.7700   23.1150 O.2    11  MET11      -0.2867
      5  CB        11.7050   15.1910   20.5820 C.3    11  MET11       0.0387
      6  CG        12.6940   14.6420   19.5920 C.3    11  MET11       0.0595
      7  SD        11.9260   14.4250   17.9860 S.3    11  MET11      -0.1393
      8  CE        13.1480   13.3850   17.2330 C.3    11  MET11       0.0692
      9  N          6.6050   20.2870   19.5180 N.3    14  LEU14      -0.1245
     10  CA         6.8820   21.1400   18.3540 C.3    14  LEU14       0.1561
     11  C          6.6580   22.6360   18.6670 C.2    14  LEU14       0.2260
     12  O          7.4020   23.4750   18.1520 O.2    14  LEU14      -0.2867
     13  CB         6.0630   20.7130   17.1340 C.3    14  LEU14       0.0270
     14  CG         6.5320   19.3970   16.4680 C.3    14  LEU14       0.0019
     15  CD1        5.4730   18.9380   15.5020 C.3    14  LEU14       0.0001
     16  CD2        7.8790   19.5070   15.7640 C.3    14  LEU14       0.0001
     17  N         13.6590   22.0080   18.5650 N.3    47  ASP47      -0.1239
     18  CA        13.7060   22.7880   17.3310 C.3    47  ASP47       0.1674
     19  C         13.8730   24.2490   17.6850 C.2    47  ASP47       0.2266
     20  O         13.1080   24.7910   18.4910 O.2    47  ASP47      -0.2867
     21  CB        12.4300   22.6250   16.5170 C.3    47  ASP47       0.1410
     22  CG        12.3610   21.2950   15.8000 C.2    47  ASP47       0.3668
     23  OD1       13.0880   21.1240   14.8000 O.co2  47  ASP47      -0.2456
     24  OD2       11.5830   20.4310   16.2380 O.co2  47  ASP47      -0.2456
     25  N         13.3610   27.3110   15.7610 N.3    49  TRP49      -0.1241
     26  CA        12.6960   27.6490   14.4960 C.3    49  TRP49       0.1605
     27  C         13.1690   28.9980   13.9040 C.2    49  TRP49       0.2264
     28  O         12.9660   30.0810   14.5270 O.2    49  TRP49      -0.2867
     29  CB        11.1760   27.6700   14.6820 C.3    49  TRP49       0.0550
     30  CG        10.5960   26.3500   15.0330 C.ar   49  TRP49       0.0003
     31  CD1       10.0830   25.9580   16.2430 C.ar   49  TRP49       0.0946
     32  CD2       10.5140   25.2010   14.1650 C.ar   49  TRP49       0.0152
     33  NE1        9.6620   24.6390   16.1710 N.ar   49  TRP49      -0.2442
     34  CE2        9.9220   24.1540   14.9120 C.ar   49  TRP49       0.0810
     35  CE3       10.8750   24.9650   12.8280 C.ar   49  TRP49       0.0012
     36  CZ2        9.6980   22.8760   14.3640 C.ar   49  TRP49       0.0191
     37  CZ3       10.6240   23.6930   12.2740 C.ar   49  TRP49       0.0001
     38  CH2       10.0550   22.6670   13.0530 C.ar   49  TRP49       0.0015
     39  N         18.4430   22.0260   17.5570 N.3    83  ILE83      -0.1245
     40  CA        18.3380   21.8990   16.1070 C.3    83  ILE83       0.1561
     41  C         18.2550   23.2920   15.4920 C.2    83  ILE83       0.2260
     42  O         17.3720   24.0640   15.8630 O.2    83  ILE83      -0.2867
     43  CB        17.0840   21.1090   15.6600 C.3    83  ILE83       0.0252
     44  CG1       16.9760   19.7740   16.4050 C.3    83  ILE83       0.0019
     45  CG2       17.0920   20.8750   14.1610 C.3    83  ILE83       0.0019
     46  CD1       15.6240   19.1020   16.2330 C.3    83  ILE83       0.0001
     47  N         13.6020   25.0910    8.3970 N.3    87  HIS87      -0.1226
     48  CA        12.5150   24.5020    7.6610 C.3    87  HIS87       0.1752
     49  C         11.1810   24.8990    8.2890 C.2    87  HIS87       0.2596
     50  O         11.1200   25.3900    9.4180 O.2    87  HIS87      -0.2718
     51  CB        12.6580   22.9750    7.6040 C.3    87  HIS87       0.0759
     52  CG        12.6800   22.2970    8.9500 C.ar   87  HIS87       0.0818
     53  ND1       13.7930   22.2800    9.7680 N.ar   87  HIS87      -0.2268
     54  CD2       11.7360   21.5690    9.5950 C.ar   87  HIS87       0.1154
     55  CE1       13.5250   21.5910   10.8650 C.ar   87  HIS87       0.1986
     56  NE2       12.2790   21.1650   10.7910 N.ar   87  HIS87      -0.2212
     57  N         10.1240   24.6780    7.5290 N.am   88  GLN88      -0.1965
     58  CA         8.7480   24.8670    8.0090 C.3    88  GLN88       0.1733
     59  C          8.2620   23.6730    8.8410 C.2    88  GLN88       0.2616
     60  O          8.5450   22.5160    8.4870 O.2    88  GLN88      -0.2715
     61  CB         7.8070   25.0330    6.8200 C.3    88  GLN88       0.0408
     62  CG         6.3240   24.7950    7.0900 C.3    88  GLN88       0.0908
     63  CD         5.4770   25.2120    5.9120 C.2    88  GLN88       0.2608
     64  OE1        5.4440   26.3840    5.5470 O.2    88  GLN88      -0.2717
     65  NE2        4.7780   24.2520    5.3090 N.am   88  GLN88      -0.0878
     66  N          7.5580   23.9340    9.9390 N.am   89  CYS89      -0.1968
     67  CA         6.7340   22.9030   10.5740 C.3    89  CYS89       0.1712
     68  C          5.3670   22.9500    9.9130 C.2    89  CYS89       0.2296
     69  O          4.7290   24.0180    9.8440 O.2    89  CYS89      -0.2864
     70  CB         6.5870   23.1120   12.0830 C.3    89  CYS89       0.0983
     71  SG         5.8800   21.6750   12.9410 S.3    89  CYS89      -0.0798
     72  N          4.3780   17.6580    7.1730 N.3    92  ASN92      -0.1225
     73  CA         5.0940   16.4100    7.4260 C.3    92  ASN92       0.1785
     74  C          4.4240   15.6320    8.5690 C.2    92  ASN92       0.2597
     75  O          3.9010   16.2330    9.5060 O.2    92  ASN92      -0.2718
     76  CB         6.5750   16.7150    7.7180 C.3    92  ASN92       0.1169
     77  CG         7.3040   17.2830    6.5030 C.2    92  ASN92       0.2627
     78  OD1        7.1130   16.8230    5.3790 O.2    92  ASN92      -0.2716
     79  ND2        8.1460   18.2630    6.7260 N.am   92  ASN92      -0.0877
     80  N          4.4420   14.3020    8.4910 N.am   93  VAL93      -0.1980
     81  CA         3.7300   13.4600    9.4630 C.3    93  VAL93       0.1595
     82  C          4.0150   13.8810   10.9070 C.2    93  VAL93       0.2287
     83  O          5.1630   14.0960   11.2870 O.2    93  VAL93      -0.2864
     84  CB         4.0490   11.9520    9.2820 C.3    93  VAL93       0.0276
     85  CG1        5.5440   11.6950    9.2770 C.3    93  VAL93       0.0022
     86  CG2        3.3950   11.1280   10.3830 C.3    93  VAL93       0.0022
     87  N          3.2200   16.6830   12.4200 N.3    95  ASP95      -0.1239
     88  CA         3.2860   18.1460   12.6210 C.3    95  ASP95       0.1674
     89  C          1.9090   18.7090   12.9840 C.2    95  ASP95       0.2266
     90  O          1.0490   18.8700   12.1100 O.2    95  ASP95      -0.2867
     91  CB         3.7820   18.8430   11.3590 C.3    95  ASP95       0.1410
     92  CG         5.2690   18.6220   11.0940 C.2    95  ASP95       0.3668
     93  OD1        5.9460   17.9830   11.9250 O.co2  95  ASP95      -0.2456
     94  OD2        5.7620   19.1070   10.0470 O.co2  95  ASP95      -0.2456
     95  N         11.9800   19.1400    7.0730 N.3   178  ALA178     -0.1245
     96  CA        11.9440   18.4370    8.3470 C.3   178  ALA178      0.1562
     97  C         13.3000   18.4080    9.0440 C.2   178  ALA178      0.2260
     98  O         13.4870   17.6040    9.9880 O.2   178  ALA178     -0.2867
     99  CB        11.3760   17.0140    8.1950 C.3   178  ALA178      0.0290
    100  N         20.9160   15.2400   10.1360 N.3   289  LYS289     -0.1245
    101  CA        19.8700   14.1980   10.1060 C.3   289  LYS289      0.1561
    102  C         19.7130   13.6190    8.7110 C.2   289  LYS289      0.2260
    103  O         19.5050   14.3480    7.7170 O.2   289  LYS289     -0.2867
    104  CB        18.5050   14.7230   10.5540 C.3   289  LYS289      0.0271
    105  CG        18.5020   15.3170   11.9500 C.3   289  LYS289      0.0035
    106  CD        17.1230   15.2040   12.5990 C.3   289  LYS289      0.0206
    107  CE        17.0070   16.1420   13.8110 C.3   289  LYS289      0.1093
    108  NZ        15.7650   15.8340   14.5660 N.3   289  LYS289     -0.1314
    109  N         11.1250   10.4820   20.2960 N.3   413  LEU413     -0.1231
    110  CA        10.0530   11.3170   19.7410 C.3   413  LEU413      0.1693
    111  C          8.7090   10.8070   20.3020 C.2   413  LEU413      0.2591
    112  O          8.3340    9.6940   19.9820 O.2   413  LEU413     -0.2718
    113  CB        10.0960   11.1970   18.2070 C.3   413  LEU413      0.0284
    114  CG         9.0920   11.9180   17.2870 C.3   413  LEU413      0.0019
    115  CD1        9.6770   12.1250   15.8870 C.3   413  LEU413      0.0001
    116  CD2        7.7340   11.1900   17.2180 C.3   413  LEU413      0.0001
    117  N          7.9650   11.5480   21.1360 N.am  414  ARG414     -0.1980
    118  CA         8.2040   12.9340   21.5470 C.3   414  ARG414      0.1597
    119  C          7.5710   13.1380   22.9310 C.2   414  ARG414      0.2287
    120  O          6.6870   12.3820   23.3250 O.2   414  ARG414     -0.2864
    121  CB         7.5610   13.8330   20.5020 C.3   414  ARG414      0.0334
    122  CG         7.7430   15.3120   20.6840 C.3   414  ARG414      0.0492
    123  CD         6.9220   16.0920   19.6590 C.3   414  ARG414      0.2205
    124  NE         7.2240   15.6770   18.2980 N.pl3 414  ARG414     -0.0865
    125  CZ         8.2490   16.0940   17.5630 C.cat 414  ARG414      0.5346
    126  NH1        9.1330   16.9750   18.0270 N.pl3 414  ARG414      0.1354
    127  NH2        8.4060   15.6020   16.3330 N.pl3 414  ARG414      0.1354
@<TRIPOS>BOND
     1    65    63   am
     2    78    77    2
     3    64    63    2
     4    63    62    1
     5    77    79   am
     6    77    76    1
     7    61    62    1
     8    61    58    1
     9    95    96    1
    10    72    73    1
    11    73    76    1
    12    73    74    1
    13    57    58    1
    14    57    49   am
    15    51    48    1
    16    51    52    1
    17    48    49    1
    18    48    47    1
    19   103   102    2
    20    58    59    1
    21    99    96    1
    22    49    50    2
    23    96    97    1
    24    60    59    2
    25    80    74   am
    26    80    81    1
    27    74    75    2
    28   102   101    1
    29    59    66   am
    30    52    54   ar
    31    52    53   ar
    32    97    98    2
    33    85    84    1
    34    84    81    1
    35    84    86    1
    36    81    82    1
    37    54    56   ar
    38    53    55   ar
    39    69    68    2
    40    68    67    1
    41    66    67    1
    42    94    92   ar
    43   101   100    1
    44   101   104    1
    45   104   105    1
    46    67    70    1
    47    56    55   ar
    48    82    83    2
    49    92    91    1
    50    92    93   ar
    51    91    88    1
    52   105   106    1
    53    70    71    1
    54    90    89    2
    55    37    35   ar
    56    37    38   ar
    57    87    88    1
    58   106   107    1
    59    88    89    1
    60    35    32   ar
    61    38    36   ar
    62   107   108    1
    63    27    26    1
    64    27    28    2
    65    45    43    1
    66    32    34   ar
    67    32    30   ar
    68    36    34   ar
    69    26    29    1
    70    26    25    1
    71    29    30    1
    72    23    22   ar
    73    34    33   ar
    74    30    31   ar
    75    41    42    2
    76    41    40    1
    77    15    14    1
    78    43    40    1
    79    43    44    1
    80    16    14    1
    81    22    24   ar
    82    22    21    1
    83   115   114    1
    84    40    39    1
    85    33    31   ar
    86    46    44    1
    87   127   125    1
    88    14    13    1
    89    21    18    1
    90    13    10    1
    91   116   114    1
    92     8     7    1
    93   114   113    1
    94    18    19    1
    95    18    17    1
    96   125   126    1
    97   125   124    2
    98    19    20    2
    99     7     6    1
   100    12    11    2
   101   113   110    1
   102   124   123    1
   103    10    11    1
   104    10     9    1
   105     6     5    1
   106   123   122    1
   107   110   109    1
   108   110   111    1
   109   112   111    2
   110   111   117   am
   111   121   122    1
   112   121   118    1
   113     5     2    1
   114   117   118    1
   115   118   119    1
   116     2     3    1
   117     2     1    1
   118     3     4    2
   119   119   120    2
