@<TRIPOS>MOLECULE
tmp/6f9hA00.pdb
 118 108 0 0 0
SMALL
GASTEIGER

@<TRIPOS>ATOM
      1  N         12.7400   14.4880   22.6900 N.3    11  MET11      -0.1245
      2  CA        12.3080   15.6300   21.9050 C.3    11  MET11       0.1570
      3  C         11.2280   16.3780   22.6610 C.2    11  MET11       0.2261
      4  O         10.2710   15.7700   23.1150 O.2    11  MET11      -0.2867
      5  CB        11.7050   15.1910   20.5820 C.3    11  MET11       0.0387
      6  CG        12.6940   14.6420   19.5920 C.3    11  MET11       0.0595
      7  SD        11.9260   14.4250   17.9860 S.3    11  MET11      -0.1393
      8  CE        13.1480   13.3850   17.2330 C.3    11  MET11       0.0692
      9  N          6.6050   20.2870   19.5180 N.3    14  LEU14      -0.1245
     10  CA         6.8820   21.1400   18.3540 C.3    14  LEU14       0.1561
     11  C          6.6580   22.6360   18.6670 C.2    14  LEU14       0.2260
     12  O          7.4020   23.4750   18.1520 O.2    14  LEU14      -0.2867
     13  CB         6.0630   20.7130   17.1340 C.3    14  LEU14       0.0270
     14  CG         6.5320   19.3970   16.4680 C.3    14  LEU14       0.0019
     15  CD1        5.4730   18.9380   15.5020 C.3    14  LEU14       0.0001
     16  CD2        7.8790   19.5070   15.7640 C.3    14  LEU14       0.0001
     17  N          4.3780   17.6580    7.1730 N.3    92  ASN92      -0.1225
     18  CA         5.0940   16.4100    7.4260 C.3    92  ASN92       0.1785
     19  C          4.4240   15.6320    8.5690 C.2    92  ASN92       0.2597
     20  O          3.9010   16.2330    9.5060 O.2    92  ASN92      -0.2718
     21  CB         6.5750   16.7150    7.7180 C.3    92  ASN92       0.1169
     22  CG         7.3040   17.2830    6.5030 C.2    92  ASN92       0.2627
     23  OD1        7.1130   16.8230    5.3790 O.2    92  ASN92      -0.2716
     24  ND2        8.1460   18.2630    6.7260 N.am   92  ASN92      -0.0877
     25  N          4.4420   14.3020    8.4910 N.am   93  VAL93      -0.1980
     26  CA         3.7300   13.4600    9.4630 C.3    93  VAL93       0.1595
     27  C          4.0150   13.8810   10.9070 C.2    93  VAL93       0.2287
     28  O          5.1630   14.0960   11.2870 O.2    93  VAL93      -0.2864
     29  CB         4.0490   11.9520    9.2820 C.3    93  VAL93       0.0276
     30  CG1        5.5440   11.6950    9.2770 C.3    93  VAL93       0.0022
     31  CG2        3.3950   11.1280   10.3830 C.3    93  VAL93       0.0022
     32  N          3.2200   16.6830   12.4200 N.3    95  ASP95      -0.1239
     33  CA         3.2860   18.1460   12.6210 C.3    95  ASP95       0.1674
     34  C          1.9090   18.7090   12.9840 C.2    95  ASP95       0.2266
     35  O          1.0490   18.8700   12.1100 O.2    95  ASP95      -0.2867
     36  CB         3.7820   18.8430   11.3590 C.3    95  ASP95       0.1410
     37  CG         5.2690   18.6220   11.0940 C.2    95  ASP95       0.3668
     38  OD1        5.9460   17.9830   11.9250 O.co2  95  ASP95      -0.2456
     39  OD2        5.7620   19.1070   10.0470 O.co2  95  ASP95      -0.2456
     40  N         11.9800   19.1400    7.0730 N.3   178  ALA178     -0.1245
     41  CA        11.9440   18.4370    8.3470 C.3   178  ALA178      0.1562
     42  C         13.3000   18.4080    9.0440 C.2   178  ALA178      0.2260
     43  O         13.4870   17.6040    9.9880 O.2   178  ALA178     -0.2867
     44  CB        11.3760   17.0140    8.1950 C.3   178  ALA178      0.0290
     45  N         16.0250   17.4900    7.6470 N.3   180  GLU180     -0.1245
     46  CA        16.7520   16.3320    7.1280 C.3   180  GLU180      0.1567
     47  C         17.4840   16.6800    5.8390 C.2   180  GLU180      0.2260
     48  O         16.9640   17.4060    5.0140 O.2   180  GLU180     -0.2867
     49  CB        15.7730   15.1900    6.8860 C.3   180  GLU180      0.0388
     50  CG        15.2970   14.5660    8.1860 C.3   180  GLU180      0.1160
     51  CD        14.1070   13.6340    8.0200 C.2   180  GLU180      0.3649
     52  OE1       13.3700   13.7590    7.0390 O.co2 180  GLU180     -0.2457
     53  OE2       13.9250   12.7440    8.8770 O.co2 180  GLU180     -0.2457
     54  N         20.9160   15.2400   10.1360 N.3   289  LYS289     -0.1245
     55  CA        19.8700   14.1980   10.1060 C.3   289  LYS289      0.1561
     56  C         19.7130   13.6190    8.7110 C.2   289  LYS289      0.2260
     57  O         19.5050   14.3480    7.7170 O.2   289  LYS289     -0.2867
     58  CB        18.5050   14.7230   10.5540 C.3   289  LYS289      0.0271
     59  CG        18.5020   15.3170   11.9500 C.3   289  LYS289      0.0035
     60  CD        17.1230   15.2040   12.5990 C.3   289  LYS289      0.0206
     61  CE        17.0070   16.1420   13.8110 C.3   289  LYS289      0.1093
     62  NZ        15.7650   15.8340   14.5660 N.3   289  LYS289     -0.1314
     63  N         17.1900    7.5620   11.8800 N.3   336  THR336     -0.1218
     64  CA        15.8730    7.2970   12.4250 C.3   336  THR336      0.1862
     65  C         15.5030    5.8260   12.2290 C.2   336  THR336      0.2287
     66  O         16.3930    5.0100   11.9470 O.2   336  THR336     -0.2866
     67  CB        14.8300    8.3040   11.8770 C.3   336  THR336      0.1770
     68  OG1       13.6130    8.1060   12.5820 O.3   336  THR336     -0.2211
     69  CG2       14.5940    8.1360   10.3750 C.3   336  THR336      0.0375
     70  N         16.9170    8.0580   16.2410 N.3   374  GLU374     -0.1231
     71  CA        15.5980    8.4430   16.7660 C.3   374  GLU374      0.1699
     72  C         14.6110    7.3430   16.3700 C.2   374  GLU374      0.2592
     73  O         14.8630    6.5770   15.4240 O.2   374  GLU374     -0.2718
     74  CB        15.1230    9.7350   16.1220 C.3   374  GLU374      0.0402
     75  CG        16.0640   10.9120   16.2680 C.3   374  GLU374      0.1161
     76  CD        15.5560   12.1860   15.5830 C.2   374  GLU374      0.3649
     77  OE1       16.2320   13.2480   15.7280 O.co2 374  GLU374     -0.2457
     78  OE2       14.4860   12.1300   14.9230 O.co2 374  GLU374     -0.2457
     79  N         13.5010    7.2520   17.0930 N.am  375  ASN375     -0.1960
     80  CA        12.3330    6.5060   16.5950 C.3   375  ASN375      0.1819
     81  C         11.5980    7.3580   15.5410 C.2   375  ASN375      0.2621
     82  O         11.3900    8.5460   15.7410 O.2   375  ASN375     -0.2715
     83  CB        11.3720    6.0820   17.7150 C.3   375  ASN375      0.1195
     84  CG        10.8550    7.2560   18.5360 C.2   375  ASN375      0.2630
     85  OD1       11.6390    7.9710   19.1680 O.2   375  ASN375     -0.2716
     86  ND2        9.5380    7.4420   18.5530 N.am  375  ASN375     -0.0877
     87  N         11.2530    6.7350   14.4190 N.am  376  ALA376     -0.1963
     88  CA        10.5080    7.3310   13.3110 C.3   376  ALA376      0.1728
     89  C          9.0370    7.6470   13.6270 C.2   376  ALA376      0.2616
     90  O          8.5020    8.6610   13.1370 O.2   376  ALA376     -0.2715
     91  CB        10.5740    6.4000   12.0980 C.3   376  ALA376      0.0334
     92  N          8.3720    6.7470   14.3740 N.am  377  LEU377     -0.1977
     93  CA         6.9600    6.9040   14.7340 C.3   377  LEU377      0.1596
     94  C          6.7410    6.7370   16.2390 C.2   377  LEU377      0.2287
     95  O          7.5950    6.1460   16.9200 O.2   377  LEU377     -0.2864
     96  CB         6.0920    5.9230   13.9470 C.3   377  LEU377      0.0297
     97  CG         6.1760    6.1470   12.4220 C.3   377  LEU377      0.0022
     98  CD1        5.5180    5.0130   11.6490 C.3   377  LEU377      0.0001
     99  CD2        5.5420    7.4720   12.0220 C.3   377  LEU377      0.0001
    100  N         11.1250   10.4820   20.2960 N.3   413  LEU413     -0.1231
    101  CA        10.0530   11.3170   19.7410 C.3   413  LEU413      0.1693
    102  C          8.7090   10.8070   20.3020 C.2   413  LEU413      0.2591
    103  O          8.3340    9.6940   19.9820 O.2   413  LEU413     -0.2718
    104  CB        10.0960   11.1970   18.2070 C.3   413  LEU413      0.0284
    105  CG         9.0920   11.9180   17.2870 C.3   413  LEU413      0.0019
    106  CD1        9.6770   12.1250   15.8870 C.3   413  LEU413      0.0001
    107  CD2        7.7340   11.1900   17.2180 C.3   413  LEU413      0.0001
    108  N          7.9650   11.5480   21.1360 N.am  414  ARG414     -0.1980
    109  CA         8.2040   12.9340   21.5470 C.3   414  ARG414      0.1597
    110  C          7.5710   13.1380   22.9310 C.2   414  ARG414      0.2287
    111  O          6.6870   12.3820   23.3250 O.2   414  ARG414     -0.2864
    112  CB         7.5610   13.8330   20.5020 C.3   414  ARG414      0.0334
    113  CG         7.7430   15.3120   20.6840 C.3   414  ARG414      0.0492
    114  CD         6.9220   16.0920   19.6590 C.3   414  ARG414      0.2205
    115  NE         7.2240   15.6770   18.2980 N.pl3 414  ARG414     -0.0865
    116  CZ         8.2490   16.0940   17.5630 C.cat 414  ARG414      0.5346
    117  NH1        9.1330   16.9750   18.0270 N.pl3 414  ARG414      0.1354
    118  NH2        8.4060   15.6020   16.3330 N.pl3 414  ARG414      0.1354
@<TRIPOS>BOND
     1    48    47    2
     2    23    22    2
     3    47    46    1
     4    22    24   am
     5    22    21    1
     6    49    46    1
     7    49    50    1
     8    52    51   ar
     9    40    41    1
    10    46    45    1
    11    17    18    1
    12    18    21    1
    13    18    19    1
    14    57    56    2
    15    51    50    1
    16    51    53   ar
    17    44    41    1
    18    41    42    1
    19    25    19   am
    20    25    26    1
    21    19    20    2
    22    56    55    1
    23    42    43    2
    24    30    29    1
    25    29    26    1
    26    29    31    1
    27    26    27    1
    28    39    37   ar
    29    55    54    1
    30    55    58    1
    31    69    67    1
    32    58    59    1
    33    27    28    2
    34    37    36    1
    35    37    38   ar
    36    36    33    1
    37    98    97    1
    38    67    64    1
    39    67    68    1
    40    63    64    1
    41    66    65    2
    42    59    60    1
    43    99    97    1
    44    91    88    1
    45    35    34    2
    46    65    64    1
    47    32    33    1
    48    97    96    1
    49    60    61    1
    50    33    34    1
    51    90    89    2
    52    88    89    1
    53    88    87    1
    54    89    92   am
    55    61    62    1
    56    96    93    1
    57    92    93    1
    58    87    81   am
    59    93    94    1
    60    78    76   ar
    61    73    72    2
    62    15    14    1
    63    81    82    2
    64    81    80    1
    65    76    77   ar
    66    76    75    1
    67    16    14    1
    68   106   105    1
    69    74    75    1
    70    74    71    1
    71    94    95    2
    72    70    71    1
    73   118   116    1
    74    72    71    1
    75    72    79   am
    76    14    13    1
    77    80    79    1
    78    80    83    1
    79    13    10    1
    80   107   105    1
    81     8     7    1
    82   105   104    1
    83   116   117    1
    84   116   115    2
    85    83    84    1
    86     7     6    1
    87    12    11    2
    88   104   101    1
    89   115   114    1
    90    10    11    1
    91    10     9    1
    92    84    86   am
    93    84    85    2
    94     6     5    1
    95   114   113    1
    96   101   100    1
    97   101   102    1
    98   103   102    2
    99   102   108   am
   100   112   113    1
   101   112   109    1
   102     5     2    1
   103   108   109    1
   104   109   110    1
   105     2     3    1
   106     2     1    1
   107     3     4    2
   108   110   111    2
