@<TRIPOS>MOLECULE
tmp/6f9iC00.pdb
 83 76 0 0 0
SMALL
GASTEIGER

@<TRIPOS>ATOM
      1  N         17.6000  -35.0610   -0.7370 N.3    92  ASN92      -0.1240
      2  CA        18.5140  -35.7520   -1.6370 C.3    92  ASN92       0.1653
      3  C         19.2980  -36.8040   -0.8610 C.2    92  ASN92       0.2266
      4  O         19.3740  -37.9550   -1.2790 O.2    92  ASN92      -0.2867
      5  CB        19.4650  -34.7600   -2.3140 C.3    92  ASN92       0.1155
      6  CG        20.4370  -35.4320   -3.2760 C.2    92  ASN92       0.2627
      7  OD1       21.2860  -36.2280   -2.8720 O.2    92  ASN92      -0.2716
      8  ND2       20.3300  -35.0910   -4.5550 N.am   92  ASN92      -0.0877
      9  N         17.4590  -39.8850    0.5060 N.3    95  ALA95      -0.1231
     10  CA        16.9440  -40.6860   -0.5930 C.3    95  ALA95       0.1694
     11  C         18.0220  -41.6330   -1.0950 C.2    95  ALA95       0.2591
     12  O         17.7210  -42.7070   -1.6140 O.2    95  ALA95      -0.2718
     13  CB        16.4510  -39.7980   -1.7140 C.3    95  ALA95       0.0304
     14  N         19.2780  -41.2270   -0.9490 N.am   96  VAL96      -0.1980
     15  CA        20.3920  -42.0970   -1.2950 C.3    96  VAL96       0.1595
     16  C         20.4280  -43.2680   -0.3190 C.2    96  VAL96       0.2287
     17  O         20.6690  -44.4130   -0.7100 O.2    96  VAL96      -0.2864
     18  CB        21.7430  -41.3490   -1.2650 C.3    96  VAL96       0.0276
     19  CG1       22.8650  -42.2450   -1.7620 C.3    96  VAL96       0.0022
     20  CG2       21.6750  -40.0830   -2.1010 C.3    96  VAL96       0.0022
     21  N         17.4790  -45.4530   -1.2160 N.3    99  GLY99      -0.1210
     22  CA        17.7930  -46.1990   -2.4170 C.3    99  GLY99       0.1956
     23  C         18.7400  -47.3450   -2.1250 C.2    99  GLY99       0.2611
     24  O         18.5020  -48.4780   -2.5440 O.2    99  GLY99      -0.2717
     25  N         19.8160  -47.0490   -1.4010 N.am  100  LYS100     -0.1979
     26  CA        20.7980  -48.0660   -1.0410 C.3   100  LYS100      0.1596
     27  C         20.1790  -49.2460   -0.2930 C.2   100  LYS100      0.2287
     28  O         20.5960  -50.3880   -0.4770 O.2   100  LYS100     -0.2864
     29  CB        21.9150  -47.4390   -0.2090 C.3   100  LYS100      0.0298
     30  CG        22.9370  -46.7120   -1.0660 C.3   100  LYS100      0.0038
     31  CD        23.9770  -45.9800   -0.2450 C.3   100  LYS100      0.0206
     32  CE        24.9710  -45.2650   -1.1500 C.3   100  LYS100      0.1093
     33  NZ        26.0600  -44.5830   -0.3920 N.3   100  LYS100     -0.1314
     34  N         13.7070  -48.3110   -3.4260 N.3   104  TYR104     -0.1241
     35  CA        13.7910  -47.4610   -4.6120 C.3   104  TYR104      0.1605
     36  C         12.5230  -46.6480   -4.8770 C.2   104  TYR104      0.2264
     37  O         12.6030  -45.4830   -5.2710 O.2   104  TYR104     -0.2867
     38  CB        14.1200  -48.3160   -5.8370 C.3   104  TYR104      0.0534
     39  CG        15.5370  -48.8440   -5.8340 C.ar  104  TYR104     -0.0201
     40  CD1       16.6030  -48.0260   -6.1860 C.ar  104  TYR104     -0.0009
     41  CD2       15.8110  -50.1540   -5.4660 C.ar  104  TYR104     -0.0009
     42  CE1       17.9030  -48.5010   -6.1830 C.ar  104  TYR104      0.0417
     43  CE2       17.1080  -50.6390   -5.4590 C.ar  104  TYR104      0.0417
     44  CZ        18.1490  -49.8090   -5.8190 C.ar  104  TYR104      0.1957
     45  OH        19.4410  -50.2860   -5.8140 O.3   104  TYR104     -0.2866
     46  N         13.1590  -37.6880   -3.9010 N.3   111  CYS111     -0.1235
     47  CA        13.9740  -37.1030   -4.9450 C.3   111  CYS111      0.1677
     48  C         13.1490  -36.1340   -5.8020 C.2   111  CYS111      0.2270
     49  O         13.5940  -35.0200   -6.0880 O.2   111  CYS111     -0.2867
     50  CB        14.5830  -38.2040   -5.8060 C.3   111  CYS111      0.0956
     51  SG        15.8070  -37.5970   -6.9580 S.3   111  CYS111     -0.0801
     52  N         20.7640  -37.9800  -10.4460 N.3   135  ASN135     -0.1240
     53  CA        20.4260  -38.8180   -9.2960 C.3   135  ASN135      0.1653
     54  C         19.0840  -39.5220   -9.4720 C.2   135  ASN135      0.2266
     55  O         18.9500  -40.7110   -9.1920 O.2   135  ASN135     -0.2867
     56  CB        20.3910  -37.9850   -8.0090 C.3   135  ASN135      0.1155
     57  CG        21.5120  -38.3370   -7.0410 C.2   135  ASN135      0.2627
     58  OD1       22.4980  -38.9750   -7.4060 O.2   135  ASN135     -0.2716
     59  ND2       21.3580  -37.9160   -5.7920 N.am  135  ASN135     -0.0877
     60  N         18.7670  -42.6170  -11.8850 N.3   138  LEU138     -0.1231
     61  CA        19.2340  -43.9180  -11.4170 C.3   138  LEU138      0.1693
     62  C         18.1670  -44.6060  -10.5690 C.2   138  LEU138      0.2591
     63  O         18.0320  -45.8310  -10.5950 O.2   138  LEU138     -0.2718
     64  CB        20.5340  -43.7680  -10.6240 C.3   138  LEU138      0.0284
     65  CG        21.7280  -43.2430  -11.4300 C.3   138  LEU138      0.0019
     66  CD1       22.6950  -42.4890  -10.5300 C.3   138  LEU138      0.0001
     67  CD2       22.4510  -44.3740  -12.1520 C.3   138  LEU138      0.0001
     68  N         17.4100  -43.8120   -9.8190 N.am  139  LEU139     -0.1980
     69  CA        16.2900  -44.3320   -9.0450 C.3   139  LEU139      0.1596
     70  C         15.2260  -44.9440   -9.9350 C.2   139  LEU139      0.2287
     71  O         14.4620  -45.8060   -9.5060 O.2   139  LEU139     -0.2864
     72  CB        15.6600  -43.2210   -8.2030 C.3   139  LEU139      0.0297
     73  CG        16.2910  -42.8960   -6.8520 C.3   139  LEU139      0.0022
     74  CD1       15.6520  -41.6540   -6.2580 C.3   139  LEU139      0.0001
     75  CD2       16.1320  -44.0750   -5.9030 C.3   139  LEU139      0.0001
     76  N         16.8580  -48.5740  -11.7330 N.3   142  ASN142     -0.1240
     77  CA        16.6340  -49.7560  -10.9170 C.3   142  ASN142      0.1653
     78  C         15.1710  -50.1870  -10.9090 C.2   142  ASN142      0.2266
     79  O         14.8700  -51.3780  -10.8330 O.2   142  ASN142     -0.2867
     80  CB        17.1080  -49.4970   -9.4890 C.3   142  ASN142      0.1155
     81  CG        18.6170  -49.3920   -9.3890 C.2   142  ASN142      0.2627
     82  OD1       19.3140  -50.3960   -9.2440 O.2   142  ASN142     -0.2716
     83  ND2       19.1310  -48.1720   -9.4850 N.am  142  ASN142     -0.0877
@<TRIPOS>BOND
     1    67    65    1
     2    60    61    1
     3    76    77    1
     4    65    64    1
     5    65    66    1
     6    61    64    1
     7    61    62    1
     8    77    78    1
     9    77    80    1
    10    78    79    2
    11    63    62    2
    12    62    68   am
    13    52    53    1
    14    70    71    2
    15    70    69    1
    16    68    69    1
    17    80    81    1
    18    83    81   am
    19    54    53    1
    20    54    55    2
    21    81    82    2
    22    53    56    1
    23    69    72    1
    24    72    73    1
    25    56    57    1
    26    58    57    2
    27    57    59   am
    28    51    50    1
    29    73    74    1
    30    73    75    1
    31    40    42   ar
    32    40    39   ar
    33    42    44   ar
    34    49    48    2
    35    38    39    1
    36    38    35    1
    37    39    41   ar
    38    44    45    1
    39    44    43   ar
    40    50    47    1
    41    48    47    1
    42    41    43   ar
    43    37    36    2
    44    47    46    1
    45    36    35    1
    46    35    34    1
    47     8     6   am
    48     6     7    2
    49     6     5    1
    50    24    23    2
    51    22    23    1
    52    22    21    1
    53     5     2    1
    54    23    25   am
    55    20    18    1
    56    19    18    1
    57    13    10    1
    58     2     3    1
    59     2     1    1
    60    12    11    2
    61    25    26    1
    62    15    18    1
    63    15    14    1
    64    15    16    1
    65     4     3    2
    66    32    33    1
    67    32    31    1
    68    11    14   am
    69    11    10    1
    70    30    31    1
    71    30    29    1
    72    26    27    1
    73    26    29    1
    74    17    16    2
    75    10     9    1
    76    28    27    2
