@<TRIPOS>MOLECULE
tmp/6f9mB00.pdb
 109 107 0 0 0
SMALL
GASTEIGER

@<TRIPOS>ATOM
      1  N         -8.4210   -5.8900   14.2990 N.3   188  GLY188     -0.1210
      2  CA        -8.3150   -4.6300   13.5790 C.3   188  GLY188      0.1956
      3  C         -7.9390   -3.4450   14.4520 C.2   188  GLY188      0.2612
      4  O         -7.3410   -2.4850   13.9660 O.2   188  GLY188     -0.2717
      5  N         -8.2720   -3.4940   15.7470 N.am  189  ALA189     -0.1965
      6  CA        -8.0090   -2.3750   16.6510 C.3   189  ALA189      0.1728
      7  C         -6.5390   -2.2190   17.0260 C.2   189  ALA189      0.2616
      8  O         -6.1420   -1.1510   17.5050 O.2   189  ALA189     -0.2715
      9  CB        -8.8280   -2.5360   17.9280 C.3   189  ALA189      0.0334
     10  N         -5.7110   -3.2380   16.8390 N.am  190  TYR190     -0.1960
     11  CA        -4.3150   -3.1210   17.2520 C.3   190  TYR190      0.1771
     12  C         -3.6180   -2.0710   16.4020 C.2   190  TYR190      0.2620
     13  O         -3.8600   -1.9710   15.1980 O.2   190  TYR190     -0.2715
     14  CB        -3.5730   -4.4460   17.0830 C.3   190  TYR190      0.0574
     15  CG        -4.0690   -5.5780   17.9550 C.ar  190  TYR190     -0.0198
     16  CD1       -4.3900   -5.3790   19.2840 C.ar  190  TYR190     -0.0009
     17  CD2       -4.2120   -6.8510   17.4360 C.ar  190  TYR190     -0.0009
     18  CE1       -4.8430   -6.4340   20.0760 C.ar  190  TYR190      0.0417
     19  CE2       -4.6540   -7.8920   18.2040 C.ar  190  TYR190      0.0417
     20  CZ        -4.9720   -7.6910   19.5180 C.ar  190  TYR190      0.1957
     21  OH        -5.4240   -8.7540   20.2730 O.3   190  TYR190     -0.2866
     22  N         -2.7330   -1.2970   17.0250 N.am  191  GLY191     -0.1940
     23  CA        -2.0130   -0.2720   16.2890 C.3   191  GLY191      0.2014
     24  C         -1.2670   -0.8400   15.1020 C.2   191  GLY191      0.2639
     25  O         -1.1690   -0.1980   14.0570 O.2   191  GLY191     -0.2714
     26  N         -0.7210   -2.0500   15.2540 N.am  192  GLU192     -0.1963
     27  CA         0.1290   -2.6470   14.2370 C.3   192  GLU192      0.1733
     28  C         -0.6220   -3.0210   12.9710 C.2   192  GLU192      0.2616
     29  O          0.0070   -3.1530   11.9130 O.2   192  GLU192     -0.2715
     30  CB         0.7610   -3.9170   14.8080 C.3   192  GLU192      0.0429
     31  CG         1.8180   -3.7020   15.8860 C.3   192  GLU192      0.1163
     32  CD         1.2620   -3.5710   17.3000 C.2   192  GLU192      0.3649
     33  OE1        0.0370   -3.4640   17.5000 O.co2 192  GLU192     -0.2457
     34  OE2        2.0910   -3.5940   18.2330 O.co2 192  GLU192     -0.2457
     35  N         -1.9240   -3.2600   13.0680 N.am  193  VAL193     -0.1963
     36  CA        -2.7120   -3.7940   11.9590 C.3   193  VAL193      0.1727
     37  C         -3.1240   -2.6700   11.0190 C.2   193  VAL193      0.2616
     38  O         -3.5090   -1.5830   11.4540 O.2   193  VAL193     -0.2715
     39  CB        -3.9390   -4.5440   12.5080 C.3   193  VAL193      0.0290
     40  CG1       -4.9130   -4.9330   11.4080 C.3   193  VAL193      0.0023
     41  CG2       -3.4960   -5.7810   13.2570 C.3   193  VAL193      0.0023
     42  N         -3.0520   -2.9360    9.7180 N.am  194  ILE194     -0.1963
     43  CA        -3.5350   -2.0130    8.6930 C.3   194  ILE194      0.1727
     44  C         -5.0220   -2.2830    8.5010 C.2   194  ILE194      0.2616
     45  O         -5.4030   -3.3440    8.0110 O.2   194  ILE194     -0.2715
     46  CB        -2.7600   -2.2090    7.3820 C.3   194  ILE194      0.0290
     47  CG1       -1.2690   -1.9240    7.6110 C.3   194  ILE194      0.0022
     48  CG2       -3.3270   -1.3290    6.2760 C.3   194  ILE194      0.0023
     49  CD1       -0.3680   -2.2850    6.4830 C.3   194  ILE194      0.0001
     50  N         -5.8580   -1.3130    8.8600 N.am  195  GLN195     -0.1977
     51  CA        -7.3020   -1.4850    8.8350 C.3   195  GLN195      0.1601
     52  C         -7.8810   -0.7440    7.6330 C.2   195  GLN195      0.2287
     53  O         -7.5980    0.4390    7.4230 O.2   195  GLN195     -0.2864
     54  CB        -7.9210   -0.9950   10.1410 C.3   195  GLN195      0.0394
     55  CG        -9.4180   -1.2300   10.2170 C.3   195  GLN195      0.0908
     56  CD       -10.0430   -0.5870   11.4380 C.2   195  GLN195      0.2608
     57  OE1      -11.0270    0.1450   11.3400 O.2   195  GLN195     -0.2717
     58  NE2       -9.4730   -0.8450   12.5850 N.am  195  GLN195     -0.0878
     59  N        -10.7530    2.5500   13.0400 N.3   209  GLU209     -0.1231
     60  CA        -9.4820    3.2890   12.9710 C.3   209  GLU209      0.1699
     61  C         -8.9070    3.0200   11.5910 C.2   209  GLU209      0.2592
     62  O         -8.0090    2.1850   11.4440 O.2   209  GLU209     -0.2718
     63  CB        -8.5100    2.8120   14.0100 C.3   209  GLU209      0.0402
     64  CG        -8.8920    3.0850   15.3960 C.3   209  GLU209      0.1161
     65  CD        -7.8280    2.6270   16.3640 C.2   209  GLU209      0.3649
     66  OE1       -6.9480    1.8100   15.9920 O.co2 209  GLU209     -0.2457
     67  OE2       -7.8810    3.0840   17.5080 O.co2 209  GLU209     -0.2457
     68  N         -9.3950    3.7590   10.6020 N.am  210  ILE210     -0.1966
     69  CA        -9.0920    3.4910    9.1980 C.3   210  ILE210      0.1727
     70  C         -7.6750    3.9350    8.8720 C.2   210  ILE210      0.2616
     71  O         -7.2490    5.0330    9.2480 O.2   210  ILE210     -0.2715
     72  CB       -10.1030    4.2750    8.3330 C.3   210  ILE210      0.0290
     73  CG1      -11.5390    3.8920    8.7080 C.3   210  ILE210      0.0022
     74  CG2       -9.8570    4.0630    6.8470 C.3   210  ILE210      0.0023
     75  CD1      -11.8330    2.4000    8.5900 C.3   210  ILE210      0.0001
     76  N         -6.9570    3.1100    8.1040 N.am  211  ASP211     -0.1971
     77  CA        -5.6990    3.5310    7.5000 C.3   211  ASP211      0.1709
     78  C         -5.8620    4.0210    6.0660 C.2   211  ASP211      0.2293
     79  O         -5.1430    4.9380    5.6410 O.2   211  ASP211     -0.2864
     80  CB        -4.6850    2.3820    7.5410 C.3   211  ASP211      0.1436
     81  CG        -4.1080    2.1860    8.9140 C.2   211  ASP211      0.3671
     82  OD1       -3.3980    3.0950    9.4050 O.co2 211  ASP211     -0.2456
     83  OD2       -4.3810    1.1180    9.4930 O.co2 211  ASP211     -0.2456
     84  N          8.3490   -3.5540    7.8240 N.3   262  GLU262     -0.1231
     85  CA         6.8980   -3.4380    7.7070 C.3   262  GLU262      0.1699
     86  C          6.4600   -1.9790    7.7350 C.2   262  GLU262      0.2592
     87  O          5.5380   -1.5840    7.0140 O.2   262  GLU262     -0.2718
     88  CB         6.1950   -4.2620    8.7870 C.3   262  GLU262      0.0402
     89  CG         4.6670   -4.3870    8.5900 C.3   262  GLU262      0.1161
     90  CD         3.8580   -3.2240    9.1280 C.2   262  GLU262      0.3649
     91  OE1        4.3330   -2.5170   10.0520 O.co2 262  GLU262     -0.2457
     92  OE2        2.7320   -3.0140    8.6150 O.co2 262  GLU262     -0.2457
     93  N          7.1250   -1.1480    8.5360 N.am  263  ALA263     -0.1980
     94  CA         6.7430    0.2590    8.6040 C.3   263  ALA263      0.1597
     95  C          6.9640    0.9420    7.2610 C.2   263  ALA263      0.2287
     96  O          6.1770    1.8040    6.8640 O.2   263  ALA263     -0.2864
     97  CB         7.5330    0.9860    9.6980 C.3   263  ALA263      0.0319
     98  N          4.2050   -0.1170    4.9060 N.3   266  TYR266     -0.1241
     99  CA         3.0370    0.6880    5.2320 C.3   266  TYR266      0.1605
    100  C          3.1530    2.0990    4.6570 C.2   266  TYR266      0.2264
    101  O          2.2030    2.6340    4.0670 O.2   266  TYR266     -0.2867
    102  CB         2.8560    0.7390    6.7520 C.3   266  TYR266      0.0534
    103  CG         1.7100    1.6390    7.1700 C.ar  266  TYR266     -0.0201
    104  CD1        0.3900    1.2700    6.9850 C.ar  266  TYR266     -0.0009
    105  CD2        1.9600    2.8940    7.7120 C.ar  266  TYR266     -0.0009
    106  CE1       -0.6480    2.1070    7.3420 C.ar  266  TYR266      0.0417
    107  CE2        0.9210    3.7340    8.0670 C.ar  266  TYR266      0.0417
    108  CZ        -0.3800    3.3370    7.8840 C.ar  266  TYR266      0.1957
    109  OH        -1.3940    4.1980    8.2600 O.3   266  TYR266     -0.2866
@<TRIPOS>BOND
     1   101   100    2
     2   100    99    1
     3    98    99    1
     4    99   102    1
     5    79    78    2
     6    78    77    1
     7    48    46    1
     8    49    47    1
     9   102   103    1
    10    74    72    1
    11    96    95    2
    12   104   103   ar
    13   104   106   ar
    14    87    86    2
    15   103   105   ar
    16    95    94    1
    17   106   108   ar
    18    46    47    1
    19    46    43    1
    20    53    52    2
    21    77    80    1
    22    77    76    1
    23    80    81    1
    24    52    51    1
    25    85    86    1
    26    85    84    1
    27    85    88    1
    28   105   107   ar
    29    86    93   am
    30   108   107   ar
    31   108   109    1
    32    45    44    2
    33    76    70   am
    34    72    73    1
    35    72    69    1
    36    44    43    1
    37    44    50   am
    38    93    94    1
    39    75    73    1
    40    89    88    1
    41    89    90    1
    42    94    97    1
    43    92    90   ar
    44    43    42    1
    45    51    50    1
    46    51    54    1
    47    70    69    1
    48    70    71    2
    49    81    82   ar
    50    81    83   ar
    51    90    91   ar
    52    69    68    1
    53    42    37   am
    54    54    55    1
    55    55    56    1
    56    68    61   am
    57    37    38    2
    58    37    36    1
    59    57    56    2
    60    40    39    1
    61    56    58   am
    62    62    61    2
    63    61    60    1
    64    29    28    2
    65    36    39    1
    66    36    35    1
    67    39    41    1
    68    28    35   am
    69    28    27    1
    70    60    59    1
    71    60    63    1
    72     2     1    1
    73     2     3    1
    74     4     3    2
    75    63    64    1
    76    25    24    2
    77    27    30    1
    78    27    26    1
    79     3     5   am
    80    30    31    1
    81    24    26   am
    82    24    23    1
    83    13    12    2
    84    64    65    1
    85     5     6    1
    86    31    32    1
    87    66    65   ar
    88    23    22    1
    89    65    67   ar
    90    12    22   am
    91    12    11    1
    92     6     7    1
    93     6     9    1
    94    10     7   am
    95    10    11    1
    96     7     8    2
    97    14    11    1
    98    14    15    1
    99    32    33   ar
   100    32    34   ar
   101    17    15   ar
   102    17    19   ar
   103    15    16   ar
   104    19    20   ar
   105    16    18   ar
   106    20    18   ar
   107    20    21    1
