@<TRIPOS>MOLECULE
tmp/6f9rB06.pdb
 109 107 0 0 0
SMALL
GASTEIGER

@<TRIPOS>ATOM
      1  N         21.3600  -21.4520  -39.2740 N.3   282  GLN282     -0.1231
      2  CA        20.8190  -22.7220  -39.7420 C.3   282  GLN282      0.1698
      3  C         19.4930  -22.5920  -40.4680 C.2   282  GLN282      0.2593
      4  O         19.0110  -23.5890  -41.0120 O.2   282  GLN282     -0.2718
      5  CB        20.6500  -23.6880  -38.5720 C.3   282  GLN282      0.0381
      6  CG        21.9560  -24.1400  -37.9660 C.3   282  GLN282      0.0905
      7  CD        21.7650  -25.2030  -36.8920 C.2   282  GLN282      0.2608
      8  OE1       20.6420  -25.5420  -36.5290 O.2   282  GLN282     -0.2717
      9  NE2       22.8670  -25.7480  -36.4010 N.am  282  GLN282     -0.0878
     10  N         18.8770  -21.4130  -40.4850 N.am  283  GLY283     -0.1942
     11  CA        17.6470  -21.2630  -41.2300 C.3   283  GLY283      0.2014
     12  C         16.4070  -21.7810  -40.5470 C.2   283  GLY283      0.2639
     13  O         15.4430  -22.1530  -41.2240 O.2   283  GLY283     -0.2714
     14  N         16.3910  -21.8220  -39.2190 N.am  284  TRP284     -0.1959
     15  CA        15.1760  -22.2240  -38.5270 C.3   284  TRP284      0.1771
     16  C         14.0260  -21.3000  -38.8960 C.2   284  TRP284      0.2619
     17  O         14.1980  -20.0860  -39.0270 O.2   284  TRP284     -0.2715
     18  CB        15.3800  -22.1900  -37.0150 C.3   284  TRP284      0.0590
     19  CG        16.2260  -23.2810  -36.4860 C.ar  284  TRP284      0.0006
     20  CD1       17.5190  -23.5750  -36.8340 C.ar  284  TRP284      0.0946
     21  CD2       15.8530  -24.2210  -35.4780 C.ar  284  TRP284      0.0152
     22  NE1       17.9720  -24.6490  -36.1010 N.ar  284  TRP284     -0.2442
     23  CE2       16.9700  -25.0660  -35.2610 C.ar  284  TRP284      0.0810
     24  CE3       14.6850  -24.4330  -34.7360 C.ar  284  TRP284      0.0012
     25  CZ2       16.9510  -26.1030  -34.3260 C.ar  284  TRP284      0.0191
     26  CZ3       14.6640  -25.4650  -33.8030 C.ar  284  TRP284      0.0001
     27  CH2       15.7960  -26.2920  -33.6120 C.ar  284  TRP284      0.0015
     28  N         12.8520  -21.8860  -39.0660 N.am  285  GLN285     -0.1977
     29  CA        11.6090  -21.1430  -39.2120 C.3   285  GLN285      0.1601
     30  C         10.6680  -21.5180  -38.0730 C.2   285  GLN285      0.2287
     31  O         10.9240  -22.4550  -37.3110 O.2   285  GLN285     -0.2864
     32  CB        10.9430  -21.4410  -40.5600 C.3   285  GLN285      0.0394
     33  CG        11.8660  -21.2980  -41.7730 C.3   285  GLN285      0.0908
     34  CD        12.1600  -19.8480  -42.1290 C.2   285  GLN285      0.2608
     35  OE1       12.0680  -18.9510  -41.2870 O.2   285  GLN285     -0.2717
     36  NE2       12.5060  -19.6130  -43.3890 N.am  285  GLN285     -0.0878
     37  N          7.8530  -23.1210  -38.1490 N.3   287  THR287     -0.1203
     38  CA         7.3910  -24.5110  -38.1680 C.3   287  THR287      0.1994
     39  C          8.4290  -25.4630  -37.5810 C.2   287  THR287      0.2617
     40  O          8.0700  -26.4180  -36.8820 O.2   287  THR287     -0.2717
     41  CB         7.0230  -24.9450  -39.5850 C.3   287  THR287      0.1784
     42  OG1        6.1190  -23.9890  -40.1450 O.3   287  THR287     -0.2211
     43  CG2        6.3400  -26.3180  -39.5530 C.3   287  THR287      0.0376
     44  N          9.7160  -25.2270  -37.8420 N.am  288  HIS288     -0.1975
     45  CA        10.7370  -26.0800  -37.2420 C.3   288  HIS288      0.1656
     46  C         10.6570  -25.9970  -35.7270 C.2   288  HIS288      0.2291
     47  O         10.7330  -27.0160  -35.0380 O.2   288  HIS288     -0.2864
     48  CB        12.1440  -25.6820  -37.6910 C.3   288  HIS288      0.0771
     49  CG        12.3450  -25.6970  -39.1750 C.ar  288  HIS288      0.0820
     50  ND1       11.9060  -24.6780  -39.9920 N.ar  288  HIS288     -0.2267
     51  CD2       12.9360  -26.6020  -39.9900 C.ar  288  HIS288      0.1154
     52  CE1       12.2200  -24.9520  -41.2450 C.ar  288  HIS288      0.1986
     53  NE2       12.8500  -26.1110  -41.2700 N.ar  288  HIS288     -0.2212
     54  N          7.8460  -28.0570  -34.4610 N.3   291  ARG291     -0.1231
     55  CA         8.1070  -29.4820  -34.6170 C.3   291  ARG291      0.1694
     56  C          9.1400  -29.9680  -33.6120 C.2   291  ARG291      0.2591
     57  O          9.0360  -31.0850  -33.0930 O.2   291  ARG291     -0.2718
     58  CB         8.5690  -29.7650  -36.0460 C.3   291  ARG291      0.0321
     59  CG         7.4470  -29.5970  -37.0820 C.3   291  ARG291      0.0489
     60  CD         6.4590  -30.7470  -36.9440 C.3   291  ARG291      0.2205
     61  NE         5.3750  -30.6240  -37.9040 N.pl3 291  ARG291     -0.0865
     62  CZ         4.3610  -31.4730  -38.0090 C.cat 291  ARG291      0.5346
     63  NH1        4.2750  -32.5290  -37.2100 N.pl3 291  ARG291      0.1354
     64  NH2        3.4280  -31.2540  -38.9190 N.pl3 291  ARG291      0.1354
     65  N         10.1360  -29.1440  -33.3120 N.am  292  VAL292     -0.1980
     66  CA        11.1330  -29.5730  -32.3400 C.3   292  VAL292      0.1595
     67  C         10.5140  -29.6440  -30.9520 C.2   292  VAL292      0.2287
     68  O         10.7800  -30.5740  -30.1830 O.2   292  VAL292     -0.2864
     69  CB        12.3510  -28.6390  -32.4090 C.3   292  VAL292      0.0276
     70  CG1       13.2680  -28.8260  -31.2130 C.3   292  VAL292      0.0022
     71  CG2       13.1120  -28.8970  -33.7230 C.3   292  VAL292      0.0022
     72  N          8.4630  -32.7900  -30.7230 N.3   295  GLU295     -0.1245
     73  CA         9.2200  -34.0220  -30.6130 C.3   295  GLU295      0.1567
     74  C          9.7050  -34.2360  -29.1820 C.2   295  GLU295      0.2260
     75  O          9.8090  -35.3850  -28.7400 O.2   295  GLU295     -0.2867
     76  CB        10.3680  -34.0050  -31.6130 C.3   295  GLU295      0.0388
     77  CG        10.9950  -35.3740  -31.8640 C.3   295  GLU295      0.1160
     78  CD        12.0020  -35.7340  -30.8150 C.2   295  GLU295      0.3649
     79  OE1       12.7330  -34.8160  -30.3670 O.co2 295  GLU295     -0.2457
     80  OE2       12.0480  -36.9260  -30.4170 O.co2 295  GLU295     -0.2457
     81  N         22.3050  -31.7710  -28.4420 N.3   403  LYS403     -0.1231
     82  CA        21.5980  -32.8700  -29.0900 C.3   403  LYS403      0.1693
     83  C         20.8020  -32.3900  -30.2970 C.2   403  LYS403      0.2591
     84  O         20.7000  -33.0990  -31.3040 O.2   403  LYS403     -0.2718
     85  CB        20.6680  -33.5570  -28.0930 C.3   403  LYS403      0.0285
     86  CG        21.3510  -34.1630  -26.8840 C.3   403  LYS403      0.0035
     87  CD        20.3240  -34.6420  -25.8570 C.3   403  LYS403      0.0206
     88  CE        21.0060  -35.2510  -24.6390 C.3   403  LYS403      0.1093
     89  NZ        20.0430  -35.4960  -23.5260 N.3   403  LYS403     -0.1314
     90  N         20.2090  -31.2060  -30.2180 N.am  404  ILE404     -0.1980
     91  CA        19.3920  -30.7250  -31.3260 C.3   404  ILE404      0.1595
     92  C         20.2130  -29.8270  -32.2470 C.2   404  ILE404      0.2287
     93  O         19.6630  -29.0880  -33.0690 O.2   404  ILE404     -0.2864
     94  CB        18.1370  -30.0050  -30.8040 C.3   404  ILE404      0.0276
     95  CG1       18.5240  -28.7540  -30.0080 C.3   404  ILE404      0.0022
     96  CG2       17.3220  -30.9700  -29.9440 C.3   404  ILE404      0.0022
     97  CD1       17.3370  -27.9200  -29.5830 C.3   404  ILE404      0.0001
     98  N         14.5710  -35.1780  -21.5600 N.3   527  TYR527     -0.1241
     99  CA        14.3410  -35.6510  -22.9220 C.3   527  TYR527      0.1605
    100  C         14.4260  -37.1630  -22.9940 C.2   527  TYR527      0.2264
    101  O         15.3630  -37.7760  -22.4740 O.2   527  TYR527     -0.2867
    102  CB        15.3680  -35.0130  -23.8660 C.3   527  TYR527      0.0534
    103  CG        15.2150  -35.2970  -25.3380 C.ar  527  TYR527     -0.0201
    104  CD1       14.0860  -34.8960  -26.0400 C.ar  527  TYR527     -0.0009
    105  CD2       16.2530  -35.9120  -26.0620 C.ar  527  TYR527     -0.0009
    106  CE1       13.9790  -35.1230  -27.4200 C.ar  527  TYR527      0.0417
    107  CE2       16.1450  -36.1410  -27.4250 C.ar  527  TYR527      0.0417
    108  CZ        15.0190  -35.7490  -28.0940 C.ar  527  TYR527      0.1957
    109  OH        14.9270  -35.9920  -29.4410 O.3   527  TYR527     -0.2866
@<TRIPOS>BOND
     1    36    34   am
     2    34    33    1
     3    34    35    2
     4    33    32    1
     5    53    52   ar
     6    53    51   ar
     7    52    50   ar
     8    11    12    1
     9    11    10    1
    10    13    12    2
    11     4     3    2
    12    32    29    1
    13    12    14   am
    14    10     3   am
    15     3     2    1
    16    42    41    1
    17    50    49   ar
    18    51    49   ar
    19     2     1    1
    20     2     5    1
    21    41    43    1
    22    41    38    1
    23    14    15    1
    24    29    28    1
    25    29    30    1
    26    49    48    1
    27    28    16   am
    28    17    16    2
    29    64    62    1
    30    16    15    1
    31     5     6    1
    32    15    18    1
    33    38    37    1
    34    38    39    1
    35    30    31    2
    36    62    61    2
    37    62    63    1
    38     6     7    1
    39    61    60    1
    40    44    39   am
    41    44    45    1
    42    48    45    1
    43    39    40    2
    44    45    46    1
    45    59    60    1
    46    59    58    1
    47    18    19    1
    48     7     8    2
    49     7     9   am
    50    20    19   ar
    51    20    22   ar
    52    19    21   ar
    53    22    23   ar
    54    58    55    1
    55    46    47    2
    56    21    23   ar
    57    21    24   ar
    58    23    25   ar
    59    24    26   ar
    60    55    54    1
    61    55    56    1
    62    25    27   ar
    63    26    27   ar
    64    71    69    1
    65    56    65   am
    66    56    57    2
    67    65    66    1
    68    93    92    2
    69    69    66    1
    70    69    70    1
    71    66    67    1
    72    92    91    1
    73    77    76    1
    74    77    78    1
    75    76    73    1
    76    91    94    1
    77    91    90    1
    78    84    83    2
    79    67    68    2
    80    78    80   ar
    81    78    79   ar
    82    94    95    1
    83    94    96    1
    84    72    73    1
    85    73    74    1
    86    83    90   am
    87    83    82    1
    88    95    97    1
    89   109   108    1
    90    74    75    2
    91    82    81    1
    92    82    85    1
    93   108   107   ar
    94   108   106   ar
    95    85    86    1
    96   107   105   ar
    97   106   104   ar
    98    86    87    1
    99   105   103   ar
   100   104   103   ar
   101    87    88    1
   102   103   102    1
   103    88    89    1
   104   102    99    1
   105   100    99    1
   106   100   101    2
   107    99    98    1
