@<TRIPOS>MOLECULE
tmp/6f9rA06.pdb
 90 85 0 0 0
SMALL
GASTEIGER

@<TRIPOS>ATOM
      1  N         -3.0250   -5.2860   43.1980 N.3    24  TYR24      -0.1241
      2  CA        -2.2690   -4.8250   42.0380 C.3    24  TYR24       0.1605
      3  C         -2.3040   -3.3050   41.9450 C.2    24  TYR24       0.2264
      4  O         -1.2590   -2.6490   41.9040 O.2    24  TYR24      -0.2867
      5  CB        -2.8310   -5.4580   40.7650 C.3    24  TYR24       0.0534
      6  CG        -2.2390   -4.8970   39.4890 C.ar   24  TYR24      -0.0201
      7  CD1       -0.9900   -5.3050   39.0460 C.ar   24  TYR24      -0.0009
      8  CD2       -2.9280   -3.9580   38.7320 C.ar   24  TYR24      -0.0009
      9  CE1       -0.4440   -4.7970   37.8810 C.ar   24  TYR24       0.0417
     10  CE2       -2.3890   -3.4420   37.5680 C.ar   24  TYR24       0.0417
     11  CZ        -1.1470   -3.8690   37.1490 C.ar   24  TYR24       0.1957
     12  OH        -0.6040   -3.3650   35.9920 O.3    24  TYR24      -0.2866
     13  N          0.7530   -0.7610   42.1260 N.3    28  ALA28      -0.1245
     14  CA         1.0620   -0.1250   40.8510 C.3    28  ALA28       0.1562
     15  C          1.2360    1.3790   41.0170 C.2    28  ALA28       0.2260
     16  O          2.0910    1.9850   40.3650 O.2    28  ALA28      -0.2867
     17  CB        -0.0360   -0.4370   39.8330 C.3    28  ALA28       0.0290
     18  N          4.6590    2.1610   41.9020 N.3    31  VAL31      -0.1231
     19  CA         5.5560    1.9100   40.7830 C.3    31  VAL31       0.1692
     20  C          5.3670    2.9750   39.7110 C.2    31  VAL31       0.2591
     21  O          6.3400    3.5220   39.1860 O.2    31  VAL31      -0.2718
     22  CB         5.3300    0.4890   40.2350 C.3    31  VAL31       0.0266
     23  CG1        6.2140    0.2220   39.0190 C.3    31  VAL31       0.0020
     24  CG2        5.6060   -0.5370   41.3290 C.3    31  VAL31       0.0020
     25  N          4.1170    3.3010   39.3830 N.am   32  LEU32      -0.1980
     26  CA         3.8740    4.3320   38.3800 C.3    32  LEU32       0.1596
     27  C          4.4510    5.6680   38.8150 C.2    32  LEU32       0.2287
     28  O          5.0630    6.3780   38.0120 O.2    32  LEU32      -0.2864
     29  CB         2.3760    4.4590   38.1150 C.3    32  LEU32       0.0297
     30  CG         1.7610    3.3250   37.3080 C.3    32  LEU32       0.0022
     31  CD1        0.2550    3.4980   37.2230 C.3    32  LEU32       0.0001
     32  CD2        2.3860    3.2700   35.9050 C.3    32  LEU32       0.0001
     33  N          9.6860   -0.9360   36.7800 N.3    61  SER61      -0.1217
     34  CA         8.3290   -1.0980   36.2720 C.3    61  SER61       0.1889
     35  C          8.1800   -2.4470   35.5940 C.2    61  SER61       0.2288
     36  O          7.1390   -3.1060   35.7090 O.2    61  SER61      -0.2866
     37  CB         7.9860    0.0330   35.2920 C.3    61  SER61       0.2089
     38  OG         8.0010    1.2920   35.9360 O.3    61  SER61      -0.2183
     39  N          7.9530   -5.2890   38.0890 N.3    64  PHE64      -0.1227
     40  CA         6.5970   -5.2720   38.6370 C.3    64  PHE64       0.1736
     41  C          5.5830   -5.8840   37.6730 C.2    64  PHE64       0.2595
     42  O          4.7400   -6.6960   38.0730 O.2    64  PHE64      -0.2718
     43  CB         6.1850   -3.8310   38.9860 C.3    64  PHE64       0.0547
     44  CG         4.7770   -3.7170   39.5050 C.ar   64  PHE64      -0.0202
     45  CD1        4.5110   -3.8440   40.8670 C.ar   64  PHE64      -0.0042
     46  CD2        3.7170   -3.5080   38.6390 C.ar   64  PHE64      -0.0042
     47  CE1        3.2140   -3.7500   41.3480 C.ar   64  PHE64      -0.0003
     48  CE2        2.4060   -3.4240   39.1120 C.ar   64  PHE64      -0.0003
     49  CZ         2.1570   -3.5390   40.4670 C.ar   64  PHE64      -0.0000
     50  N          5.6110   -5.4700   36.4010 N.am   65  ALA65      -0.1980
     51  CA         4.6350   -5.9980   35.4510 C.3    65  ALA65       0.1597
     52  C          4.8580   -7.4840   35.2210 C.2    65  ALA65       0.2287
     53  O          3.8980   -8.2450   35.0470 O.2    65  ALA65      -0.2864
     54  CB         4.7080   -5.2260   34.1340 C.3    65  ALA65       0.0319
     55  N         -0.0150    9.4780   39.1630 N.3   335  TYR335     -0.1241
     56  CA        -0.6690    8.3110   39.7510 C.3   335  TYR335      0.1605
     57  C         -0.4640    8.2890   41.2690 C.2   335  TYR335      0.2264
     58  O         -0.0450    7.2920   41.8630 O.2   335  TYR335     -0.2867
     59  CB        -0.1680    7.0240   39.0830 C.3   335  TYR335      0.0534
     60  CG        -0.4810    6.9800   37.5940 C.ar  335  TYR335     -0.0201
     61  CD1       -1.7220    6.5520   37.1340 C.ar  335  TYR335     -0.0009
     62  CD2        0.4510    7.3890   36.6640 C.ar  335  TYR335     -0.0009
     63  CE1       -2.0150    6.5260   35.7860 C.ar  335  TYR335      0.0417
     64  CE2        0.1720    7.3660   35.3180 C.ar  335  TYR335      0.0417
     65  CZ        -1.0630    6.9330   34.8790 C.ar  335  TYR335      0.1957
     66  OH        -1.3500    6.9060   33.5330 O.3   335  TYR335     -0.2866
     67  N         -6.1480    2.4730   39.1180 N.3   374  VAL374     -0.1231
     68  CA        -5.1560    2.8650   38.1200 C.3   374  VAL374      0.1692
     69  C         -5.5150    2.3880   36.7180 C.2   374  VAL374      0.2592
     70  O         -5.5190    3.1790   35.7710 O.2   374  VAL374     -0.2718
     71  CB        -3.7640    2.3390   38.5100 C.3   374  VAL374      0.0266
     72  CG1       -2.8230    2.3630   37.3110 C.3   374  VAL374      0.0020
     73  CG2       -3.1960    3.1630   39.6350 C.3   374  VAL374      0.0020
     74  N         -5.7820    1.0880   36.5700 N.am  375  SER375     -0.1952
     75  CA        -6.0010    0.5150   35.2460 C.3   375  SER375      0.1924
     76  C         -7.1160    1.2170   34.4870 C.2   375  SER375      0.2314
     77  O         -7.1560    1.1350   33.2550 O.2   375  SER375     -0.2863
     78  CB        -6.3230   -0.9760   35.3610 C.3   375  SER375      0.2116
     79  OG        -5.2640   -1.6770   35.9810 O.3   375  SER375     -0.2180
     80  N         -7.5330    6.1500   32.3720 N.3   378  ARG378     -0.1245
     81  CA        -7.2510    6.4250   30.9760 C.3   378  ARG378      0.1563
     82  C         -8.5330    6.9490   30.3740 C.2   378  ARG378      0.2260
     83  O         -9.6080    6.8390   30.9710 O.2   378  ARG378     -0.2867
     84  CB        -6.7960    5.1710   30.2140 C.3   378  ARG378      0.0307
     85  CG        -5.7120    4.3320   30.8740 C.3   378  ARG378      0.0489
     86  CD        -4.3260    4.9170   30.6860 C.3   378  ARG378      0.2205
     87  NE        -3.3020    3.8850   30.8280 N.pl3 378  ARG378     -0.0865
     88  CZ        -2.0130    4.0640   30.5590 C.cat 378  ARG378      0.5346
     89  NH1       -1.5780    5.2430   30.1300 N.pl3 378  ARG378      0.1354
     90  NH2       -1.1580    3.0600   30.7180 N.pl3 378  ARG378      0.1354
@<TRIPOS>BOND
     1    89    88    1
     2    84    85    1
     3    84    81    1
     4    82    83    2
     5    82    81    1
     6    88    90    1
     7    88    87    2
     8    86    87    1
     9    86    85    1
    10    81    80    1
    11    77    76    2
    12    66    65    1
    13    54    51    1
    14    76    75    1
    15    65    64   ar
    16    65    63   ar
    17    53    52    2
    18    52    51    1
    19    75    78    1
    20    75    74    1
    21    37    38    1
    22    37    34    1
    23    64    62   ar
    24    78    79    1
    25    51    50    1
    26    35    36    2
    27    35    34    1
    28    70    69    2
    29    63    61   ar
    30    32    30    1
    31    12    11    1
    32    34    33    1
    33    50    41   am
    34    74    69   am
    35    62    60   ar
    36    69    68    1
    37    61    60   ar
    38    11    10   ar
    39    11     9   ar
    40    31    30    1
    41    30    29    1
    42    72    71    1
    43    10     8   ar
    44    60    59    1
    45    41    42    2
    46    41    40    1
    47     9     7   ar
    48    28    27    2
    49    39    40    1
    50    29    26    1
    51    68    71    1
    52    68    67    1
    53    26    27    1
    54    26    25    1
    55    71    73    1
    56    40    43    1
    57    46    48   ar
    58    46    44   ar
    59     8     6   ar
    60    43    44    1
    61    23    22    1
    62     7     6   ar
    63    59    56    1
    64    48    49   ar
    65    55    56    1
    66    21    20    2
    67    25    20   am
    68     6     5    1
    69    44    45   ar
    70    20    19    1
    71    56    57    1
    72    17    14    1
    73    22    19    1
    74    22    24    1
    75    16    15    2
    76    49    47   ar
    77     5     2    1
    78    19    18    1
    79    14    15    1
    80    14    13    1
    81    45    47   ar
    82    57    58    2
    83     4     3    2
    84     3     2    1
    85     2     1    1
