@<TRIPOS>MOLECULE
tmp/6f9tA04.pdb
 91 90 0 0 0
SMALL
GASTEIGER

@<TRIPOS>ATOM
      1  N        -10.9840   -7.8050    2.2570 N.3    27  ASN27      -0.1240
      2  CA       -10.7610   -8.3140    3.6020 C.3    27  ASN27       0.1653
      3  C        -11.8910   -9.2430    4.0250 C.2    27  ASN27       0.2266
      4  O        -11.6380  -10.3110    4.5850 O.2    27  ASN27      -0.2867
      5  CB       -10.6280   -7.1440    4.5700 C.3    27  ASN27       0.1155
      6  CG        -9.8340   -7.5070    5.8020 C.2    27  ASN27       0.2627
      7  OD1       -9.1100   -8.5020    5.8210 O.2    27  ASN27      -0.2716
      8  ND2       -9.9720   -6.7030    6.8450 N.am   27  ASN27      -0.0877
      9  N        -17.1390  -10.0290   14.8180 N.3   316  SER316     -0.1202
     10  CA       -16.6780   -8.7880   14.2280 C.3   316  SER316      0.2020
     11  C        -17.8110   -8.1330   13.4600 C.2   316  SER316      0.2619
     12  O        -18.7420   -8.7990   12.9870 O.2   316  SER316     -0.2717
     13  CB       -15.4750   -9.0100   13.3030 C.3   316  SER316      0.2103
     14  OG       -15.8460   -9.8860   12.2370 O.3   316  SER316     -0.2182
     15  N        -17.7220   -6.8090   13.3820 N.am  317  ALA317     -0.1965
     16  CA       -18.6830   -5.9400   12.7260 C.3   317  ALA317      0.1728
     17  C        -17.9430   -5.0830   11.7110 C.2   317  ALA317      0.2616
     18  O        -16.8840   -4.5300   12.0230 O.2   317  ALA317     -0.2715
     19  CB       -19.4040   -5.0260   13.7260 C.3   317  ALA317      0.0334
     20  N        -18.5450   -4.9120   10.5300 N.am  318  TRP318     -0.1974
     21  CA       -17.8660   -4.4110    9.3360 C.3   318  TRP318      0.1640
     22  C        -18.6590   -3.2870    8.6770 C.2   318  TRP318      0.2290
     23  O        -19.8350   -3.4620    8.3440 O.2   318  TRP318     -0.2864
     24  CB       -17.6670   -5.5410    8.3300 C.3   318  TRP318      0.0576
     25  CG       -16.8090   -6.6380    8.8150 C.ar  318  TRP318      0.0006
     26  CD1      -17.0890   -7.5340    9.8060 C.ar  318  TRP318      0.0946
     27  CD2      -15.5320   -6.9960    8.3000 C.ar  318  TRP318      0.0152
     28  NE1      -16.0450   -8.4110    9.9610 N.ar  318  TRP318     -0.2442
     29  CE2      -15.0720   -8.0970    9.0480 C.ar  318  TRP318      0.0810
     30  CE3      -14.7270   -6.4880    7.2750 C.ar  318  TRP318      0.0012
     31  CZ2      -13.8520   -8.7060    8.7950 C.ar  318  TRP318      0.0191
     32  CZ3      -13.5200   -7.0810    7.0340 C.ar  318  TRP318      0.0001
     33  CH2      -13.0890   -8.1830    7.7850 C.ar  318  TRP318      0.0015
     34  N        -16.2970    7.5110   12.7040 N.3   364  GLU364     -0.1245
     35  CA       -15.8280    6.7230   13.8330 C.3   364  GLU364      0.1567
     36  C        -16.6580    7.1260   15.0450 C.2   364  GLU364      0.2260
     37  O        -17.4610    8.0700   14.9990 O.2   364  GLU364     -0.2867
     38  CB       -14.3220    6.9170   14.1080 C.3   364  GLU364      0.0388
     39  CG       -13.4010    6.2400   13.0930 C.3   364  GLU364      0.1160
     40  CD       -13.5900    4.7250   13.0130 C.2   364  GLU364      0.3649
     41  OE1      -13.1760    4.1390   11.9890 O.co2 364  GLU364     -0.2457
     42  OE2      -14.1610    4.1230   13.9540 O.co2 364  GLU364     -0.2457
     43  N        -12.8770    5.6490   20.7940 N.3   368  PRO368     -0.2116
     44  CA       -13.0490    4.2090   20.5550 C.3   368  PRO368      0.1372
     45  C        -13.8270    3.5240   21.6490 C.2   368  PRO368      0.2244
     46  O        -14.5070    2.5190   21.3770 O.2   368  PRO368     -0.2868
     47  CB       -11.6110    3.6830   20.4600 C.3   368  PRO368      0.0268
     48  CG       -10.8590    4.8850   19.9140 C.3   368  PRO368      0.0207
     49  CD       -11.4760    6.0610   20.6070 C.3   368  PRO368      0.0892
     50  N        -17.5870    3.4550   20.8280 N.3   371  HIS371     -0.1226
     51  CA       -17.9920    2.4490   19.8510 C.3   371  HIS371      0.1752
     52  C        -18.2080    1.0980   20.5420 C.2   371  HIS371      0.2595
     53  O        -19.1490    0.3630   20.2370 O.2   371  HIS371     -0.2718
     54  CB       -16.9360    2.3280   18.7350 C.3   371  HIS371      0.0759
     55  CG       -17.5050    2.2510   17.3420 C.ar  371  HIS371      0.0818
     56  ND1      -18.3670    1.2550   16.9120 N.ar  371  HIS371     -0.2268
     57  CD2      -17.2850    3.0460   16.2700 C.ar  371  HIS371      0.1154
     58  CE1      -18.6730    1.4650   15.6390 C.ar  371  HIS371      0.1986
     59  NE2      -18.0350    2.5570   15.2340 N.ar  371  HIS371     -0.2212
     60  N        -17.3670    0.7880   21.5280 N.am  372  GLU372     -0.1979
     61  CA       -17.4520   -0.4860   22.2330 C.3   372  GLU372      0.1602
     62  C        -18.6160   -0.5350   23.2080 C.2   372  GLU372      0.2287
     63  O        -19.0620   -1.6350   23.5750 O.2   372  GLU372     -0.2864
     64  CB       -16.1590   -0.7340   23.0010 C.3   372  GLU372      0.0415
     65  CG       -14.9460   -0.7930   22.1210 C.3   372  GLU372      0.1163
     66  CD       -15.0630   -1.8130   21.0230 C.2   372  GLU372      0.3649
     67  OE1      -15.7920   -2.8020   21.2320 O.co2 372  GLU372     -0.2457
     68  OE2      -14.3900   -1.6640   19.9730 O.co2 372  GLU372     -0.2457
     69  N         -9.6880    0.9790   24.9430 N.3   482  ARG482     -0.1231
     70  CA       -11.0930    1.2010   24.5750 C.3   482  ARG482      0.1694
     71  C        -12.0500    0.3450   25.4080 C.2   482  ARG482      0.2592
     72  O        -13.2000    0.7360   25.6430 O.2   482  ARG482     -0.2718
     73  CB       -11.3230    0.8950   23.0910 C.3   482  ARG482      0.0321
     74  CG       -10.9030   -0.5200   22.6590 C.3   482  ARG482      0.0489
     75  CD       -10.9080   -0.7030   21.1570 C.3   482  ARG482      0.2205
     76  NE        -9.9990    0.2610   20.5430 N.pl3 482  ARG482     -0.0865
     77  CZ        -9.7550    0.3720   19.2440 C.cat 482  ARG482      0.5346
     78  NH1      -10.3200   -0.4670   18.3880 N.pl3 482  ARG482      0.1354
     79  NH2       -8.9320    1.3520   18.7970 N.pl3 482  ARG482      0.1354
     80  N        -11.6290   -0.8650   25.7630 N.am  483  TYR483     -0.1976
     81  CA       -12.5030   -1.7650   26.4970 C.3   483  TYR483      0.1639
     82  C        -12.5970   -1.4010   27.9760 C.2   483  TYR483      0.2290
     83  O        -13.6410   -1.6430   28.6010 O.2   483  TYR483     -0.2864
     84  CB       -12.0240   -3.1980   26.2960 C.3   483  TYR483      0.0560
     85  CG       -12.0430   -3.6420   24.8630 C.ar  483  TYR483     -0.0198
     86  CD1      -13.2480   -3.7100   24.1530 C.ar  483  TYR483     -0.0009
     87  CD2      -10.8800   -4.0460   24.2050 C.ar  483  TYR483     -0.0009
     88  CE1      -13.2790   -4.1400   22.8280 C.ar  483  TYR483      0.0417
     89  CE2      -10.9020   -4.4800   22.8860 C.ar  483  TYR483      0.0417
     90  CZ       -12.1010   -4.5250   22.1940 C.ar  483  TYR483      0.1957
     91  OH       -12.1150   -4.9650   20.8630 O.3   483  TYR483     -0.2866
@<TRIPOS>BOND
     1     1     2    1
     2     2     3    1
     3     2     5    1
     4     3     4    2
     5     5     6    1
     6     6     7    2
     7     6     8   am
     8    32    30   ar
     9    32    33   ar
    10    30    27   ar
    11    33    31   ar
    12    27    25   ar
    13    27    29   ar
    14    24    25    1
    15    24    21    1
    16    23    22    2
    17    22    21    1
    18    31    29   ar
    19    25    26   ar
    20    29    28   ar
    21    21    20    1
    22    26    28   ar
    23    20    17   am
    24    17    18    2
    25    17    16    1
    26    41    40   ar
    27    14    13    1
    28    34    35    1
    29    16    15    1
    30    16    19    1
    31    12    11    2
    32    40    39    1
    33    40    42   ar
    34    39    38    1
    35    13    10    1
    36    15    11   am
    37    11    10    1
    38    35    38    1
    39    35    36    1
    40    10     9    1
    41    37    36    2
    42    59    58   ar
    43    59    57   ar
    44    58    56   ar
    45    57    55   ar
    46    56    55   ar
    47    55    54    1
    48    78    77    1
    49    54    51    1
    50    79    77    1
    51    77    76    2
    52    51    52    1
    53    51    50    1
    54    48    47    1
    55    48    49    1
    56    68    66   ar
    57    53    52    2
    58    47    44    1
    59    52    60   am
    60    76    75    1
    61    44    43    1
    62    44    45    1
    63    49    43    1
    64    91    90    1
    65    66    67   ar
    66    66    65    1
    67    75    74    1
    68    46    45    2
    69    60    61    1
    70    65    64    1
    71    90    88   ar
    72    90    89   ar
    73    61    64    1
    74    61    62    1
    75    74    73    1
    76    88    86   ar
    77    89    87   ar
    78    73    70    1
    79    62    63    2
    80    86    85   ar
    81    87    85   ar
    82    70    69    1
    83    70    71    1
    84    85    84    1
    85    71    72    2
    86    71    80   am
    87    80    81    1
    88    84    81    1
    89    81    82    1
    90    82    83    2
