@<TRIPOS>MOLECULE
tmp/6f9tA05.pdb
 81 77 0 0 0
SMALL
GASTEIGER

@<TRIPOS>ATOM
      1  N         -0.3650    6.9980    9.2100 N.3    84  GLU84      -0.1231
      2  CA        -0.1340    5.7400    9.9020 C.3    84  GLU84       0.1699
      3  C          0.9790    4.9670    9.1980 C.2    84  GLU84       0.2592
      4  O          2.0080    5.5610    8.8570 O.2    84  GLU84      -0.2718
      5  CB        -1.4510    4.9550   10.0020 C.3    84  GLU84       0.0402
      6  CG        -2.5850    5.7500   10.7380 C.3    84  GLU84       0.1161
      7  CD        -2.4210    5.8150   12.2590 C.2    84  GLU84       0.3649
      8  OE1       -3.1840    6.5590   12.9160 O.co2  84  GLU84      -0.2457
      9  OE2       -1.5400    5.1220   12.8010 O.co2  84  GLU84      -0.2457
     10  N          0.8100    3.6570    8.9580 N.am   85  ARG85      -0.1980
     11  CA         1.9140    2.8570    8.4190 C.3    85  ARG85       0.1597
     12  C          2.3630    3.2930    7.0210 C.2    85  ARG85       0.2287
     13  O          3.4810    2.9480    6.6140 O.2    85  ARG85      -0.2864
     14  CB         1.5240    1.3790    8.3490 C.3    85  ARG85       0.0334
     15  CG         0.4320    1.1150    7.3120 C.3    85  ARG85       0.0492
     16  CD        -0.0030   -0.3450    7.2760 C.3    85  ARG85       0.2205
     17  NE        -0.8340   -0.6400    8.4290 N.pl3  85  ARG85      -0.0865
     18  CZ        -1.3610   -1.8320    8.6740 C.cat  85  ARG85       0.5346
     19  NH1       -1.1300   -2.8460    7.8450 N.pl3  85  ARG85       0.1354
     20  NH2       -2.1160   -2.0090    9.7470 N.pl3  85  ARG85       0.1354
     21  N          6.7810   -4.4880    7.7010 N.3    96  TYR96      -0.1241
     22  CA         5.7790   -4.3160    8.7580 C.3    96  TYR96       0.1605
     23  C          4.5180   -5.1070    8.4430 C.2    96  TYR96       0.2264
     24  O          3.9890   -5.8310    9.3000 O.2    96  TYR96      -0.2867
     25  CB         5.4320   -2.8290    8.9380 C.3    96  TYR96       0.0534
     26  CG         4.3780   -2.5390    9.9990 C.ar   96  TYR96      -0.0201
     27  CD1        4.6420   -2.8050   11.3260 C.ar   96  TYR96      -0.0009
     28  CD2        3.1490   -1.9910    9.6720 C.ar   96  TYR96      -0.0009
     29  CE1        3.7050   -2.5640   12.2960 C.ar   96  TYR96       0.0417
     30  CE2        2.2150   -1.7210   10.6580 C.ar   96  TYR96       0.0417
     31  CZ         2.5140   -2.0080   11.9660 C.ar   96  TYR96       0.1957
     32  OH         1.5970   -1.7680   12.9720 O.3    96  TYR96      -0.2866
     33  N          6.3740   -0.1470   14.1590 N.3   165  ILE165     -0.1245
     34  CA         5.1890    0.6320   14.4790 C.3   165  ILE165      0.1561
     35  C          5.5960    1.9440   15.1540 C.2   165  ILE165      0.2260
     36  O          4.9750    2.9870   14.9270 O.2   165  ILE165     -0.2867
     37  CB         4.1920   -0.1970   15.3290 C.3   165  ILE165      0.0252
     38  CG1        2.8320    0.4910   15.3160 C.3   165  ILE165      0.0019
     39  CG2        4.6860   -0.3950   16.7750 C.3   165  ILE165      0.0019
     40  CD1        1.7420   -0.2240   16.1700 C.3   165  ILE165      0.0001
     41  N          6.7750    4.3090   12.3270 N.3   168  ALA168     -0.1231
     42  CA         5.6420    4.9290   11.6520 C.3   168  ALA168      0.1694
     43  C          5.0400    6.0450   12.4970 C.2   168  ALA168      0.2591
     44  O          4.6780    7.1060   11.9740 O.2   168  ALA168     -0.2718
     45  CB         4.5940    3.8720   11.3310 C.3   168  ALA168      0.0304
     46  N          4.9370    5.8300   13.8110 N.am  169  ALA169     -0.1980
     47  CA         4.3930    6.8570   14.6900 C.3   169  ALA169      0.1597
     48  C          5.2500    8.1090   14.6650 C.2   169  ALA169      0.2287
     49  O          4.7250    9.2270   14.6100 O.2   169  ALA169     -0.2864
     50  CB         4.2710    6.3020   16.1180 C.3   169  ALA169      0.0319
     51  N          4.4000    4.7020   19.2580 N.3   177  ALA177     -0.1245
     52  CA         3.0820    4.1670   18.8990 C.3   177  ALA177      0.1562
     53  C          2.0600    4.3220   20.0130 C.2   177  ALA177      0.2260
     54  O          0.8730    4.5380   19.7300 O.2   177  ALA177     -0.2867
     55  CB         3.2000    2.6900   18.5040 C.3   177  ALA177      0.0290
     56  N          0.6690    7.7740   19.8320 N.3   180  SER180     -0.1202
     57  CA        -0.2730    7.8200   18.7220 C.3   180  SER180      0.2020
     58  C         -1.6170    7.2000   19.1080 C.2   180  SER180      0.2618
     59  O         -2.6780    7.7530   18.7950 O.2   180  SER180     -0.2717
     60  CB         0.3390    7.1120   17.5120 C.3   180  SER180      0.2103
     61  OG        -0.5790    6.9910   16.4360 O.3   180  SER180     -0.2182
     62  N         -1.5910    6.0630   19.8120 N.am  181  TRP181     -0.1975
     63  CA        -2.8400    5.3860   20.1760 C.3   181  TRP181      0.1640
     64  C         -3.6380    6.2160   21.1770 C.2   181  TRP181      0.2290
     65  O         -4.8640    6.3980   21.0390 O.2   181  TRP181     -0.2864
     66  CB        -2.5290    3.9920   20.7380 C.3   181  TRP181      0.0576
     67  CG        -2.0860    2.9630   19.7470 C.ar  181  TRP181      0.0006
     68  CD1       -1.7670    3.1380   18.4340 C.ar  181  TRP181      0.0946
     69  CD2       -1.9010    1.5620   20.0170 C.ar  181  TRP181      0.0152
     70  NE1       -1.4010    1.9310   17.8700 N.ar  181  TRP181     -0.2442
     71  CE2       -1.4780    0.9540   18.8260 C.ar  181  TRP181      0.0810
     72  CE3       -2.0600    0.7790   21.1500 C.ar  181  TRP181      0.0012
     73  CZ2       -1.2150   -0.4070   18.7400 C.ar  181  TRP181      0.0191
     74  CZ3       -1.8020   -0.5580   21.0700 C.ar  181  TRP181      0.0001
     75  CH2       -1.3760   -1.1420   19.8690 C.ar  181  TRP181      0.0015
     76  N         -2.2780   -6.3630   17.0450 N.3   477  SER477     -0.1217
     77  CA        -2.0280   -4.9340   17.1530 C.3   477  SER477      0.1889
     78  C         -3.3350   -4.1390   17.1740 C.2   477  SER477      0.2288
     79  O         -3.5100   -3.1650   16.4390 O.2   477  SER477     -0.2866
     80  CB        -1.1090   -4.4720   16.0290 C.3   477  SER477      0.2089
     81  OG        -0.6020   -3.1820   16.2990 O.3   477  SER477     -0.2183
@<TRIPOS>BOND
     1    13    12    2
     2    12    11    1
     3    16    15    1
     4    16    17    1
     5    15    14    1
     6    21    22    1
     7    19    18    1
     8    14    11    1
     9    11    10    1
    10    17    18    2
    11    23    22    1
    12    23    24    2
    13    18    20    1
    14    22    25    1
    15     4     3    2
    16    25    26    1
    17    10     3   am
    18     3     2    1
    19     1     2    1
    20    28    26   ar
    21    28    30   ar
    22     2     5    1
    23    26    27   ar
    24     5     6    1
    25    30    31   ar
    26     6     7    1
    27    27    29   ar
    28    45    42    1
    29    42    41    1
    30    42    43    1
    31    31    29   ar
    32    31    32    1
    33    44    43    2
    34     7     9   ar
    35     7     8   ar
    36    43    46   am
    37    46    47    1
    38    33    34    1
    39    34    35    1
    40    34    37    1
    41    49    48    2
    42    48    47    1
    43    47    50    1
    44    36    35    2
    45    38    37    1
    46    38    40    1
    47    37    39    1
    48    80    81    1
    49    80    77    1
    50    61    60    1
    51    79    78    2
    52    76    77    1
    53    77    78    1
    54    60    57    1
    55    70    68   ar
    56    70    71   ar
    57    68    67   ar
    58    55    52    1
    59    57    58    1
    60    57    56    1
    61    73    71   ar
    62    73    75   ar
    63    59    58    2
    64    71    69   ar
    65    52    51    1
    66    52    53    1
    67    58    62   am
    68    54    53    2
    69    67    69   ar
    70    67    66    1
    71    62    63    1
    72    75    74   ar
    73    69    72   ar
    74    63    66    1
    75    63    64    1
    76    65    64    2
    77    74    72   ar
