@<TRIPOS>MOLECULE
tmp/6f9tA06.pdb
 101 101 0 0 0
SMALL
GASTEIGER

@<TRIPOS>ATOM
      1  N         -0.6050  -16.9450   15.6600 N.3   107  TYR107     -0.1241
      2  CA        -1.5890  -17.0720   16.7310 C.3   107  TYR107      0.1605
      3  C         -2.7570  -17.9500   16.2960 C.2   107  TYR107      0.2264
      4  O         -3.2270  -18.7930   17.0630 O.2   107  TYR107     -0.2867
      5  CB        -2.0740  -15.6820   17.1320 C.3   107  TYR107      0.0534
      6  CG        -3.0460  -15.6480   18.2900 C.ar  107  TYR107     -0.0201
      7  CD1       -4.4320  -15.7870   18.0920 C.ar  107  TYR107     -0.0009
      8  CD2       -2.5860  -15.4440   19.5900 C.ar  107  TYR107     -0.0009
      9  CE1       -5.3120  -15.7340   19.1600 C.ar  107  TYR107      0.0417
     10  CE2       -3.4640  -15.3890   20.6440 C.ar  107  TYR107      0.0417
     11  CZ        -4.8130  -15.5400   20.4370 C.ar  107  TYR107      0.1957
     12  OH        -5.7180  -15.4860   21.5020 O.3   107  TYR107     -0.2866
     13  N         -7.4720  -23.1830   20.1890 N.3   122  LEU122     -0.1231
     14  CA        -7.8760  -22.2940   21.2750 C.3   122  LEU122      0.1693
     15  C         -9.3860  -22.2990   21.4160 C.2   122  LEU122      0.2591
     16  O         -9.9260  -22.4660   22.5180 O.2   122  LEU122     -0.2718
     17  CB        -7.3660  -20.8680   21.0350 C.3   122  LEU122      0.0284
     18  CG        -7.7950  -19.8100   22.0810 C.3   122  LEU122      0.0019
     19  CD1       -7.2610  -20.1470   23.4460 C.3   122  LEU122      0.0001
     20  CD2       -7.3930  -18.4070   21.6280 C.3   122  LEU122      0.0001
     21  N        -10.0840  -22.1160   20.2960 N.am  123  GLU123     -0.1979
     22  CA       -11.5180  -21.9820   20.2660 C.3   123  GLU123      0.1602
     23  C        -12.1130  -23.1010   19.4200 C.2   123  GLU123      0.2287
     24  O        -11.6930  -23.2910   18.2710 O.2   123  GLU123     -0.2864
     25  CB       -11.9350  -20.6120   19.6960 C.3   123  GLU123      0.0415
     26  CG       -11.5460  -19.4460   20.5940 C.3   123  GLU123      0.1163
     27  CD       -10.8850  -18.3050   19.8270 C.2   123  GLU123      0.3649
     28  OE1      -11.2800  -17.1380   20.0400 O.co2 123  GLU123     -0.2457
     29  OE2       -9.9750  -18.5800   19.0070 O.co2 123  GLU123     -0.2457
     30  N         -7.3900  -15.9760   29.9640 N.3   240  TRP240     -0.1241
     31  CA        -6.6380  -14.7910   30.3750 C.3   240  TRP240      0.1605
     32  C         -7.0570  -14.2850   31.7530 C.2   240  TRP240      0.2264
     33  O         -6.5370  -13.2730   32.2060 O.2   240  TRP240     -0.2867
     34  CB        -6.7600  -13.6710   29.3100 C.3   240  TRP240      0.0550
     35  CG        -6.3690  -14.2470   27.9940 C.ar  240  TRP240      0.0003
     36  CD1       -5.0950  -14.4250   27.5220 C.ar  240  TRP240      0.0946
     37  CD2       -7.2470  -14.8360   27.0330 C.ar  240  TRP240      0.0152
     38  NE1       -5.1320  -15.0730   26.3140 N.ar  240  TRP240     -0.2442
     39  CE2       -6.4330  -15.3580   26.0020 C.ar  240  TRP240      0.0810
     40  CE3       -8.6490  -14.9910   26.9420 C.ar  240  TRP240      0.0012
     41  CZ2       -6.9670  -16.0060   24.8900 C.ar  240  TRP240      0.0191
     42  CZ3       -9.1690  -15.6410   25.8350 C.ar  240  TRP240      0.0001
     43  CH2       -8.3250  -16.1380   24.8270 C.ar  240  TRP240      0.0015
     44  N        -12.4330  -16.9740    9.4720 N.3   312  VAL312     -0.1245
     45  CA       -12.0420  -16.3750   10.7390 C.3   312  VAL312      0.1561
     46  C        -13.2950  -16.2610   11.5950 C.2   312  VAL312      0.2260
     47  O        -14.2280  -15.5310   11.2510 O.2   312  VAL312     -0.2867
     48  CB       -11.4060  -14.9970   10.5240 C.3   312  VAL312      0.0252
     49  CG1      -11.0240  -14.3690   11.8540 C.3   312  VAL312      0.0019
     50  CG2      -10.1790  -15.1140    9.6330 C.3   312  VAL312      0.0019
     51  N        -13.8210  -15.2160   14.8390 N.3   314  HIS314     -0.1226
     52  CA       -14.0170  -14.2130   15.8820 C.3   314  HIS314      0.1752
     53  C        -15.1270  -13.2380   15.5130 C.2   314  HIS314      0.2596
     54  O        -15.2200  -12.7770   14.3710 O.2   314  HIS314     -0.2718
     55  CB       -12.7300  -13.4370   16.1280 C.3   314  HIS314      0.0759
     56  CG       -11.6210  -14.2650   16.6980 C.ar  314  HIS314      0.0818
     57  ND1      -10.3490  -14.2710   16.1650 N.ar  314  HIS314     -0.2268
     58  CD2      -11.5870  -15.0980   17.7660 C.ar  314  HIS314      0.1154
     59  CE1       -9.5820  -15.0800   16.8750 C.ar  314  HIS314      0.1986
     60  NE2      -10.3060  -15.5910   17.8550 N.ar  314  HIS314     -0.2212
     61  N        -15.9440  -12.8940   16.5020 N.am  315  ALA315     -0.1966
     62  CA       -17.0290  -11.9540   16.2780 C.3   315  ALA315      0.1728
     63  C        -16.4720  -10.6140   15.8050 C.2   315  ALA315      0.2616
     64  O        -15.4810  -10.1080   16.3330 O.2   315  ALA315     -0.2715
     65  CB       -17.8510  -11.7750   17.5570 C.3   315  ALA315      0.0334
     66  N        -17.1390  -10.0290   14.8180 N.am  316  SER316     -0.1950
     67  CA       -16.6780   -8.7880   14.2280 C.3   316  SER316      0.1924
     68  C        -17.8110   -8.1330   13.4600 C.2   316  SER316      0.2314
     69  O        -18.7420   -8.7990   12.9870 O.2   316  SER316     -0.2863
     70  CB       -15.4750   -9.0100   13.3030 C.3   316  SER316      0.2116
     71  OG       -15.8460   -9.8860   12.2370 O.3   316  SER316     -0.2180
     72  N         -2.4060  -13.5290   23.9460 N.3   471  LYS471     -0.1231
     73  CA        -3.6630  -12.7760   23.9610 C.3   471  LYS471      0.1693
     74  C         -3.8370  -12.1250   22.5880 C.2   471  LYS471      0.2592
     75  O         -2.9720  -11.3600   22.1630 O.2   471  LYS471     -0.2718
     76  CB        -3.6360  -11.7460   25.0880 C.3   471  LYS471      0.0285
     77  CG        -4.8060  -10.7990   25.1330 C.3   471  LYS471      0.0035
     78  CD        -6.1310  -11.5020   25.4180 C.3   471  LYS471      0.0206
     79  CE        -7.3390  -10.5970   25.1720 C.3   471  LYS471      0.1093
     80  NZ        -8.6450  -11.3180   25.1940 N.3   471  LYS471     -0.1314
     81  N         -4.9770  -12.3970   21.9250 N.am  472  PHE472     -0.1962
     82  CA        -5.2090  -12.0350   20.5150 C.3   472  PHE472      0.1771
     83  C         -4.7510  -10.6270   20.1300 C.2   472  PHE472      0.2619
     84  O         -4.0970  -10.4360   19.1100 O.2   472  PHE472     -0.2715
     85  CB        -6.7050  -12.2030   20.1870 C.3   472  PHE472      0.0574
     86  CG        -7.0990  -11.7210   18.8150 C.ar  472  PHE472     -0.0200
     87  CD1       -7.5070  -10.4310   18.6080 C.ar  472  PHE472     -0.0042
     88  CD2       -7.0860  -12.5800   17.7470 C.ar  472  PHE472     -0.0042
     89  CE1       -7.8690   -9.9820   17.3300 C.ar  472  PHE472     -0.0003
     90  CE2       -7.4490  -12.1400   16.4670 C.ar  472  PHE472     -0.0003
     91  CZ        -7.8630  -10.8400   16.2770 C.ar  472  PHE472     -0.0000
     92  N         -5.1280   -9.6270   20.9190 N.am  473  HIS473     -0.1973
     93  CA        -4.9760   -8.2410   20.5190 C.3   473  HIS473      0.1656
     94  C         -3.5230   -7.8010   20.4810 C.2   473  HIS473      0.2291
     95  O         -3.2370   -6.7750   19.8740 O.2   473  HIS473     -0.2864
     96  CB        -5.7920   -7.3640   21.4580 C.3   473  HIS473      0.0771
     97  CG        -7.2310   -7.7700   21.4950 C.ar  473  HIS473      0.0820
     98  ND1       -7.6370   -8.9700   22.0390 N.ar  473  HIS473     -0.2267
     99  CD2       -8.3350   -7.1870   20.9750 C.ar  473  HIS473      0.1154
    100  CE1       -8.9450   -9.0900   21.8770 C.ar  473  HIS473      0.1986
    101  NE2       -9.3900   -8.0230   21.2410 N.ar  473  HIS473     -0.2212
@<TRIPOS>BOND
     1    44    45    1
     2    50    48    1
     3    48    45    1
     4    48    49    1
     5    45    46    1
     6    47    46    2
     7    71    70    1
     8    69    68    2
     9    70    67    1
    10    68    67    1
    11    67    66    1
    12    54    53    2
    13    66    63   am
    14    51    52    1
    15    53    52    1
    16    53    61   am
    17     1     2    1
    18    63    62    1
    19    63    64    2
    20    52    55    1
    21    55    56    1
    22    57    56   ar
    23    57    59   ar
    24    91    90   ar
    25    91    89   ar
    26    62    61    1
    27    62    65    1
    28     3     2    1
    29     3     4    2
    30    90    88   ar
    31    56    58   ar
    32     2     5    1
    33    59    60   ar
    34     5     6    1
    35    89    87   ar
    36    88    86   ar
    37    58    60   ar
    38     7     6   ar
    39     7     9   ar
    40    24    23    2
    41     6     8   ar
    42    87    86   ar
    43    86    85    1
    44    29    27   ar
    45    84    83    2
    46     9    11   ar
    47    23    22    1
    48     8    10   ar
    49    25    22    1
    50    25    26    1
    51    27    28   ar
    52    27    26    1
    53    95    94    2
    54    83    82    1
    55    83    92   am
    56    85    82    1
    57    13    14    1
    58    22    21    1
    59    21    15   am
    60    11    10   ar
    61    11    12    1
    62    94    93    1
    63    82    81    1
    64    93    92    1
    65    93    96    1
    66    99   101   ar
    67    99    97   ar
    68    17    14    1
    69    17    18    1
    70   101   100   ar
    71    14    15    1
    72    15    16    2
    73    96    97    1
    74    97    98   ar
    75    20    18    1
    76   100    98   ar
    77    81    74   am
    78    18    19    1
    79    75    74    2
    80    74    73    1
    81    72    73    1
    82    73    76    1
    83    43    41   ar
    84    43    42   ar
    85    41    39   ar
    86    76    77    1
    87    77    78    1
    88    79    80    1
    89    79    78    1
    90    42    40   ar
    91    39    38   ar
    92    39    37   ar
    93    38    36   ar
    94    40    37   ar
    95    37    35   ar
    96    36    35   ar
    97    35    34    1
    98    34    31    1
    99    30    31    1
   100    31    32    1
   101    32    33    2
