@<TRIPOS>MOLECULE
tmp/6f9uA04.pdb
 153 142 0 0 0
SMALL
GASTEIGER

@<TRIPOS>ATOM
      1  N        -16.6560  -15.1050   35.0270 N.3   245  SER245     -0.1202
      2  CA       -18.0160  -15.5850   35.2860 C.3   245  SER245      0.2020
      3  C        -18.1820  -17.0870   35.0380 C.2   245  SER245      0.2618
      4  O        -19.1560  -17.6740   35.5140 O.2   245  SER245     -0.2717
      5  CB       -19.0220  -14.8110   34.4430 C.3   245  SER245      0.2103
      6  OG       -18.8270  -15.0800   33.0690 O.3   245  SER245     -0.2182
      7  N        -17.2640  -17.7360   34.3240 N.am  246  ASN246     -0.1974
      8  CA       -17.4250  -19.1670   34.1360 C.3   246  ASN246      0.1688
      9  C        -17.1840  -19.9750   35.4070 C.2   246  ASN246      0.2292
     10  O        -17.5540  -21.1520   35.4270 O.2   246  ASN246     -0.2864
     11  CB       -16.5170  -19.6780   33.0140 C.3   246  ASN246      0.1181
     12  CG       -16.9930  -19.2270   31.6580 C.2   246  ASN246      0.2629
     13  OD1      -18.1940  -19.1930   31.3990 O.2   246  ASN246     -0.2716
     14  ND2      -16.0640  -18.8560   30.7860 N.am  246  ASN246     -0.0877
     15  N        -18.6960  -19.0840   38.1920 N.3   248  TYR248     -0.1227
     16  CA       -19.8510  -18.7700   39.0220 C.3   248  TYR248      0.1736
     17  C        -20.2610  -19.9510   39.9090 C.2   248  TYR248      0.2595
     18  O        -20.6400  -19.7570   41.0680 O.2   248  TYR248     -0.2718
     19  CB       -21.0160  -18.3530   38.1260 C.3   248  TYR248      0.0548
     20  CG       -22.2760  -18.0830   38.8850 C.ar  248  TYR248     -0.0200
     21  CD1      -22.4560  -16.8940   39.5720 C.ar  248  TYR248     -0.0009
     22  CD2      -23.3040  -19.0290   38.9220 C.ar  248  TYR248     -0.0009
     23  CE1      -23.6260  -16.6480   40.2880 C.ar  248  TYR248      0.0417
     24  CE2      -24.4710  -18.7830   39.6310 C.ar  248  TYR248      0.0417
     25  CZ       -24.6190  -17.5920   40.3030 C.ar  248  TYR248      0.1957
     26  OH       -25.7720  -17.3340   41.0110 O.3   248  TYR248     -0.2866
     27  N        -20.1740  -21.1780   39.3820 N.am  249  ASP249     -0.1974
     28  CA       -20.5990  -22.3750   40.1130 C.3   249  ASP249      0.1709
     29  C        -19.8060  -22.5890   41.3960 C.2   249  ASP249      0.2293
     30  O        -20.3430  -23.1320   42.3600 O.2   249  ASP249     -0.2864
     31  CB       -20.4630  -23.6220   39.2300 C.3   249  ASP249      0.1436
     32  CG       -19.0110  -23.8930   38.8030 C.2   249  ASP249      0.3671
     33  OD1      -18.3480  -22.9550   38.3080 O.co2 249  ASP249     -0.2456
     34  OD2      -18.5200  -25.0360   38.9590 O.co2 249  ASP249     -0.2456
     35  N        -29.8200  -21.1320   39.6270 N.3   259  SER259     -0.1202
     36  CA       -30.1950  -20.5940   38.3280 C.3   259  SER259      0.2020
     37  C        -30.2480  -21.7180   37.3050 C.2   259  SER259      0.2618
     38  O        -29.4360  -22.6480   37.3480 O.2   259  SER259     -0.2717
     39  CB       -29.1990  -19.5270   37.8480 C.3   259  SER259      0.2103
     40  OG       -29.1390  -18.4190   38.7360 O.3   259  SER259     -0.2182
     41  N        -31.1840  -21.6000   36.3670 N.am  260  MET260     -0.1979
     42  CA       -31.2840  -22.5410   35.2620 C.3   260  MET260      0.1605
     43  C        -29.9760  -22.5950   34.4790 C.2   260  MET260      0.2287
     44  O        -29.3000  -21.5780   34.2930 O.2   260  MET260     -0.2864
     45  CB       -32.4340  -22.1180   34.3370 C.3   260  MET260      0.0413
     46  CG       -33.2640  -23.2650   33.8030 C.3   260  MET260      0.0598
     47  SD       -34.7960  -22.7250   33.0320 S.3   260  MET260     -0.1393
     48  CE       -34.1520  -21.9670   31.5690 C.3   260  MET260      0.0692
     49  N        -28.1690  -22.1200   31.5750 N.3   262  THR262     -0.1218
     50  CA       -28.5370  -21.3090   30.4220 C.3   262  THR262      0.1862
     51  C        -28.0740  -21.9400   29.1160 C.2   262  THR262      0.2287
     52  O        -28.7360  -21.7700   28.0940 O.2   262  THR262     -0.2866
     53  CB       -27.9470  -19.9120   30.5430 C.3   262  THR262      0.1770
     54  OG1      -26.5390  -20.0330   30.7930 O.3   262  THR262     -0.2211
     55  CG2      -28.6190  -19.1230   31.6910 C.3   262  THR262      0.0375
     56  N        -24.7400  -18.3650   26.6040 N.3   336  LEU336     -0.1231
     57  CA       -25.0580  -17.0130   27.0410 C.3   336  LEU336      0.1693
     58  C        -23.8950  -16.0510   26.7930 C.2   336  LEU336      0.2591
     59  O        -24.1060  -14.9070   26.3740 O.2   336  LEU336     -0.2718
     60  CB       -25.4370  -17.0510   28.5170 C.3   336  LEU336      0.0284
     61  CG       -25.8810  -15.7160   29.1170 C.3   336  LEU336      0.0019
     62  CD1      -27.0090  -15.1270   28.3240 C.3   336  LEU336      0.0001
     63  CD2      -26.2990  -15.9170   30.5670 C.3   336  LEU336      0.0001
     64  N        -22.6590  -16.4960   27.0440 N.am  337  GLU337     -0.1979
     65  CA       -21.4970  -15.6410   26.8030 C.3   337  GLU337      0.1602
     66  C        -21.4910  -15.1150   25.3690 C.2   337  GLU337      0.2287
     67  O        -21.2970  -13.9160   25.1250 O.2   337  GLU337     -0.2864
     68  CB       -20.2060  -16.4160   27.1090 C.3   337  GLU337      0.0415
     69  CG       -18.9440  -15.5660   26.9640 C.3   337  GLU337      0.1163
     70  CD       -17.7700  -16.1010   27.7660 C.2   337  GLU337      0.3649
     71  OE1      -17.7870  -17.3010   28.1260 O.co2 337  GLU337     -0.2457
     72  OE2      -16.8310  -15.3140   28.0370 O.co2 337  GLU337     -0.2457
     73  N        -24.1050  -12.3830   24.5880 N.3   340  VAL340     -0.1245
     74  CA       -23.6100  -11.0630   24.9660 C.3   340  VAL340      0.1561
     75  C        -22.6340  -10.5510   23.9110 C.2   340  VAL340      0.2260
     76  O        -22.7230   -9.4030   23.4620 O.2   340  VAL340     -0.2867
     77  CB       -22.9720  -11.1250   26.3660 C.3   340  VAL340      0.0252
     78  CG1      -22.2880   -9.8070   26.7280 C.3   340  VAL340      0.0019
     79  CG2      -24.0290  -11.4900   27.4050 C.3   340  VAL340      0.0019
     80  N        -29.0430   -8.8320   29.9940 N.3   383  SER383     -0.1217
     81  CA       -28.4800   -9.7180   31.0070 C.3   383  SER383      0.1889
     82  C        -29.2950   -9.7760   32.2830 C.2   383  SER383      0.2288
     83  O        -29.0230  -10.6450   33.1180 O.2   383  SER383     -0.2866
     84  CB       -27.0550   -9.2670   31.3620 C.3   383  SER383      0.2089
     85  OG       -26.1570   -9.5030   30.2950 O.3   383  SER383     -0.2183
     86  N        -32.0300  -10.6900   35.0230 N.3   385  PRO385     -0.2116
     87  CA       -32.8210  -11.9230   35.1560 C.3   385  PRO385      0.1372
     88  C        -34.1960  -11.8080   34.5260 C.2   385  PRO385      0.2244
     89  O        -34.6670  -12.7720   33.9090 O.2   385  PRO385     -0.2868
     90  CB       -32.8670  -12.1330   36.6800 C.3   385  PRO385      0.0268
     91  CG       -31.5330  -11.5560   37.1510 C.3   385  PRO385      0.0207
     92  CD       -31.3640  -10.3240   36.2890 C.3   385  PRO385      0.0892
     93  N        -33.7380  -12.2030   30.7370 N.3   388  LEU388     -0.1245
     94  CA       -33.3820  -13.5780   30.4130 C.3   388  LEU388      0.1561
     95  C        -34.5650  -14.5100   30.6410 C.2   388  LEU388      0.2260
     96  O        -34.7710  -15.4640   29.8850 O.2   388  LEU388     -0.2867
     97  CB       -32.1750  -14.0200   31.2410 C.3   388  LEU388      0.0270
     98  CG       -30.8890  -13.3160   30.8000 C.3   388  LEU388      0.0019
     99  CD1      -29.7540  -13.6900   31.7330 C.3   388  LEU388      0.0001
    100  CD2      -30.5240  -13.6620   29.3200 C.3   388  LEU388      0.0001
    101  N        -33.9170  -18.2740   31.9120 N.3   394  LEU394     -0.1245
    102  CA       -33.9150  -18.4190   33.3550 C.3   394  LEU394      0.1561
    103  C        -35.3390  -18.7030   33.8030 C.2   394  LEU394      0.2260
    104  O        -36.3020  -18.4330   33.0850 O.2   394  LEU394     -0.2867
    105  CB       -33.4010  -17.1570   34.0800 C.3   394  LEU394      0.0270
    106  CG       -31.9230  -16.7710   33.9240 C.3   394  LEU394      0.0019
    107  CD1      -31.6490  -15.5020   34.7210 C.3   394  LEU394      0.0001
    108  CD2      -30.9580  -17.9070   34.3490 C.3   394  LEU394      0.0001
    109  N        -36.7750  -15.2290   38.9320 N.3   397  GLU397     -0.1245
    110  CA       -35.8410  -15.0010   40.0310 C.3   397  GLU397      0.1567
    111  C        -36.1500  -13.7230   40.8030 C.2   397  GLU397      0.2260
    112  O        -35.3750  -13.3410   41.6880 O.2   397  GLU397     -0.2867
    113  CB       -34.3970  -14.9550   39.5070 C.3   397  GLU397      0.0388
    114  CG       -33.9170  -16.2500   38.8580 C.3   397  GLU397      0.1160
    115  CD       -32.4210  -16.2250   38.5390 C.2   397  GLU397      0.3649
    116  OE1      -31.8480  -17.2900   38.2170 O.co2 397  GLU397     -0.2457
    117  OE2      -31.8190  -15.1340   38.6150 O.co2 397  GLU397     -0.2457
    118  N        -27.1030  -12.5140   41.1680 N.3   407  PHE407     -0.1241
    119  CA       -27.0100  -11.8470   39.8710 C.3   407  PHE407      0.1605
    120  C        -25.9110  -10.7920   39.8750 C.2   407  PHE407      0.2264
    121  O        -25.1240  -10.6970   38.9280 O.2   407  PHE407     -0.2867
    122  CB       -28.3460  -11.2070   39.4870 C.3   407  PHE407      0.0534
    123  CG       -28.2440  -10.2930   38.2970 C.ar  407  PHE407     -0.0203
    124  CD1      -27.9580  -10.8090   37.0470 C.ar  407  PHE407     -0.0042
    125  CD2      -28.4150   -8.9260   38.4280 C.ar  407  PHE407     -0.0042
    126  CE1      -27.8470   -9.9870   35.9430 C.ar  407  PHE407     -0.0003
    127  CE2      -28.2890   -8.0810   37.3220 C.ar  407  PHE407     -0.0003
    128  CZ       -28.0060   -8.6270   36.0720 C.ar  407  PHE407     -0.0000
    129  N        -22.6420  -12.5520   39.5280 N.3   410  LYS410     -0.1231
    130  CA       -22.4220  -12.9730   38.1530 C.3   410  LYS410      0.1693
    131  C        -21.9090  -11.8140   37.2880 C.2   410  LYS410      0.2591
    132  O        -20.9630  -11.9750   36.5110 O.2   410  LYS410     -0.2718
    133  CB       -23.7210  -13.5490   37.5900 C.3   410  LYS410      0.0285
    134  CG       -23.6640  -13.9760   36.1530 C.3   410  LYS410      0.0035
    135  CD       -22.8400  -15.2410   35.9800 C.3   410  LYS410      0.0206
    136  CE       -22.5490  -15.5230   34.5240 C.3   410  LYS410      0.1093
    137  NZ       -23.7460  -15.6340   33.6510 N.3   410  LYS410     -0.1314
    138  N        -22.5290  -10.6330   37.4200 N.am  411  MET411     -0.1979
    139  CA       -22.1220   -9.4710   36.6370 C.3   411  MET411      0.1605
    140  C        -20.7400   -8.9880   37.0510 C.2   411  MET411      0.2287
    141  O        -19.9290   -8.6090   36.2000 O.2   411  MET411     -0.2864
    142  CB       -23.1350   -8.3440   36.8060 C.3   411  MET411      0.0413
    143  CG       -24.5080   -8.6170   36.2090 C.3   411  MET411      0.0598
    144  SD       -24.4650   -9.0330   34.4330 S.3   411  MET411     -0.1393
    145  CE       -24.0090   -7.4740   33.6720 C.3   411  MET411      0.0692
    146  N        -17.6520  -10.6690   35.6280 N.3   414  ASP414     -0.1239
    147  CA       -17.2620  -10.2060   34.2990 C.3   414  ASP414      0.1674
    148  C        -16.8120   -8.7450   34.3240 C.2   414  ASP414      0.2266
    149  O        -15.6610   -8.4370   33.9930 O.2   414  ASP414     -0.2867
    150  CB       -18.4140  -10.4440   33.3240 C.3   414  ASP414      0.1410
    151  CG       -18.4340  -11.8720   32.7950 C.2   414  ASP414      0.3668
    152  OD1      -17.5090  -12.6540   33.1360 O.co2 414  ASP414     -0.2456
    153  OD2      -19.3660  -12.2180   32.0400 O.co2 414  ASP414     -0.2456
@<TRIPOS>BOND
     1    76    75    2
     2    75    74    1
     3    73    74    1
     4    74    77    1
     5    67    66    2
     6    66    65    1
     7    77    78    1
     8    77    79    1
     9    59    58    2
    10    56    57    1
    11    58    57    1
    12    58    64   am
    13    65    64    1
    14    65    68    1
    15    69    68    1
    16    69    70    1
    17    57    60    1
    18    70    72   ar
    19    70    71   ar
    20    52    51    2
    21    62    61    1
    22    60    61    1
    23    51    50    1
    24    61    63    1
    25   100    98    1
    26    96    95    2
    27    80    81    1
    28    85    84    1
    29    94    95    1
    30    94    93    1
    31    94    97    1
    32    50    53    1
    33    50    49    1
    34    53    54    1
    35    53    55    1
    36    14    12   am
    37    98    97    1
    38    98    99    1
    39    81    84    1
    40    81    82    1
    41    13    12    2
    42    48    47    1
    43    12    11    1
    44   101   102    1
    45   153   151   ar
    46    82    83    2
    47   151   152   ar
    48   151   150    1
    49    11     8    1
    50    47    46    1
    51     6     5    1
    52   104   103    2
    53   150   147    1
    54   102   103    1
    55   102   105    1
    56   137   136    1
    57   145   144    1
    58    46    45    1
    59    89    88    2
    60   106   105    1
    61   106   108    1
    62   106   107    1
    63   149   148    2
    64     8     7    1
    65     8     9    1
    66    44    43    2
    67   147   148    1
    68   147   146    1
    69     7     3   am
    70    45    42    1
    71   144   143    1
    72     5     2    1
    73    43    42    1
    74   136   135    1
    75    88    87    1
    76    86    87    1
    77    86    92    1
    78     1     2    1
    79     3     2    1
    80     3     4    2
    81    87    90    1
    82    42    41    1
    83     9    10    2
    84   126   128   ar
    85   126   124   ar
    86   135   134    1
    87   128   127   ar
    88   134   133    1
    89   141   140    2
    90   143   142    1
    91    92    91    1
    92    41    37   am
    93   132   131    2
    94   139   142    1
    95   139   140    1
    96   139   138    1
    97    90    91    1
    98   124   123   ar
    99   131   138   am
   100   131   130    1
   101    37    38    2
   102    37    36    1
   103   127   125   ar
   104   133   130    1
   105    39    36    1
   106    39    40    1
   107    19    20    1
   108    19    16    1
   109   130   129    1
   110    15    16    1
   111   116   115   ar
   112   123   125   ar
   113   123   122    1
   114    33    32   ar
   115    36    35    1
   116   115   117   ar
   117   115   114    1
   118    32    34   ar
   119    32    31    1
   120   114   113    1
   121    20    22   ar
   122    20    21   ar
   123    22    24   ar
   124   121   120    2
   125   109   110    1
   126    16    17    1
   127    31    28    1
   128    27    17   am
   129    27    28    1
   130   122   119    1
   131   113   110    1
   132    21    23   ar
   133    24    25   ar
   134   119   120    1
   135   119   118    1
   136    17    18    2
   137   110   111    1
   138    28    29    1
   139    23    25   ar
   140    25    26    1
   141   111   112    2
   142    29    30    2
