@<TRIPOS>MOLECULE
tmp/6f9uA06.pdb
 97 91 0 0 0
SMALL
GASTEIGER

@<TRIPOS>ATOM
      1  N         -9.2200  -13.0150    3.3140 N.3    30  TYR30      -0.1241
      2  CA        -8.1910  -13.7080    4.0870 C.3    30  TYR30       0.1605
      3  C         -8.7150  -14.1430    5.4560 C.2    30  TYR30       0.2264
      4  O         -8.4920  -15.2850    5.8780 O.2    30  TYR30      -0.2867
      5  CB        -6.9650  -12.8270    4.2590 C.3    30  TYR30       0.0534
      6  CG        -5.8580  -13.5510    4.9760 C.ar   30  TYR30      -0.0201
      7  CD1       -5.2130  -14.6260    4.3790 C.ar   30  TYR30      -0.0009
      8  CD2       -5.4620  -13.1710    6.2460 C.ar   30  TYR30      -0.0009
      9  CE1       -4.2040  -15.2960    5.0230 C.ar   30  TYR30       0.0417
     10  CE2       -4.4450  -13.8360    6.9040 C.ar   30  TYR30       0.0417
     11  CZ        -3.8180  -14.8980    6.2860 C.ar   30  TYR30       0.1957
     12  OH        -2.8050  -15.5720    6.9260 O.3    30  TYR30      -0.2866
     13  N         -8.1110  -18.5020    5.1770 N.3    34  ILE34      -0.1231
     14  CA        -6.6740  -18.2960    5.3100 C.3    34  ILE34       0.1692
     15  C         -5.9750  -19.2290    4.3280 C.2    34  ILE34       0.2593
     16  O         -5.9940  -20.4530    4.4920 O.2    34  ILE34      -0.2718
     17  CB        -6.1940  -18.5370    6.7490 C.3    34  ILE34       0.0266
     18  CG1       -6.7700  -17.4710    7.6950 C.3    34  ILE34       0.0019
     19  CG2       -4.6630  -18.5370    6.8060 C.3    34  ILE34       0.0020
     20  CD1       -6.2270  -17.5190    9.1360 C.3    34  ILE34       0.0001
     21  N         -5.3600  -18.6470    3.3020 N.am   35  THR35      -0.1939
     22  CA        -4.6270  -19.3980    2.2960 C.3    35  THR35       0.2028
     23  C         -3.4530  -18.5450    1.8330 C.2    35  THR35       0.2642
     24  O         -3.4150  -17.3280    2.0470 O.2    35  THR35      -0.2714
     25  CB        -5.5180  -19.7810    1.0990 C.3    35  THR35       0.1808
     26  OG1       -5.8710  -18.6050    0.3580 O.3    35  THR35      -0.2208
     27  CG2       -6.8030  -20.4800    1.5530 C.3    35  THR35       0.0379
     28  N         -2.4850  -19.1990    1.1950 N.am   36  THR36      -0.1950
     29  CA        -1.3790  -18.4550    0.6080 C.3    36  THR36       0.1897
     30  C         -1.8860  -17.4270   -0.4000 C.2    36  THR36       0.2313
     31  O         -1.4090  -16.2860   -0.4200 O.2    36  THR36      -0.2863
     32  CB        -0.3880  -19.4150   -0.0490 C.3    36  THR36       0.1794
     33  OG1       -1.0630  -20.1740   -1.0600 O.3    36  THR36      -0.2208
     34  CG2        0.2080  -20.3570    0.9920 C.3    36  THR36       0.0378
     35  N         -3.7310  -14.4550    1.2780 N.3    39  SER39      -0.1217
     36  CA        -2.7360  -13.6650    2.0000 C.3    39  SER39       0.1889
     37  C         -1.8590  -12.8680    1.0370 C.2    39  SER39       0.2288
     38  O         -1.4480  -11.7450    1.3540 O.2    39  SER39      -0.2866
     39  CB        -1.8830  -14.5680    2.8990 C.3    39  SER39       0.2089
     40  OG        -0.6780  -14.9660    2.2720 O.3    39  SER39      -0.2183
     41  N          4.2850   -7.8120    6.4530 N.3    98  LYS98      -0.1245
     42  CA         4.4920   -9.2520    6.5030 C.3    98  LYS98       0.1561
     43  C          4.6050   -9.7340    7.9420 C.2    98  LYS98       0.2260
     44  O          4.1170  -10.8160    8.2860 O.2    98  LYS98      -0.2867
     45  CB         5.7480   -9.6280    5.7150 C.3    98  LYS98       0.0271
     46  CG         6.0230  -11.1270    5.6630 C.3    98  LYS98       0.0035
     47  CD         4.8710  -11.8780    4.9960 C.3    98  LYS98       0.0206
     48  CE         5.1430  -13.3700    4.8720 C.3    98  LYS98       0.1093
     49  NZ         3.9720  -14.0680    4.2610 N.3    98  LYS98      -0.1314
     50  N          1.0600   -9.8950    9.3400 N.3   101  LEU101     -0.1231
     51  CA         0.3090  -11.0360    8.8380 C.3   101  LEU101      0.1693
     52  C          0.8510  -12.3320    9.4220 C.2   101  LEU101      0.2592
     53  O          0.0830  -13.2500    9.7300 O.2   101  LEU101     -0.2718
     54  CB         0.3590  -11.0580    7.3080 C.3   101  LEU101      0.0284
     55  CG        -0.3760  -12.2170    6.6410 C.3   101  LEU101      0.0019
     56  CD1       -1.3180  -11.6790    5.5580 C.3   101  LEU101      0.0001
     57  CD2        0.6400  -13.1890    6.0690 C.3   101  LEU101      0.0001
     58  N          2.1670  -12.4200    9.6000 N.am  102  ASP102     -0.1974
     59  CA         2.7420  -13.6140   10.1960 C.3   102  ASP102      0.1709
     60  C          2.3010  -13.7770   11.6430 C.2   102  ASP102      0.2293
     61  O          1.9870  -14.8920   12.0760 O.2   102  ASP102     -0.2864
     62  CB         4.2640  -13.5630   10.1080 C.3   102  ASP102      0.1436
     63  CG         4.7680  -13.7250    8.6740 C.2   102  ASP102      0.3671
     64  OD1        3.9440  -14.0570    7.7960 O.co2 102  ASP102     -0.2456
     65  OD2        5.9740  -13.5140    8.4250 O.co2 102  ASP102     -0.2456
     66  N         -1.4610  -14.8140   11.6670 N.3   105  THR105     -0.1203
     67  CA        -1.6440  -16.1800   11.2060 C.3   105  THR105      0.1994
     68  C         -1.1450  -17.1740   12.2460 C.2   105  THR105      0.2618
     69  O         -1.8220  -18.1600   12.5530 O.2   105  THR105     -0.2717
     70  CB        -0.9300  -16.3660    9.8700 C.3   105  THR105      0.1784
     71  OG1       -1.4080  -15.3650    8.9600 O.3   105  THR105     -0.2211
     72  CG2       -1.2370  -17.7300    9.3070 C.3   105  THR105      0.0376
     73  N          0.0360  -16.9170   12.8090 N.am  106  THR106     -0.1952
     74  CA         0.5860  -17.8000   13.8270 C.3   106  THR106      0.1897
     75  C         -0.3960  -17.9910   14.9790 C.2   106  THR106      0.2313
     76  O         -0.6070  -19.1040   15.4530 O.2   106  THR106     -0.2863
     77  CB         1.9110  -17.2310   14.3430 C.3   106  THR106      0.1794
     78  OG1        2.8660  -17.2140   13.2800 O.3   106  THR106     -0.2208
     79  CG2        2.4690  -18.0700   15.5090 C.3   106  THR106      0.0378
     80  N         -3.7820  -20.0720   13.9400 N.3   109  VAL109     -0.1245
     81  CA        -3.6910  -21.4850   13.5900 C.3   109  VAL109      0.1561
     82  C         -3.0010  -22.3160   14.6560 C.2   109  VAL109      0.2260
     83  O         -2.8840  -23.5340   14.4830 O.2   109  VAL109     -0.2867
     84  CB        -2.9890  -21.6930   12.2310 C.3   109  VAL109      0.0252
     85  CG1       -3.5950  -20.7900   11.1670 C.3   109  VAL109      0.0019
     86  CG2       -1.4920  -21.4750   12.3510 C.3   109  VAL109      0.0019
     87  N          8.8310  -12.3810   16.3640 N.3   157  PHE157     -0.1241
     88  CA         8.3740  -11.2680   15.5450 C.3   157  PHE157      0.1605
     89  C          8.3020   -9.9480   16.2980 C.2   157  PHE157      0.2264
     90  O          8.3910   -8.8830   15.6750 O.2   157  PHE157     -0.2867
     91  CB         6.9790  -11.5720   14.9890 C.3   157  PHE157      0.0534
     92  CG         6.9220  -12.7890   14.1150 C.ar  157  PHE157     -0.0203
     93  CD1        7.5270  -12.7910   12.8720 C.ar  157  PHE157     -0.0042
     94  CD2        6.2340  -13.9260   14.5270 C.ar  157  PHE157     -0.0042
     95  CE1        7.4720  -13.9210   12.0550 C.ar  157  PHE157     -0.0003
     96  CE2        6.1620  -15.0480   13.7180 C.ar  157  PHE157     -0.0003
     97  CZ         6.7810  -15.0470   12.4770 C.ar  157  PHE157     -0.0000
@<TRIPOS>BOND
     1    33    32    1
     2    31    30    2
     3    30    29    1
     4    32    29    1
     5    32    34    1
     6    26    25    1
     7    29    28    1
     8    37    38    2
     9    37    36    1
    10    25    27    1
    11    25    22    1
    12    28    23   am
    13    35    36    1
    14    23    24    2
    15    23    22    1
    16    36    39    1
    17    40    39    1
    18    22    21    1
    19    21    15   am
    20     1     2    1
    21     2     5    1
    22     2     3    1
    23     5     6    1
    24    49    48    1
    25    15    16    2
    26    15    14    1
    27     7     6   ar
    28     7     9   ar
    29    48    47    1
    30     6     8   ar
    31    47    46    1
    32     9    11   ar
    33    13    14    1
    34    14    17    1
    35     3     4    2
    36    56    55    1
    37    46    45    1
    38    45    42    1
    39    57    55    1
    40     8    10   ar
    41    11    10   ar
    42    11    12    1
    43    41    42    1
    44    42    43    1
    45    55    54    1
    46    17    19    1
    47    17    18    1
    48    54    51    1
    49    18    20    1
    50    64    63   ar
    51    43    44    2
    52    65    63   ar
    53    63    62    1
    54    51    50    1
    55    51    52    1
    56    71    70    1
    57    72    70    1
    58    52    58   am
    59    52    53    2
    60    58    59    1
    61    70    67    1
    62    62    59    1
    63    59    60    1
    64    85    84    1
    65    67    66    1
    66    67    68    1
    67    60    61    2
    68    95    97   ar
    69    95    93   ar
    70    84    86    1
    71    84    81    1
    72    68    69    2
    73    68    73   am
    74    97    96   ar
    75    73    74    1
    76    93    92   ar
    77    78    77    1
    78    81    80    1
    79    81    82    1
    80    96    94   ar
    81    74    77    1
    82    74    75    1
    83    92    94   ar
    84    92    91    1
    85    77    79    1
    86    83    82    2
    87    75    76    2
    88    91    88    1
    89    88    89    1
    90    88    87    1
    91    90    89    2
