@<TRIPOS>MOLECULE
tmp/6f9vB06.pdb
 100 98 0 0 0
SMALL
GASTEIGER

@<TRIPOS>ATOM
      1  N         -2.2210   44.0520   23.6460 N.3   281  GLN281     -0.1231
      2  CA        -2.7650   44.0890   25.0000 C.3   281  GLN281      0.1698
      3  C         -1.8280   43.5300   26.0590 C.2   281  GLN281      0.2593
      4  O         -2.1230   43.6760   27.2490 O.2   281  GLN281     -0.2718
      5  CB        -4.0950   43.3270   25.0700 C.3   281  GLN281      0.0381
      6  CG        -5.2240   43.9500   24.2830 C.3   281  GLN281      0.0905
      7  CD        -6.5410   43.2010   24.4490 C.2   281  GLN281      0.2608
      8  OE1       -6.5910   42.1000   25.0130 O.2   281  GLN281     -0.2717
      9  NE2       -7.6140   43.7870   23.9290 N.am  281  GLN281     -0.0878
     10  N         -0.7160   42.8940   25.6900 N.am  282  GLY282     -0.1942
     11  CA         0.2100   42.4110   26.7020 C.3   282  GLY282      0.2014
     12  C         -0.0930   41.0560   27.3150 C.2   282  GLY282      0.2638
     13  O          0.3080   40.8050   28.4480 O.2   282  GLY282     -0.2714
     14  N         -0.8190   40.1880   26.6280 N.am  283  TRP283     -0.1973
     15  CA        -1.0380   38.8520   27.1540 C.3   283  TRP283      0.1640
     16  C          0.2840   38.1220   27.3820 C.2   283  TRP283      0.2290
     17  O          1.2670   38.3110   26.6570 O.2   283  TRP283     -0.2864
     18  CB        -1.9160   38.0420   26.1960 C.3   283  TRP283      0.0576
     19  CG        -3.3760   38.4610   26.1510 C.ar  283  TRP283      0.0006
     20  CD1       -3.8720   39.7000   25.8480 C.ar  283  TRP283      0.0946
     21  CD2       -4.5220   37.6200   26.3730 C.ar  283  TRP283      0.0152
     22  NE1       -5.2440   39.6870   25.8900 N.ar  283  TRP283     -0.2442
     23  CE2       -5.6670   38.4250   26.2140 C.ar  283  TRP283      0.0810
     24  CE3       -4.6880   36.2740   26.7220 C.ar  283  TRP283      0.0012
     25  CZ2       -6.9500   37.9210   26.3600 C.ar  283  TRP283      0.0191
     26  CZ3       -5.9680   35.7880   26.8760 C.ar  283  TRP283      0.0001
     27  CH2       -7.0740   36.6020   26.6950 C.ar  283  TRP283      0.0015
     28  N          0.6690   33.1380   31.5040 N.3   286  THR286     -0.1203
     29  CA        -0.2060   32.9810   32.6640 C.3   286  THR286      0.1994
     30  C         -1.6320   33.4370   32.3580 C.2   286  THR286      0.2617
     31  O         -2.5950   32.7780   32.7790 O.2   286  THR286     -0.2717
     32  CB         0.3680   33.7380   33.8710 C.3   286  THR286      0.1784
     33  OG1       -0.2950   33.3010   35.0640 O.3   286  THR286     -0.2211
     34  CG2        0.1910   35.2350   33.7230 C.3   286  THR286      0.0376
     35  N         -1.7950   34.5540   31.6370 N.am  287  HIS287     -0.1975
     36  CA        -3.1360   35.0190   31.2850 C.3   287  HIS287      0.1656
     37  C         -3.8440   33.9850   30.4320 C.2   287  HIS287      0.2291
     38  O         -5.0360   33.7180   30.6160 O.2   287  HIS287     -0.2864
     39  CB        -3.1070   36.3370   30.5110 C.3   287  HIS287      0.0771
     40  CG        -2.4340   37.4580   31.2270 C.ar  287  HIS287      0.0820
     41  ND1       -1.0730   37.6740   31.1640 N.ar  287  HIS287     -0.2267
     42  CD2       -2.9390   38.4440   32.0050 C.ar  287  HIS287      0.1154
     43  CE1       -0.7700   38.7410   31.8830 C.ar  287  HIS287      0.1986
     44  NE2       -1.8860   39.2270   32.4000 N.ar  287  HIS287     -0.2212
     45  N         -5.0480   31.1230   32.6210 N.3   290  ARG290     -0.1231
     46  CA        -6.1590   31.5490   33.4940 C.3   290  ARG290      0.1694
     47  C         -7.4440   31.7380   32.7020 C.2   290  ARG290      0.2591
     48  O         -8.5400   31.3980   33.1800 O.2   290  ARG290     -0.2718
     49  CB        -5.8040   32.8330   34.2530 C.3   290  ARG290      0.0321
     50  CG        -4.8290   32.6120   35.4230 C.3   290  ARG290      0.0489
     51  CD        -5.4220   31.7670   36.5420 C.3   290  ARG290      0.2205
     52  NE        -4.4120   31.5580   37.5910 N.pl3 290  ARG290     -0.0865
     53  CZ        -4.6200   30.8620   38.6950 C.cat 290  ARG290      0.5346
     54  NH1       -5.8000   30.3000   38.9370 N.pl3 290  ARG290      0.1354
     55  NH2       -3.6300   30.7350   39.5580 N.pl3 290  ARG290      0.1354
     56  N         -7.3410   32.2350   31.4710 N.am  291  VAL291     -0.1980
     57  CA        -8.5420   32.4410   30.6670 C.3   291  VAL291      0.1595
     58  C         -9.1190   31.1060   30.2370 C.2   291  VAL291      0.2287
     59  O        -10.3370   30.9210   30.2180 O.2   291  VAL291     -0.2864
     60  CB        -8.2240   33.3570   29.4740 C.3   291  VAL291      0.0276
     61  CG1       -9.3420   33.3460   28.4430 C.3   291  VAL291      0.0022
     62  CG2       -7.9300   34.7810   29.9530 C.3   291  VAL291      0.0022
     63  N        -10.9270   29.5780   33.2230 N.3   294  GLU294     -0.1245
     64  CA       -12.2190   30.1730   33.5670 C.3   294  GLU294      0.1567
     65  C        -13.3110   29.6760   32.6220 C.2   294  GLU294      0.2260
     66  O        -14.4910   29.6150   32.9960 O.2   294  GLU294     -0.2867
     67  CB       -12.0940   31.6850   33.5450 C.3   294  GLU294      0.0388
     68  CG       -13.2680   32.4040   34.2710 C.3   294  GLU294      0.1160
     69  CD       -14.4810   32.5840   33.3870 C.2   294  GLU294      0.3649
     70  OE1      -14.3030   32.8070   32.1580 O.co2 294  GLU294     -0.2457
     71  OE2      -15.6200   32.5080   33.9220 O.co2 294  GLU294     -0.2457
     72  N        -16.3660   38.8940   23.4680 N.3   402  LYS402     -0.1231
     73  CA       -16.6470   38.8510   24.9090 C.3   402  LYS402      0.1693
     74  C        -15.3760   38.9810   25.7500 C.2   402  LYS402      0.2591
     75  O        -15.4100   39.5510   26.8480 O.2   402  LYS402     -0.2718
     76  CB       -17.3640   37.5570   25.2940 C.3   402  LYS402      0.0285
     77  CG       -18.7380   37.3510   24.7110 C.3   402  LYS402      0.0035
     78  CD       -19.3220   36.0190   25.1760 C.3   402  LYS402      0.0206
     79  CE       -20.6110   35.6500   24.4350 C.3   402  LYS402      0.1093
     80  NZ       -21.1140   34.2780   24.7980 N.3   402  LYS402     -0.1314
     81  N        -14.2590   38.4000   25.3000 N.am  403  ILE403     -0.1980
     82  CA       -13.0150   38.4240   26.0750 C.3   403  ILE403      0.1595
     83  C        -12.0660   39.5230   25.6000 C.2   403  ILE403      0.2287
     84  O        -10.8700   39.4770   25.8970 O.2   403  ILE403     -0.2864
     85  CB       -12.3090   37.0420   26.0820 C.3   403  ILE403      0.0276
     86  CG1      -11.8950   36.5800   24.6610 C.3   403  ILE403      0.0022
     87  CG2      -13.1850   35.9860   26.7190 C.3   403  ILE403      0.0022
     88  CD1      -10.9730   35.2990   24.6760 C.3   403  ILE403      0.0001
     89  N        -19.9580   28.7230   26.3430 N.3   526  TYR526     -0.1241
     90  CA       -19.5240   29.4080   27.5650 C.3   526  TYR526      0.1605
     91  C        -20.6860   29.5950   28.5380 C.2   526  TYR526      0.2264
     92  O        -21.7740   30.0000   28.1350 O.2   526  TYR526     -0.2867
     93  CB       -18.9280   30.7570   27.1640 C.3   526  TYR526      0.0534
     94  CG       -18.3240   31.6080   28.2660 C.ar  526  TYR526     -0.0201
     95  CD1      -17.2200   31.1820   28.9790 C.ar  526  TYR526     -0.0009
     96  CD2      -18.8290   32.8830   28.5390 C.ar  526  TYR526     -0.0009
     97  CE1      -16.6450   31.9820   29.9610 C.ar  526  TYR526      0.0417
     98  CE2      -18.2530   33.6790   29.5040 C.ar  526  TYR526      0.0417
     99  CZ       -17.1550   33.2160   30.2100 C.ar  526  TYR526      0.1957
    100  OH       -16.5770   34.0080   31.1930 O.3   526  TYR526     -0.2866
@<TRIPOS>BOND
     1    72    73    1
     2     1     2    1
     3     9     7   am
     4     6     7    1
     5     6     5    1
     6    79    80    1
     7    79    78    1
     8     7     8    2
     9    86    88    1
    10    86    85    1
    11    77    78    1
    12    77    76    1
    13    73    76    1
    14    73    74    1
    15     2     5    1
    16     2     3    1
    17    81    74   am
    18    81    82    1
    19    83    84    2
    20    83    82    1
    21    10     3   am
    22    10    11    1
    23    74    75    2
    24    20    22   ar
    25    20    19   ar
    26    22    23   ar
    27     3     4    2
    28    82    85    1
    29    85    87    1
    30    19    18    1
    31    19    21   ar
    32    18    15    1
    33    23    25   ar
    34    23    21   ar
    35    89    90    1
    36    25    27   ar
    37    21    24   ar
    38    14    15    1
    39    14    12   am
    40    17    16    2
    41    27    26   ar
    42    11    12    1
    43    24    26   ar
    44    15    16    1
    45    93    90    1
    46    93    94    1
    47    12    13    2
    48    90    91    1
    49    92    91    2
    50    94    96   ar
    51    94    95   ar
    52    61    60    1
    53    96    98   ar
    54    95    97   ar
    55    60    62    1
    56    60    57    1
    57    98    99   ar
    58    97    99   ar
    59    99   100    1
    60    59    58    2
    61    58    57    1
    62    37    38    2
    63    37    36    1
    64    39    40    1
    65    39    36    1
    66    57    56    1
    67    41    40   ar
    68    41    43   ar
    69    40    42   ar
    70    36    35    1
    71    56    47   am
    72    28    29    1
    73    35    30   am
    74    43    44   ar
    75    42    44   ar
    76    70    69   ar
    77    30    29    1
    78    30    31    2
    79    45    46    1
    80    65    66    2
    81    65    64    1
    82    29    32    1
    83    47    48    2
    84    47    46    1
    85    63    64    1
    86    69    71   ar
    87    69    68    1
    88    46    49    1
    89    67    64    1
    90    67    68    1
    91    34    32    1
    92    32    33    1
    93    49    50    1
    94    50    51    1
    95    51    52    1
    96    52    53    2
    97    53    54    1
    98    53    55    1
