@<TRIPOS>MOLECULE
tmp/6fa1F01.pdb
 103 97 0 0 0
SMALL
GASTEIGER

@<TRIPOS>ATOM
      1  N         46.3250  128.7710   42.0080 N.3     9  LYS9       -0.1231
      2  CA        47.3020  129.6150   42.6940 C.3     9  LYS9        0.1693
      3  C         47.3110  129.3340   44.2020 C.2     9  LYS9        0.2592
      4  O         46.3680  129.6600   44.9030 O.2     9  LYS9       -0.2718
      5  CB        46.9540  131.0670   42.4240 C.3     9  LYS9        0.0285
      6  CG        47.1520  131.3790   40.9470 C.3     9  LYS9        0.0035
      7  CD        46.8930  132.8110   40.5860 C.3     9  LYS9        0.0206
      8  CE        47.7570  133.1850   39.3670 C.3     9  LYS9        0.1093
      9  NZ        47.0790  134.2450   38.5980 N.3     9  LYS9       -0.1314
     10  N         48.3650  128.6890   44.6550 N.am   10  LEU10      -0.1966
     11  CA        48.4900  128.2350   46.0230 C.3    10  LEU10       0.1728
     12  C         49.5400  129.1030   46.6900 C.2    10  LEU10       0.2616
     13  O         50.5440  129.4170   46.0850 O.2    10  LEU10      -0.2715
     14  CB        48.9390  126.7700   46.0670 C.3    10  LEU10       0.0311
     15  CG        48.2000  125.8140   45.1610 C.3    10  LEU10       0.0022
     16  CD1       48.6590  124.3940   45.4250 C.3    10  LEU10       0.0001
     17  CD2       46.7030  125.9120   45.3410 C.3    10  LEU10       0.0001
     18  N         49.3020  129.4690   47.9390 N.am   11  VAL11      -0.1977
     19  CA        50.2410  130.2570   48.7300 C.3    11  VAL11       0.1596
     20  C         50.5660  129.5020   50.0220 C.2    11  VAL11       0.2287
     21  O         49.6880  128.9840   50.6930 O.2    11  VAL11      -0.2864
     22  CB        49.6420  131.6180   49.0590 C.3    11  VAL11       0.0276
     23  CG1       50.6420  132.4800   49.8190 C.3    11  VAL11       0.0022
     24  CG2       49.2260  132.3490   47.7660 C.3    11  VAL11       0.0022
     25  N         60.5840  135.9760   48.4710 N.3    41  GLU41      -0.1245
     26  CA        59.4150  135.5630   47.6880 C.3    41  GLU41       0.1567
     27  C         59.8800  134.6760   46.5380 C.2    41  GLU41       0.2260
     28  O         60.7550  135.0990   45.7880 O.2    41  GLU41      -0.2867
     29  CB        58.6900  136.7970   47.0850 C.3    41  GLU41       0.0388
     30  CG        57.7440  137.6450   47.9680 C.3    41  GLU41       0.1160
     31  CD        56.5440  136.8980   48.5620 C.2    41  GLU41       0.3649
     32  OE1       55.5480  136.6950   47.8080 O.co2  41  GLU41      -0.2457
     33  OE2       56.5550  136.5800   49.8060 O.co2  41  GLU41      -0.2457
     34  N         58.3880  131.7540   43.3670 N.3    43  SER43      -0.1217
     35  CA        57.2190  131.1500   42.7100 C.3    43  SER43       0.1889
     36  C         57.6260  129.8670   41.9530 C.2    43  SER43       0.2288
     37  O         58.6790  129.8160   41.3290 O.2    43  SER43      -0.2866
     38  CB        56.5520  132.1370   41.7840 C.3    43  SER43       0.2089
     39  OG        57.1640  132.1130   40.5420 O.3    43  SER43      -0.2183
     40  N         50.5000  126.7230   40.6090 N.3    57  ASP57      -0.1225
     41  CA        51.3660  127.8660   40.7160 C.3    57  ASP57       0.1805
     42  C         51.5250  128.1530   42.2190 C.2    57  ASP57       0.2598
     43  O         50.5570  128.4940   42.8880 O.2    57  ASP57      -0.2718
     44  CB        50.7090  129.0350   40.0180 C.3    57  ASP57       0.1424
     45  CG        51.6890  130.1230   39.6380 C.2    57  ASP57       0.3668
     46  OD1       52.8070  130.2830   40.2540 O.co2  57  ASP57      -0.2456
     47  OD2       51.3330  130.8090   38.6540 O.co2  57  ASP57      -0.2456
     48  N         52.7080  127.9290   42.7480 N.am   58  ILE58      -0.1966
     49  CA        52.9060  127.9210   44.1900 C.3    58  ILE58       0.1727
     50  C         53.7810  129.0940   44.5890 C.2    58  ILE58       0.2616
     51  O         54.8930  129.2110   44.0940 O.2    58  ILE58      -0.2715
     52  CB        53.5390  126.6500   44.6550 C.3    58  ILE58       0.0290
     53  CG1       52.6310  125.4740   44.2150 C.3    58  ILE58       0.0022
     54  CG2       53.7090  126.6790   46.1660 C.3    58  ILE58       0.0023
     55  CD1       53.2770  124.1870   44.3320 C.3    58  ILE58       0.0001
     56  N         53.2640  129.9400   45.4790 N.am   59  LEU59      -0.1977
     57  CA        53.9990  131.0770   46.0010 C.3    59  LEU59       0.1596
     58  C         54.4860  130.7190   47.4170 C.2    59  LEU59       0.2287
     59  O         53.6950  130.4530   48.3510 O.2    59  LEU59      -0.2864
     60  CB        53.1450  132.3160   46.0380 C.3    59  LEU59       0.0297
     61  CG        53.9350  133.5550   46.5340 C.3    59  LEU59       0.0022
     62  CD1       54.9320  133.9970   45.5050 C.3    59  LEU59       0.0001
     63  CD2       52.9920  134.6790   46.8150 C.3    59  LEU59       0.0001
     64  N         52.9590  144.1700   49.7340 N.3    70  MET70      -0.1245
     65  CA        53.2850  142.9110   49.0630 C.3    70  MET70       0.1570
     66  C         52.4770  141.7030   49.5950 C.2    70  MET70       0.2261
     67  O         51.9690  140.9060   48.8110 O.2    70  MET70      -0.2867
     68  CB        54.8040  142.6670   49.1300 C.3    70  MET70       0.0387
     69  CG        55.5600  143.4510   48.0640 C.3    70  MET70       0.0595
     70  SD        55.1240  142.7960   46.4200 S.3    70  MET70      -0.1393
     71  CE        55.2930  141.0160   46.5800 C.3    70  MET70       0.0692
     72  N         48.9110  141.8020   48.3360 N.3    73  GLN73      -0.1231
     73  CA        48.8110  141.4580   46.9320 C.3    73  GLN73       0.1698
     74  C         48.7550  139.9310   46.7130 C.2    73  GLN73       0.2592
     75  O         47.8790  139.4420   45.9990 O.2    73  GLN73      -0.2718
     76  CB        49.9640  142.0780   46.1250 C.3    73  GLN73       0.0381
     77  CG        49.8300  141.9630   44.6090 C.3    73  GLN73       0.0905
     78  CD        48.4220  142.2830   44.0610 C.2    73  GLN73       0.2608
     79  OE1       47.7340  143.1880   44.5220 O.2    73  GLN73      -0.2717
     80  NE2       48.0040  141.5300   43.0700 N.am   73  GLN73      -0.0878
     81  N         49.6450  139.1780   47.3610 N.am   74  TYR74      -0.1976
     82  CA        49.6290  137.7240   47.1510 C.3    74  TYR74       0.1639
     83  C         48.4530  137.0470   47.8320 C.2    74  TYR74       0.2290
     84  O         47.8980  136.0800   47.3260 O.2    74  TYR74      -0.2864
     85  CB        50.9670  137.0890   47.4980 C.3    74  TYR74       0.0560
     86  CG        51.4220  137.0220   48.9580 C.ar   74  TYR74      -0.0198
     87  CD1       50.7130  136.2800   49.9170 C.ar   74  TYR74      -0.0009
     88  CD2       52.6200  137.6020   49.3440 C.ar   74  TYR74      -0.0009
     89  CE1       51.1650  136.1890   51.2280 C.ar   74  TYR74       0.0417
     90  CE2       53.0840  137.5050   50.6720 C.ar   74  TYR74       0.0417
     91  CZ        52.3460  136.7870   51.6000 C.ar   74  TYR74       0.1957
     92  OH        52.7500  136.6530   52.9230 O.3    74  TYR74      -0.2866
     93  N         45.6400  137.4740   45.3810 N.3    77  THR77      -0.1203
     94  CA        45.8110  136.6460   44.1750 C.3    77  THR77       0.1994
     95  C         45.6680  135.1560   44.4600 C.2    77  THR77       0.2618
     96  O         45.2060  134.3740   43.5970 O.2    77  THR77      -0.2717
     97  CB        47.2000  136.8660   43.5530 C.3    77  THR77       0.1784
     98  OG1       47.3410  138.2130   43.1680 O.3    77  THR77      -0.2211
     99  CG2       47.4020  136.0210   42.3220 C.3    77  THR77       0.0376
    100  N         46.0740  134.7380   45.6660 N.am   78  GLY78      -0.1956
    101  CA        46.0560  133.3100   46.0320 C.3    78  GLY78       0.1869
    102  C         44.6610  132.7750   46.1040 C.2    78  GLY78       0.2309
    103  O         43.7280  133.4050   46.6260 O.2    78  GLY78      -0.2863
@<TRIPOS>BOND
     1     9     8    1
     2    47    45   ar
     3     8     7    1
     4    45    44    1
     5    45    46   ar
     6    44    41    1
     7    39    38    1
     8     7     6    1
     9    40    41    1
    10    41    42    1
    11     6     5    1
    12    37    36    2
    13    38    35    1
    14    36    35    1
    15     1     2    1
    16    42    48   am
    17    42    43    2
    18    99    97    1
    19     5     2    1
    20     2     3    1
    21    35    34    1
    22    48    49    1
    23    80    78   am
    24    98    97    1
    25    97    94    1
    26    96    95    2
    27    78    79    2
    28    78    77    1
    29    51    50    2
    30    94    95    1
    31    94    93    1
    32    49    50    1
    33    49    52    1
    34     3    10   am
    35     3     4    2
    36    53    55    1
    37    53    52    1
    38    95   100   am
    39    50    56   am
    40    77    76    1
    41    52    54    1
    42    10    11    1
    43    15    17    1
    44    15    16    1
    45    15    14    1
    46    56    57    1
    47    62    61    1
    48   100   101    1
    49    28    27    2
    50    75    74    2
    51    57    60    1
    52    57    58    1
    53    11    14    1
    54    11    12    1
    55   101   102    1
    56    60    61    1
    57    13    12    2
    58   102   103    2
    59    76    73    1
    60    70    71    1
    61    70    69    1
    62    61    63    1
    63    27    26    1
    64    12    18   am
    65    74    73    1
    66    74    81   am
    67    73    72    1
    68    29    26    1
    69    29    30    1
    70    82    81    1
    71    82    85    1
    72    82    83    1
    73    84    83    2
    74    58    59    2
    75    85    86    1
    76    26    25    1
    77    24    22    1
    78    32    31   ar
    79    18    19    1
    80    30    31    1
    81    69    68    1
    82    31    33   ar
    83    19    22    1
    84    19    20    1
    85    67    66    2
    86    86    88   ar
    87    86    87   ar
    88    22    23    1
    89    65    68    1
    90    65    66    1
    91    65    64    1
    92    88    90   ar
    93    87    89   ar
    94    20    21    2
    95    90    91   ar
    96    89    91   ar
    97    91    92    1
