@<TRIPOS>MOLECULE
tmp/6fa2C01.pdb
 126 121 0 0 0
SMALL
GASTEIGER

@<TRIPOS>ATOM
      1  N         71.2660  109.1410   28.4050 N.3     7  GLU7       -0.1245
      2  CA        71.5860  107.9360   29.1680 C.3     7  GLU7        0.1567
      3  C         72.6210  108.2050   30.2660 C.2     7  GLU7        0.2260
      4  O         73.6680  108.7680   29.9950 O.2     7  GLU7       -0.2867
      5  CB        72.1110  106.9200   28.1770 C.3     7  GLU7        0.0388
      6  CG        71.9470  105.4790   28.5840 C.3     7  GLU7        0.1160
      7  CD        72.2060  104.5440   27.4160 C.2     7  GLU7        0.3649
      8  OE1       71.6020  104.8160   26.3400 O.co2   7  GLU7       -0.2457
      9  OE2       72.9160  103.5090   27.6270 O.co2   7  GLU7       -0.2457
     10  N         75.0120  106.4780   33.3630 N.3     9  LYS9       -0.1231
     11  CA        75.5660  105.2170   33.8600 C.3     9  LYS9        0.1693
     12  C         75.9430  105.3610   35.3320 C.2     9  LYS9        0.2592
     13  O         76.9020  106.0940   35.6680 O.2     9  LYS9       -0.2718
     14  CB        76.7850  104.8260   33.0180 C.3     9  LYS9        0.0285
     15  CG        76.4440  104.7870   31.5170 C.3     9  LYS9        0.0035
     16  CD        77.4240  103.9350   30.7220 C.3     9  LYS9        0.0206
     17  CE        76.7680  103.3750   29.4750 C.3     9  LYS9        0.1093
     18  NZ        77.8460  102.7380   28.6780 N.3     9  LYS9       -0.1314
     19  N         75.1790  104.6900   36.2020 N.am   10  LEU10      -0.1966
     20  CA        75.3370  104.8290   37.6450 C.3    10  LEU10       0.1728
     21  C         75.8140  103.5420   38.2780 C.2    10  LEU10       0.2616
     22  O         75.2930  102.4690   37.9920 O.2    10  LEU10      -0.2715
     23  CB        73.9930  105.1750   38.2740 C.3    10  LEU10       0.0311
     24  CG        73.1740  106.2670   37.5840 C.3    10  LEU10       0.0022
     25  CD1       71.9160  106.4800   38.4070 C.3    10  LEU10       0.0001
     26  CD2       73.9450  107.5610   37.3750 C.3    10  LEU10       0.0001
     27  N         76.7690  103.6460   39.1900 N.am   11  VAL11      -0.1977
     28  CA        77.3230  102.4600   39.8490 C.3    11  VAL11       0.1596
     29  C         77.0510  102.5630   41.3500 C.2    11  VAL11       0.2287
     30  O         77.3330  103.6080   41.9590 O.2    11  VAL11      -0.2864
     31  CB        78.8460  102.3880   39.6120 C.3    11  VAL11       0.0276
     32  CG1       79.4090  101.1210   40.1930 C.3    11  VAL11       0.0022
     33  CG2       79.1430  102.4570   38.1300 C.3    11  VAL11       0.0022
     34  N         72.8790   94.2720   36.3610 N.3    41  SER41      -0.1202
     35  CA        72.5350   95.5650   35.7490 C.3    41  SER41       0.2020
     36  C         71.0380   95.7410   35.5140 C.2    41  SER41       0.2619
     37  O         70.3110   94.7890   35.2120 O.2    41  SER41      -0.2717
     38  CB        73.2960   95.7820   34.4470 C.3    41  SER41       0.2103
     39  OG        73.3210   94.5970   33.6910 O.3    41  SER41      -0.2182
     40  N         70.5990   96.9830   35.6790 N.am   42  TYR42      -0.1961
     41  CA        69.1930   97.3480   35.6650 C.3    42  TYR42       0.1771
     42  C         69.0220   98.6170   34.8780 C.2    42  TYR42       0.2619
     43  O         69.9960   99.3190   34.5770 O.2    42  TYR42      -0.2715
     44  CB        68.6630   97.5840   37.0710 C.3    42  TYR42       0.0574
     45  CG        68.7220   96.3760   37.9580 C.ar   42  TYR42      -0.0198
     46  CD1       67.7590   95.3600   37.8810 C.ar   42  TYR42      -0.0009
     47  CD2       69.7460   96.2440   38.8820 C.ar   42  TYR42      -0.0009
     48  CE1       67.8020   94.2790   38.7250 C.ar   42  TYR42       0.0417
     49  CE2       69.8240   95.1230   39.7100 C.ar   42  TYR42       0.0417
     50  CZ        68.8470   94.1550   39.6320 C.ar   42  TYR42       0.1957
     51  OH        68.9350   93.0660   40.4470 O.3    42  TYR42      -0.2866
     52  N         67.7750   98.9020   34.5440 N.am   43  ARG43      -0.1977
     53  CA        67.4760   99.9640   33.6080 C.3    43  ARG43       0.1597
     54  C         66.1280  100.5990   33.8930 C.2    43  ARG43       0.2287
     55  O         65.1490   99.8920   34.1430 O.2    43  ARG43      -0.2864
     56  CB        67.4800   99.3650   32.2180 C.3    43  ARG43       0.0334
     57  CG        68.1410  100.2500   31.2190 C.3    43  ARG43       0.0492
     58  CD        68.4850   99.5060   29.9580 C.3    43  ARG43       0.2205
     59  NE        69.5120  100.2920   29.2840 N.pl3  43  ARG43      -0.0865
     60  CZ        70.1960   99.9050   28.2240 C.cat  43  ARG43       0.5346
     61  NH1       69.9400   98.7270   27.6390 N.pl3  43  ARG43       0.1354
     62  NH2       71.1310  100.7120   27.7420 N.pl3  43  ARG43       0.1354
     63  N         71.0740  103.5920   33.5590 N.3    56  ASP56      -0.1225
     64  CA        71.7270  102.3040   33.5030 C.3    56  ASP56       0.1805
     65  C         72.3850  102.1600   34.8550 C.2    56  ASP56       0.2598
     66  O         73.3140  102.9250   35.1780 O.2    56  ASP56      -0.2718
     67  CB        72.8140  102.3060   32.4340 C.3    56  ASP56       0.1424
     68  CG        72.2700  102.4360   31.0230 C.2    56  ASP56       0.3668
     69  OD1       71.0840  102.0800   30.7690 O.co2  56  ASP56      -0.2456
     70  OD2       73.0760  102.9300   30.1580 O.co2  56  ASP56      -0.2456
     71  N         71.9190  101.2050   35.6570 N.am   57  ILE57      -0.1966
     72  CA        72.3990  101.0780   37.0200 C.3    57  ILE57       0.1727
     73  C         73.1580   99.7940   37.2040 C.2    57  ILE57       0.2616
     74  O         72.6030   98.7120   37.0010 O.2    57  ILE57      -0.2715
     75  CB        71.2390  101.1140   38.0200 C.3    57  ILE57       0.0290
     76  CG1       70.5470  102.4800   37.9320 C.3    57  ILE57       0.0022
     77  CG2       71.7200  100.8110   39.4480 C.3    57  ILE57       0.0023
     78  CD1       69.1560  102.4440   38.4970 C.3    57  ILE57       0.0001
     79  N         74.4240   99.9150   37.6190 N.am   58  LEU58      -0.1977
     80  CA        75.2220   98.7480   37.9030 C.3    58  LEU58       0.1596
     81  C         75.3520   98.5430   39.4020 C.2    58  LEU58       0.2287
     82  O         75.8970   99.3900   40.1240 O.2    58  LEU58      -0.2864
     83  CB        76.5940   98.8590   37.2600 C.3    58  LEU58       0.0297
     84  CG        77.2950   97.4840   37.2680 C.3    58  LEU58       0.0022
     85  CD1       76.6650   96.5590   36.2190 C.3    58  LEU58       0.0001
     86  CD2       78.7960   97.6680   37.0950 C.3    58  LEU58       0.0001
     87  N         87.7260   93.3260   36.1440 N.3    65  MET65      -0.1245
     88  CA        86.2880   93.6900   36.0290 C.3    65  MET65       0.1570
     89  C         85.8920   94.8870   36.8890 C.2    65  MET65       0.2261
     90  O         85.1810   95.7740   36.3990 O.2    65  MET65      -0.2867
     91  CB        85.3690   92.5020   36.3630 C.3    65  MET65       0.0387
     92  CG        83.9150   92.8710   36.1850 C.3    65  MET65       0.0595
     93  SD        83.3700   92.2540   34.5310 S.3    65  MET65      -0.1393
     94  CE        83.0820   90.5150   35.1060 C.3    65  MET65       0.0692
     95  N         86.9430   98.0050   35.0850 N.3    68  GLN68      -0.1231
     96  CA        86.1610   98.2940   33.8660 C.3    68  GLN68       0.1698
     97  C         84.9130   99.0900   34.2370 C.2    68  GLN68       0.2592
     98  O         84.6890  100.1580   33.6660 O.2    68  GLN68      -0.2718
     99  CB        85.7660   97.0240   33.0750 C.3    68  GLN68       0.0381
    100  CG        86.9320   96.2870   32.4700 C.3    68  GLN68       0.0905
    101  CD        86.6520   94.8360   32.0430 C.2    68  GLN68       0.2608
    102  OE1       85.7130   94.1810   32.5090 O.2    68  GLN68      -0.2717
    103  NE2       87.5010   94.3170   31.1580 N.am   68  GLN68      -0.0878
    104  N         84.1420   98.6160   35.2300 N.am   69  TYR69      -0.1976
    105  CA        82.9120   99.3150   35.6030 C.3    69  TYR69       0.1639
    106  C         83.1140  100.6840   36.2640 C.2    69  TYR69       0.2290
    107  O         82.2990  101.5690   36.0960 O.2    69  TYR69      -0.2864
    108  CB        81.9440   98.4310   36.3960 C.3    69  TYR69       0.0560
    109  CG        82.2750   98.0790   37.8350 C.ar   69  TYR69      -0.0198
    110  CD1       82.4190   99.0630   38.8370 C.ar   69  TYR69      -0.0009
    111  CD2       82.3590   96.7310   38.2290 C.ar   69  TYR69      -0.0009
    112  CE1       82.6810   98.7200   40.1620 C.ar   69  TYR69       0.0417
    113  CE2       82.6190   96.3760   39.5450 C.ar   69  TYR69       0.0417
    114  CZ        82.7880   97.3760   40.5100 C.ar   69  TYR69       0.1957
    115  OH        83.0180   97.0390   41.8210 O.3    69  TYR69      -0.2866
    116  N         83.7700  103.0580   33.1580 N.3    72  THR72      -0.1203
    117  CA        82.5880  103.4570   32.3610 C.3    72  THR72       0.1994
    118  C         81.5450  104.2620   33.1570 C.2    72  THR72       0.2618
    119  O         80.7770  105.0220   32.5410 O.2    72  THR72      -0.2717
    120  CB        81.8550  102.2580   31.6750 C.3    72  THR72       0.1784
    121  OG1       81.2240  101.4280   32.6610 O.3    72  THR72      -0.2211
    122  CG2       82.8240  101.4140   30.8350 C.3    72  THR72       0.0376
    123  N         81.5110  104.1210   34.4980 N.am   73  GLY73      -0.1956
    124  CA        80.4460  104.7450   35.2870 C.3    73  GLY73       0.1869
    125  C         80.6300  106.2370   35.3900 C.2    73  GLY73       0.2309
    126  O         81.7350  106.7190   35.6380 O.2    73  GLY73      -0.2863
@<TRIPOS>BOND
     1     8     7   ar
     2     7     9   ar
     3     7     6    1
     4    61    60    1
     5    62    60    1
     6     5     6    1
     7     5     2    1
     8    60    59    2
     9     1     2    1
    10    18    17    1
    11     2     3    1
    12    59    58    1
    13    17    16    1
    14    58    57    1
    15     4     3    2
    16    70    68   ar
    17    16    15    1
    18    69    68   ar
    19   122   120    1
    20    68    67    1
    21   103   101   am
    22    57    56    1
    23    15    14    1
    24   120   117    1
    25   120   121    1
    26   101   100    1
    27   101   102    2
    28    56    53    1
    29   117   118    1
    30   117   116    1
    31    67    64    1
    32   100    99    1
    33   119   118    2
    34    14    11    1
    35    99    96    1
    36   118   123   am
    37    10    11    1
    38    64    63    1
    39    64    65    1
    40    53    54    1
    41    53    52    1
    42    98    97    2
    43    39    38    1
    44    11    12    1
    45    96    97    1
    46    96    95    1
    47    54    55    2
    48    97   104   am
    49    38    35    1
    50   123   124    1
    51    93    94    1
    52    93    92    1
    53    52    42   am
    54    43    42    2
    55    65    66    2
    56    65    71   am
    57    42    41    1
    58    37    36    2
    59   104   105    1
    60   124   125    1
    61    12    13    2
    62    12    19   am
    63   125   126    2
    64    36    40   am
    65    36    35    1
    66   105   106    1
    67   105   108    1
    68    71    72    1
    69    41    40    1
    70    41    44    1
    71    35    34    1
    72    88    87    1
    73    88    91    1
    74    88    89    1
    75   107   106    2
    76    92    91    1
    77    19    20    1
    78    85    84    1
    79   108   109    1
    80    90    89    2
    81    74    73    2
    82    72    73    1
    83    72    75    1
    84    44    45    1
    85    86    84    1
    86    73    79   am
    87    83    84    1
    88    83    80    1
    89    26    24    1
    90    24    23    1
    91    24    25    1
    92    79    80    1
    93    20    23    1
    94    20    21    1
    95   109   111   ar
    96   109   110   ar
    97    46    45   ar
    98    46    48   ar
    99    80    81    1
   100    76    75    1
   101    76    78    1
   102    45    47   ar
   103    22    21    2
   104    75    77    1
   105    33    31    1
   106   111   113   ar
   107    21    27   am
   108    48    50   ar
   109   110   112   ar
   110    47    49   ar
   111    27    28    1
   112    81    82    2
   113   113   114   ar
   114    31    28    1
   115    31    32    1
   116    50    49   ar
   117    50    51    1
   118    28    29    1
   119   112   114   ar
   120   114   115    1
   121    29    30    2
