@<TRIPOS>MOLECULE
tmp/6fa3B00.pdb
 118 114 0 0 0
SMALL
GASTEIGER

@<TRIPOS>ATOM
      1  N         64.4510   96.2170   25.3370 N.3     6  GLU6       -0.1245
      2  CA        65.0690   96.9620   24.2480 C.3     6  GLU6        0.1567
      3  C         64.9320   96.1910   22.9560 C.2     6  GLU6        0.2260
      4  O         65.0060   94.9730   22.9670 O.2     6  GLU6       -0.2867
      5  CB        66.5210   97.1660   24.6140 C.3     6  GLU6        0.0388
      6  CG        67.2280   98.1960   23.8540 C.3     6  GLU6        0.1160
      7  CD        68.6380   98.3890   24.5840 C.2     6  GLU6        0.3649
      8  OE1       69.2870   99.4590   24.5920 O.co2   6  GLU6       -0.2457
      9  OE2       69.1240   97.4030   25.2260 O.co2   6  GLU6       -0.2457
     10  N         66.3020   96.1510   18.8850 N.3     8  LYS8       -0.1231
     11  CA        67.2440   96.6990   17.9340 C.3     8  LYS8        0.1693
     12  C         66.6650   96.6270   16.5380 C.2     8  LYS8        0.2592
     13  O         66.5430   95.5300   15.9650 O.2     8  LYS8       -0.2718
     14  CB        68.5700   95.9470   18.0170 C.3     8  LYS8        0.0285
     15  CG        69.3440   96.1580   19.3210 C.3     8  LYS8        0.0035
     16  CD        70.7540   95.5140   19.1500 C.3     8  LYS8        0.0206
     17  CE        71.7400   96.0490   20.1840 C.3     8  LYS8        0.1093
     18  NZ        71.2840   95.7660   21.5840 N.3     8  LYS8       -0.1314
     19  N         66.3530   97.7760   15.9670 N.am    9  LEU9       -0.1966
     20  CA        65.6620   97.8750   14.6900 C.3     9  LEU9        0.1728
     21  C         66.6500   98.4830   13.6820 C.2     9  LEU9        0.2616
     22  O         67.3470   99.3920   14.0020 O.2     9  LEU9       -0.2715
     23  CB        64.4190   98.7460   14.7680 C.3     9  LEU9        0.0311
     24  CG        63.4720   98.4690   15.9350 C.3     9  LEU9        0.0022
     25  CD1       62.2140   99.3590   15.8480 C.3     9  LEU9        0.0001
     26  CD2       63.0870   96.9940   16.0280 C.3     9  LEU9        0.0001
     27  N         66.6610   97.9800   12.4640 N.am   10  VAL10      -0.1977
     28  CA        67.4930   98.5000   11.4230 C.3    10  VAL10       0.1596
     29  C         66.6390   98.9060   10.2360 C.2    10  VAL10       0.2287
     30  O         65.7780   98.1400    9.8250 O.2    10  VAL10      -0.2864
     31  CB        68.5160   97.4170   10.9680 C.3    10  VAL10       0.0276
     32  CG1       69.4360   97.9770    9.9080 C.3    10  VAL10       0.0022
     33  CG2       69.3180   96.8820   12.1580 C.3    10  VAL10       0.0022
     34  N         72.3260  106.5540   14.6040 N.3    42  SER42      -0.1202
     35  CA        71.7430  105.7850   15.6770 C.3    42  SER42       0.2020
     36  C         70.7190  106.6630   16.4020 C.2    42  SER42       0.2619
     37  O         71.0230  107.8470   16.6950 O.2    42  SER42      -0.2717
     38  CB        72.8710  105.5200   16.6890 C.3    42  SER42       0.2103
     39  OG        73.9100  104.6960   16.1800 O.3    42  SER42      -0.2182
     40  N         69.5440  106.1300   16.6980 N.am   43  TYR43      -0.1961
     41  CA        68.4630  106.8580   17.3670 C.3    43  TYR43       0.1771
     42  C         67.8830  105.9820   18.4520 C.2    43  TYR43       0.2619
     43  O         68.0410  104.7460   18.4130 O.2    43  TYR43      -0.2715
     44  CB        67.3270  107.2000   16.4100 C.3    43  TYR43       0.0574
     45  CG        67.7530  108.1210   15.3090 C.ar   43  TYR43      -0.0198
     46  CD1       68.3680  107.6350   14.1370 C.ar   43  TYR43      -0.0009
     47  CD2       67.5430  109.4840   15.4160 C.ar   43  TYR43      -0.0009
     48  CE1       68.7270  108.5110   13.1360 C.ar   43  TYR43       0.0417
     49  CE2       67.8630  110.3250   14.3860 C.ar   43  TYR43       0.0417
     50  CZ        68.4770  109.8230   13.2540 C.ar   43  TYR43       0.1957
     51  OH        68.7990  110.7610   12.2840 O.3    43  TYR43      -0.2866
     52  N         67.1860  106.5610   19.4080 N.am   44  ARG44      -0.1977
     53  CA        66.4510  105.8220   20.3650 C.3    44  ARG44       0.1597
     54  C         65.1840  106.4970   20.8250 C.2    44  ARG44       0.2287
     55  O         65.1290  107.6860   20.8820 O.2    44  ARG44      -0.2864
     56  CB        67.3110  105.4030   21.5590 C.3    44  ARG44       0.0334
     57  CG        67.5890  106.3440   22.5500 C.3    44  ARG44       0.0492
     58  CD        68.5700  105.6270   23.5660 C.3    44  ARG44       0.2205
     59  NE        69.4620  106.6500   24.0710 N.pl3  44  ARG44      -0.0865
     60  CZ        70.6820  106.4230   24.5810 C.cat  44  ARG44       0.5346
     61  NH1       71.1500  105.2060   24.7340 N.pl3  44  ARG44       0.1354
     62  NH2       71.4150  107.4420   24.9580 N.pl3  44  ARG44       0.1354
     63  N         65.9400  100.9480   19.8080 N.3    57  ASP57      -0.1225
     64  CA        67.2640  101.3960   19.3600 C.3    57  ASP57       0.1805
     65  C         67.2760  101.2350   17.8410 C.2    57  ASP57       0.2598
     66  O         67.1060  100.1230   17.3420 O.2    57  ASP57      -0.2718
     67  CB        68.3590  100.4700   19.9090 C.3    57  ASP57       0.1424
     68  CG        68.7350  100.7350   21.3580 C.2    57  ASP57       0.3668
     69  OD1       68.3950  101.8250   21.8480 O.co2  57  ASP57      -0.2456
     70  OD2       69.2170   99.7830   22.0020 O.co2  57  ASP57      -0.2456
     71  N         67.3860  102.3240   17.1290 N.am   58  ILE58      -0.1966
     72  CA        67.1140  102.3000   15.6920 C.3    58  ILE58       0.1727
     73  C         68.4090  102.6880   14.9500 C.2    58  ILE58       0.2616
     74  O         69.0210  103.7460   15.2190 O.2    58  ILE58      -0.2715
     75  CB        66.0270  103.3050   15.3420 C.3    58  ILE58       0.0290
     76  CG1       64.7340  102.9430   16.0900 C.3    58  ILE58       0.0022
     77  CG2       65.8500  103.4610   13.8610 C.3    58  ILE58       0.0023
     78  CD1       63.7310  104.0420   16.1520 C.3    58  ILE58       0.0001
     79  N         68.8060  101.8370   14.0310 N.am   59  LEU59      -0.1977
     80  CA        69.9710  102.1160   13.1760 C.3    59  LEU59       0.1596
     81  C         69.5020  102.4840   11.7910 C.2    59  LEU59       0.2287
     82  O         68.8340  101.7070   11.1130 O.2    59  LEU59      -0.2864
     83  CB        70.8740  100.9060   13.1800 C.3    59  LEU59       0.0297
     84  CG        72.2340  101.1830   12.6220 C.3    59  LEU59       0.0022
     85  CD1       73.0880  100.0390   13.2590 C.3    59  LEU59       0.0001
     86  CD2       72.3280  101.0760   11.1730 C.3    59  LEU59       0.0001
     87  N         78.1850   93.4590   10.2820 N.3    73  GLN73      -0.1231
     88  CA        78.1420   93.2590   11.7420 C.3    73  GLN73       0.1698
     89  C         76.7730   93.7710   12.3300 C.2    73  GLN73       0.2592
     90  O         76.0420   93.0190   13.0450 O.2    73  GLN73      -0.2718
     91  CB        79.3230   93.9060   12.4470 C.3    73  GLN73       0.0381
     92  CG        79.4150   93.5020   13.8920 C.3    73  GLN73       0.0905
     93  CD        79.8080   92.0480   14.0490 C.2    73  GLN73       0.2608
     94  OE1       80.7750   91.5310   13.4460 O.2    73  GLN73      -0.2717
     95  NE2       79.0450   91.3170   14.8590 N.am   73  GLN73      -0.0878
     96  N         76.4220   95.0020   12.0100 N.am   74  TYR74      -0.1976
     97  CA        75.1240   95.5290   12.5400 C.3    74  TYR74       0.1639
     98  C         73.8890   94.8490   11.9420 C.2    74  TYR74       0.2290
     99  O         72.8520   94.7060   12.5620 O.2    74  TYR74      -0.2864
    100  CB        75.0860   97.0400   12.4940 C.3    74  TYR74       0.0560
    101  CG        74.9700   97.7100   11.1580 C.ar   74  TYR74      -0.0198
    102  CD1       73.8320   97.4880   10.3390 C.ar   74  TYR74      -0.0009
    103  CD2       75.9180   98.6680   10.7300 C.ar   74  TYR74      -0.0009
    104  CE1       73.6900   98.1480    9.1230 C.ar   74  TYR74       0.0417
    105  CE2       75.7350   99.3360    9.5200 C.ar   74  TYR74       0.0417
    106  CZ        74.6070   99.0780    8.7320 C.ar   74  TYR74       0.1957
    107  OH        74.4050   99.7330    7.5440 O.3    74  TYR74      -0.2866
    108  N         73.4730   91.7960   14.0990 N.3    77  THR77      -0.1203
    109  CA        73.0070   92.1030   15.4530 C.3    77  THR77       0.1994
    110  C         71.5630   92.6110   15.4990 C.2    77  THR77       0.2618
    111  O         70.8470   92.3610   16.4250 O.2    77  THR77      -0.2717
    112  CB        73.9580   93.1590   16.0790 C.3    77  THR77       0.1784
    113  OG1       75.2870   92.5890   16.1180 O.3    77  THR77      -0.2211
    114  CG2       73.5240   93.5720   17.4970 C.3    77  THR77       0.0376
    115  N         71.1180   93.3260   14.4750 N.am   78  GLY78      -0.1956
    116  CA        69.6870   93.7540   14.3310 C.3    78  GLY78       0.1869
    117  C         68.6570   92.6880   14.5880 C.2    78  GLY78       0.2309
    118  O         68.8420   91.5550   14.1440 O.2    78  GLY78      -0.2863
@<TRIPOS>BOND
     1   107   106    1
     2   106   104   ar
     3   106   105   ar
     4   104   102   ar
     5   105   103   ar
     6    30    29    2
     7    32    31    1
     8    29    28    1
     9    87    88    1
    10   102   101   ar
    11   103   101   ar
    12    31    28    1
    13    31    33    1
    14    82    81    2
    15   101   100    1
    16    86    84    1
    17    28    27    1
    18    88    89    1
    19    88    91    1
    20    81    80    1
    21    98    97    1
    22    98    99    2
    23    96    89   am
    24    96    97    1
    25    51    50    1
    26    89    90    2
    27    91    92    1
    28    27    21   am
    29   100    97    1
    30    84    83    1
    31    84    85    1
    32    48    50   ar
    33    48    46   ar
    34    80    83    1
    35    80    79    1
    36    50    49   ar
    37    94    93    2
    38    21    22    2
    39    21    20    1
    40    77    75    1
    41    92    93    1
    42    79    73   am
    43    93    95   am
    44   108   109    1
    45    46    45   ar
    46   118   117    2
    47   116   115    1
    48   116   117    1
    49    49    47   ar
    50   115   110   am
    51    34    35    1
    52    20    23    1
    53    20    19    1
    54    23    24    1
    55    73    74    2
    56    73    72    1
    57    45    47   ar
    58    45    44    1
    59    75    72    1
    60    75    76    1
    61   109   110    1
    62   109   112    1
    63   110   111    2
    64    35    36    1
    65    35    38    1
    66    72    71    1
    67    25    24    1
    68    24    26    1
    69    13    12    2
    70    19    12   am
    71   112   113    1
    72   112   114    1
    73    76    78    1
    74    39    38    1
    75    36    37    2
    76    36    40   am
    77    44    41    1
    78    12    11    1
    79    40    41    1
    80    71    65   am
    81    66    65    2
    82    41    42    1
    83    65    64    1
    84    11    14    1
    85    11    10    1
    86    14    15    1
    87    43    42    2
    88    42    52   am
    89    16    15    1
    90    16    17    1
    91    64    63    1
    92    64    67    1
    93    52    53    1
    94    67    68    1
    95    17    18    1
    96    53    54    1
    97    53    56    1
    98    54    55    2
    99    68    69   ar
   100    68    70   ar
   101    56    57    1
   102    57    58    1
   103     3     4    2
   104     3     2    1
   105    58    59    1
   106     6     7    1
   107     6     5    1
   108    59    60    2
   109     2     5    1
   110     2     1    1
   111    60    61    1
   112    60    62    1
   113     7     8   ar
   114     7     9   ar
