@<TRIPOS>MOLECULE
tmp/6fa4B01.pdb
 118 114 0 0 0
SMALL
GASTEIGER

@<TRIPOS>ATOM
      1  N         64.6500   96.4280   25.4950 N.3     7  GLU7       -0.1245
      2  CA        65.1770   97.1880   24.3650 C.3     7  GLU7        0.1567
      3  C         65.0110   96.3540   23.0900 C.2     7  GLU7        0.2260
      4  O         65.1170   95.1390   23.1300 O.2     7  GLU7       -0.2867
      5  CB        66.6510   97.4640   24.5960 C.3     7  GLU7        0.0388
      6  CG        66.8800   98.4560   25.7030 C.3     7  GLU7        0.1160
      7  CD        68.2480   99.0770   25.7710 C.2     7  GLU7        0.3649
      8  OE1       68.5340   99.4440   26.9700 O.co2   7  GLU7       -0.2457
      9  OE2       68.9680   99.2660   24.7100 O.co2   7  GLU7       -0.2457
     10  N         66.4100   96.3010   18.9980 N.3     9  LYS9       -0.1231
     11  CA        67.3570   96.8450   18.0520 C.3     9  LYS9        0.1693
     12  C         66.8000   96.7450   16.6500 C.2     9  LYS9        0.2592
     13  O         66.6290   95.6480   16.1250 O.2     9  LYS9       -0.2718
     14  CB        68.6570   96.0810   18.1730 C.3     9  LYS9        0.0285
     15  CG        69.2960   96.2390   19.5640 C.3     9  LYS9        0.0035
     16  CD        70.6600   95.5580   19.4990 C.3     9  LYS9        0.0206
     17  CE        71.5600   95.9090   20.7000 C.3     9  LYS9        0.1093
     18  NZ        72.5910   96.7300   19.9990 N.3     9  LYS9       -0.1314
     19  N         66.4740   97.9110   16.0770 N.am   10  LEU10      -0.1966
     20  CA        65.7610   97.9980   14.8010 C.3    10  LEU10       0.1728
     21  C         66.7220   98.6330   13.8060 C.2    10  LEU10       0.2616
     22  O         67.4260   99.5450   14.1560 O.2    10  LEU10      -0.2715
     23  CB        64.5320   98.8870   14.9320 C.3    10  LEU10       0.0311
     24  CG        63.5970   98.6300   16.0650 C.3    10  LEU10       0.0022
     25  CD1       62.3300   99.4690   15.9730 C.3    10  LEU10       0.0001
     26  CD2       63.2140   97.1510   16.2020 C.3    10  LEU10       0.0001
     27  N         66.7140   98.1450   12.5670 N.am   11  VAL11      -0.1977
     28  CA        67.5570   98.6300   11.5300 C.3    11  VAL11       0.1596
     29  C         66.6790   99.0110   10.3490 C.2    11  VAL11       0.2287
     30  O         65.8210   98.2420    9.9380 O.2    11  VAL11      -0.2864
     31  CB        68.5480   97.5240   11.0380 C.3    11  VAL11       0.0276
     32  CG1       69.4720   98.0950    9.9690 C.3    11  VAL11       0.0022
     33  CG2       69.3610   96.9010   12.2110 C.3    11  VAL11       0.0022
     34  N         72.5100  106.7940   14.7200 N.3    43  SER43      -0.1202
     35  CA        71.9090  106.0360   15.8230 C.3    43  SER43       0.2020
     36  C         70.8760  106.8730   16.5380 C.2    43  SER43       0.2619
     37  O         71.1720  108.0300   16.8590 O.2    43  SER43      -0.2717
     38  CB        73.0220  105.7270   16.8240 C.3    43  SER43       0.2103
     39  OG        73.9840  104.8790   16.1960 O.3    43  SER43      -0.2182
     40  N         69.6790  106.3340   16.7600 N.am   44  TYR44      -0.1961
     41  CA        68.5710  107.0270   17.4310 C.3    44  TYR44       0.1771
     42  C         67.9820  106.1490   18.5450 C.2    44  TYR44       0.2619
     43  O         68.1890  104.9290   18.5700 O.2    44  TYR44      -0.2715
     44  CB        67.4750  107.3310   16.4430 C.3    44  TYR44       0.0574
     45  CG        67.8990  108.2580   15.3310 C.ar   44  TYR44      -0.0198
     46  CD1       68.5080  107.8000   14.1960 C.ar   44  TYR44      -0.0009
     47  CD2       67.6210  109.6100   15.4440 C.ar   44  TYR44      -0.0009
     48  CE1       68.8490  108.6980   13.1820 C.ar   44  TYR44       0.0417
     49  CE2       67.9610  110.4780   14.4600 C.ar   44  TYR44       0.0417
     50  CZ        68.6060  110.0300   13.3330 C.ar   44  TYR44       0.1957
     51  OH        68.9290  110.9170   12.3350 O.3    44  TYR44      -0.2866
     52  N         67.2550  106.7400   19.4690 N.am   45  ARG45      -0.1977
     53  CA        66.5530  105.9960   20.5140 C.3    45  ARG45       0.1597
     54  C         65.2880  106.6840   20.9170 C.2    45  ARG45       0.2287
     55  O         65.2610  107.9420   20.9230 O.2    45  ARG45      -0.2864
     56  CB        67.4240  105.5540   21.7200 C.3    45  ARG45       0.0334
     57  CG        68.0690  106.6260   22.4280 C.3    45  ARG45       0.0492
     58  CD        68.6260  106.0690   23.7400 C.3    45  ARG45       0.2205
     59  NE        69.5490  107.0560   24.2590 N.pl3  45  ARG45      -0.0865
     60  CZ        70.7640  106.7980   24.7710 C.cat  45  ARG45       0.5346
     61  NH1       71.2520  105.5450   24.8870 N.pl3  45  ARG45       0.1354
     62  NH2       71.5070  107.8320   25.1860 N.pl3  45  ARG45       0.1354
     63  N         66.0730  101.1100   19.9190 N.3    58  ASP58      -0.1225
     64  CA        67.4000  101.5110   19.4970 C.3    58  ASP58       0.1805
     65  C         67.4160  101.3800   17.9810 C.2    58  ASP58       0.2598
     66  O         67.3130  100.2550   17.4480 O.2    58  ASP58      -0.2718
     67  CB        68.4580  100.5670   20.0690 C.3    58  ASP58       0.1424
     68  CG        68.6740  100.7030   21.6140 C.2    58  ASP58       0.3668
     69  OD1       68.3400  101.8460   22.1290 O.co2  58  ASP58      -0.2456
     70  OD2       69.0680   99.6550   22.2480 O.co2  58  ASP58      -0.2456
     71  N         67.4960  102.4900   17.2810 N.am   59  ILE59      -0.1966
     72  CA        67.2520  102.4810   15.8340 C.3    59  ILE59       0.1727
     73  C         68.5410  102.8750   15.0990 C.2    59  ILE59       0.2616
     74  O         69.1670  103.9160   15.4110 O.2    59  ILE59      -0.2715
     75  CB        66.1340  103.4690   15.4780 C.3    59  ILE59       0.0290
     76  CG1       64.8440  103.0550   16.1640 C.3    59  ILE59       0.0022
     77  CG2       65.9850  103.6460   13.9900 C.3    59  ILE59       0.0023
     78  CD1       63.8040  104.1590   16.2370 C.3    59  ILE59       0.0001
     79  N         68.9160  102.0520   14.1340 N.am   60  LEU60      -0.1977
     80  CA        70.0680  102.3070   13.2810 C.3    60  LEU60       0.1596
     81  C         69.6070  102.6640   11.9040 C.2    60  LEU60       0.2287
     82  O         68.9160  101.8700   11.2240 O.2    60  LEU60      -0.2864
     83  CB        70.9800  101.0510   13.1970 C.3    60  LEU60       0.0297
     84  CG        72.3600  101.3790   12.6670 C.3    60  LEU60       0.0022
     85  CD1       73.1870  102.2610   13.6250 C.3    60  LEU60       0.0001
     86  CD2       73.1130  100.0060   12.8250 C.3    60  LEU60       0.0001
     87  N         78.1480   93.5740   10.4940 N.3    74  GLN74      -0.1231
     88  CA        78.0740   93.5060   11.9560 C.3    74  GLN74       0.1698
     89  C         76.7020   93.9880   12.4940 C.2    74  GLN74       0.2592
     90  O         76.0420   93.2920   13.2980 O.2    74  GLN74      -0.2718
     91  CB        79.2290   94.3050   12.5990 C.3    74  GLN74       0.0381
     92  CG        79.3220   94.1470   14.0970 C.3    74  GLN74       0.0905
     93  CD        79.5820   92.7100   14.4640 C.2    74  GLN74       0.2608
     94  OE1       78.7040   92.0380   14.9860 O.2    74  GLN74      -0.2717
     95  NE2       80.7950   92.2190   14.2500 N.am   74  GLN74      -0.0878
     96  N         76.2690   95.1410   12.0430 N.am   75  TYR75      -0.1976
     97  CA        74.9880   95.6870   12.5590 C.3    75  TYR75       0.1639
     98  C         73.7760   94.9440   12.0170 C.2    75  TYR75       0.2290
     99  O         72.7290   94.8710   12.6440 O.2    75  TYR75      -0.2864
    100  CB        74.9100   97.1990   12.4310 C.3    75  TYR75       0.0560
    101  CG        74.8500   97.7880   11.0440 C.ar   75  TYR75      -0.0198
    102  CD1       73.7490   97.5030   10.1850 C.ar   75  TYR75      -0.0009
    103  CD2       75.8190   98.7650   10.6190 C.ar   75  TYR75      -0.0009
    104  CE1       73.6420   98.1060    8.9510 C.ar   75  TYR75       0.0417
    105  CE2       75.6660   99.3740    9.3720 C.ar   75  TYR75       0.0417
    106  CZ        74.5850   99.0450    8.5520 C.ar   75  TYR75       0.1957
    107  OH        74.5410   99.6570    7.3440 O.3    75  TYR75      -0.2866
    108  N         73.6010   92.0550   14.4180 N.3    78  THR78      -0.1203
    109  CA        73.1130   92.4880   15.7510 C.3    78  THR78       0.1994
    110  C         71.6630   92.9170   15.7510 C.2    78  THR78       0.2618
    111  O         70.9640   92.7300   16.7010 O.2    78  THR78      -0.2717
    112  CB        73.9770   93.6420   16.2640 C.3    78  THR78       0.1784
    113  OG1       75.3310   93.2340   16.2690 O.3    78  THR78      -0.2211
    114  CG2       73.5560   94.1570   17.6330 C.3    78  THR78       0.0376
    115  N         71.1950   93.5260   14.6680 N.am   79  GLY79      -0.1956
    116  CA        69.7910   93.8560   14.4920 C.3    79  GLY79       0.1869
    117  C         68.7870   92.7750   14.6980 C.2    79  GLY79       0.2309
    118  O         68.9710   91.6770   14.1850 O.2    79  GLY79      -0.2863
@<TRIPOS>BOND
     1   107   106    1
     2   106   104   ar
     3   106   105   ar
     4   104   102   ar
     5   105   103   ar
     6    30    29    2
     7    32    31    1
     8   102   101   ar
     9    29    28    1
    10    87    88    1
    11   103   101   ar
    12    31    28    1
    13    31    33    1
    14   101   100    1
    15    82    81    2
    16    28    27    1
    17    81    80    1
    18    88    89    1
    19    88    91    1
    20    98    97    1
    21    98    99    2
    22    96    89   am
    23    96    97    1
    24    51    50    1
    25   100    97    1
    26    89    90    2
    27    27    21   am
    28    91    92    1
    29    84    86    1
    30    84    83    1
    31    84    85    1
    32    48    50   ar
    33    48    46   ar
    34    83    80    1
    35    80    79    1
    36    50    49   ar
    37    21    22    2
    38    21    20    1
    39    77    75    1
    40    92    93    1
    41    79    73   am
    42   118   117    2
    43    46    45   ar
    44    95    93   am
    45   108   109    1
    46    49    47   ar
    47    93    94    2
    48   116   115    1
    49   116   117    1
    50   115   110   am
    51    34    35    1
    52    20    23    1
    53    20    19    1
    54    23    24    1
    55    73    74    2
    56    73    72    1
    57    45    47   ar
    58    45    44    1
    59    75    72    1
    60    75    76    1
    61   110   109    1
    62   110   111    2
    63   109   112    1
    64    35    36    1
    65    35    38    1
    66    72    71    1
    67    25    24    1
    68    24    26    1
    69    19    12   am
    70    13    12    2
    71    76    78    1
    72    39    38    1
    73   112   113    1
    74   112   114    1
    75    44    41    1
    76    36    40   am
    77    36    37    2
    78    12    11    1
    79    40    41    1
    80    71    65   am
    81    41    42    1
    82    66    65    2
    83    65    64    1
    84    11    14    1
    85    11    10    1
    86    14    15    1
    87    42    43    2
    88    42    52   am
    89    52    53    1
    90    64    63    1
    91    64    67    1
    92    16    15    1
    93    16    17    1
    94    18    17    1
    95    67    68    1
    96    53    54    1
    97    53    56    1
    98    54    55    2
    99    68    69   ar
   100    68    70   ar
   101    56    57    1
   102    57    58    1
   103     3     4    2
   104     3     2    1
   105    58    59    1
   106    59    60    2
   107     2     5    1
   108     2     1    1
   109     5     6    1
   110     9     7   ar
   111    60    61    1
   112    60    62    1
   113     6     7    1
   114     7     8   ar
