@<TRIPOS>MOLECULE
tmp/6fafA00.pdb
 175 172 0 0 0
SMALL
GASTEIGER

@<TRIPOS>ATOM
      1  N         22.0960   38.1240    9.7040 N.3    61  HIS61      -0.1241
      2  CA        22.3770   38.8770   10.9410 C.3    61  HIS61       0.1621
      3  C         22.8670   37.9980   12.0970 C.2    61  HIS61       0.2264
      4  O         23.4410   38.5040   13.0650 O.2    61  HIS61      -0.2867
      5  CB        21.1570   39.6910   11.3800 C.3    61  HIS61       0.0745
      6  CG        19.9530   38.8590   11.6880 C.ar   61  HIS61       0.0817
      7  ND1       19.6630   38.4090   12.9600 N.ar   61  HIS61      -0.2268
      8  CD2       18.9630   38.3950   10.8890 C.ar   61  HIS61       0.1154
      9  CE1       18.5450   37.7050   12.9300 C.ar   61  HIS61       0.1986
     10  NE2       18.1000   37.6820   11.6840 N.ar   61  HIS61      -0.2212
     11  N         20.9280   30.3980   13.4030 N.3    64  HIS64      -0.1241
     12  CA        19.9040   29.7490   14.2110 C.3    64  HIS64       0.1621
     13  C         20.0830   28.2600   14.1970 C.2    64  HIS64       0.2264
     14  O         20.4270   27.6790   13.1660 O.2    64  HIS64      -0.2867
     15  CB        18.5060   30.0630   13.6830 C.3    64  HIS64       0.0745
     16  CG        18.1240   31.5110   13.7580 C.ar   64  HIS64       0.0817
     17  ND1       17.0660   32.0280   13.0450 N.ar   64  HIS64      -0.2268
     18  CD2       18.6420   32.5440   14.4670 C.ar   64  HIS64       0.1154
     19  CE1       16.9460   33.3190   13.3080 C.ar   64  HIS64       0.1986
     20  NE2       17.8910   33.6580   14.1680 N.ar   64  HIS64      -0.2212
     21  N         11.6780   25.4230   19.9120 N.3    88  PHE88      -0.1227
     22  CA        11.8470   25.5010   18.4590 C.3    88  PHE88       0.1736
     23  C         13.2350   25.9140   17.9590 C.2    88  PHE88       0.2595
     24  O         13.6200   25.5660   16.8400 O.2    88  PHE88      -0.2718
     25  CB        10.7300   26.3030   17.7850 C.3    88  PHE88       0.0547
     26  CG        10.8040   27.7920   18.0030 C.ar   88  PHE88      -0.0202
     27  CD1       10.2210   28.3720   19.1220 C.ar   88  PHE88      -0.0042
     28  CD2       11.4110   28.6170   17.0550 C.ar   88  PHE88      -0.0042
     29  CE1       10.2580   29.7560   19.3010 C.ar   88  PHE88      -0.0003
     30  CE2       11.4620   30.0050   17.2280 C.ar   88  PHE88      -0.0003
     31  CZ        10.8780   30.5720   18.3530 C.ar   88  PHE88      -0.0000
     32  N         13.9830   26.6450   18.7880 N.am   89  GLN89      -0.1979
     33  CA        15.2440   27.2500   18.3570 C.3    89  GLN89       0.1601
     34  C         16.1450   27.6550   19.5090 C.2    89  GLN89       0.2287
     35  O         15.6690   27.9310   20.6080 O.2    89  GLN89      -0.2864
     36  CB        14.9360   28.4960   17.5300 C.3    89  GLN89       0.0394
     37  CG        16.1330   29.1800   16.9160 C.3    89  GLN89       0.0908
     38  CD        15.7500   30.4600   16.2340 C.2    89  GLN89       0.2608
     39  OE1       15.9670   31.5450   16.7690 O.2    89  GLN89      -0.2717
     40  NE2       15.1730   30.3460   15.0410 N.am   89  GLN89      -0.0878
     41  N         19.7940   30.3880   19.5750 N.3    91  HIS91      -0.1241
     42  CA        20.7780   31.2320   18.8830 C.3    91  HIS91       0.1621
     43  C         21.5690   32.0740   19.9050 C.2    91  HIS91       0.2264
     44  O         21.3150   31.9890   21.1040 O.2    91  HIS91      -0.2867
     45  CB        20.0900   32.1370   17.8580 C.3    91  HIS91       0.0745
     46  CG        19.1490   33.1280   18.4600 C.ar   91  HIS91       0.0817
     47  ND1       17.7950   32.9010   18.5480 N.ar   91  HIS91      -0.2268
     48  CD2       19.3630   34.3490   19.0060 C.ar   91  HIS91       0.1154
     49  CE1       17.2180   33.9310   19.1380 C.ar   91  HIS91       0.1986
     50  NE2       18.1440   34.8280   19.4150 N.ar   91  HIS91      -0.2212
     51  N         23.6190   36.0870   20.7110 N.3    93  HIS93      -0.1241
     52  CA        23.9610   37.4680   20.3760 C.3    93  HIS93       0.1621
     53  C         25.3740   37.7550   20.8770 C.2    93  HIS93       0.2264
     54  O         25.7880   37.2320   21.9050 O.2    93  HIS93      -0.2867
     55  CB        22.9610   38.4430   21.0010 C.3    93  HIS93       0.0745
     56  CG        21.5560   38.2400   20.5330 C.ar   93  HIS93       0.0817
     57  ND1       20.9730   39.0180   19.5530 N.ar   93  HIS93      -0.2268
     58  CD2       20.6190   37.3390   20.9020 C.ar   93  HIS93       0.1154
     59  CE1       19.7340   38.6110   19.3450 C.ar   93  HIS93       0.1986
     60  NE2       19.4910   37.5970   20.1560 N.ar   93  HIS93      -0.2212
     61  N         20.0450   32.5380   23.7240 N.3   116  HIS116     -0.1241
     62  CA        18.5770   32.5210   23.7590 C.3   116  HIS116      0.1621
     63  C         18.0770   31.1480   23.3560 C.2   116  HIS116      0.2264
     64  O         18.4360   30.6600   22.2900 O.2   116  HIS116     -0.2867
     65  CB        17.9890   33.5830   22.8370 C.3   116  HIS116      0.0745
     66  CG        18.2020   34.9880   23.3200 C.ar  116  HIS116      0.0817
     67  ND1       18.0970   36.0860   22.4890 N.ar  116  HIS116     -0.2268
     68  CD2       18.5060   35.4740   24.5500 C.ar  116  HIS116      0.1154
     69  CE1       18.3230   37.1880   23.1910 C.ar  116  HIS116      0.1986
     70  NE2       18.5790   36.8460   24.4400 N.ar  116  HIS116     -0.2212
     71  N         14.5570   29.4140   22.6660 N.3   118  ALA118     -0.1245
     72  CA        13.1900   29.8850   22.3900 C.3   118  ALA118      0.1562
     73  C         12.1530   28.7680   22.2380 C.2   118  ALA118      0.2260
     74  O         12.4290   27.7110   21.6410 O.2   118  ALA118     -0.2867
     75  CB        13.1720   30.7810   21.1650 C.3   118  ALA118      0.0290
     76  N          4.0510   27.9150   15.4940 N.3   128  LEU128     -0.1245
     77  CA         4.9190   29.0490   15.7690 C.3   128  LEU128      0.1561
     78  C          4.3850   30.3350   15.1440 C.2   128  LEU128      0.2260
     79  O          4.4020   31.3810   15.7910 O.2   128  LEU128     -0.2867
     80  CB         6.3700   28.7910   15.3020 C.3   128  LEU128      0.0270
     81  CG         7.3610   29.9750   15.4580 C.3   128  LEU128      0.0019
     82  CD1        7.5310   30.4210   16.9160 C.3   128  LEU128      0.0001
     83  CD2        8.7130   29.7200   14.7970 C.3   128  LEU128      0.0001
     84  N          3.6660   33.3150   17.5770 N.3   132  ALA132     -0.1245
     85  CA         4.7460   34.3140   17.5620 C.3   132  ALA132      0.1562
     86  C          4.3130   35.7280   17.9290 C.2   132  ALA132      0.2260
     87  O          5.1280   36.4980   18.4080 O.2   132  ALA132     -0.2867
     88  CB         5.4550   34.3280   16.2110 C.3   132  ALA132      0.0290
     89  N          5.2910   33.2060   23.2660 N.3   138  LEU138     -0.1245
     90  CA         6.7030   32.8000   23.3000 C.3   138  LEU138      0.1561
     91  C          7.3240   32.7950   24.6880 C.2   138  LEU138      0.2260
     92  O          7.0360   33.6570   25.5210 O.2   138  LEU138     -0.2867
     93  CB         7.5480   33.6510   22.3370 C.3   138  LEU138      0.0270
     94  CG         7.0940   33.7900   20.8760 C.3   138  LEU138      0.0019
     95  CD1        7.9690   34.7730   20.1230 C.3   138  LEU138      0.0001
     96  CD2        7.0810   32.4500   20.1380 C.3   138  LEU138      0.0001
     97  N         11.2840   32.5950   26.0960 N.3   140  VAL140     -0.1245
     98  CA        12.7270   32.5660   25.8280 C.3   140  VAL140      0.1561
     99  C         13.5820   32.5490   27.1160 C.2   140  VAL140      0.2260
    100  O         13.4680   33.4480   27.9620 O.2   140  VAL140     -0.2867
    101  CB        13.1770   33.6840   24.8540 C.3   140  VAL140      0.0252
    102  CG1       14.6340   33.4870   24.4540 C.3   140  VAL140      0.0019
    103  CG2       12.3230   33.7030   23.5930 C.3   140  VAL140      0.0019
    104  N         10.4450   40.0830   21.3070 N.3   195  LEU195     -0.1231
    105  CA        11.5570   39.7670   20.4300 C.3   195  LEU195      0.1693
    106  C         12.5200   40.9450   20.4210 C.2   195  LEU195      0.2593
    107  O         12.0880   42.1030   20.4470 O.2   195  LEU195     -0.2718
    108  CB        11.0500   39.4960   19.0210 C.3   195  LEU195      0.0284
    109  CG        10.0870   38.3190   18.8560 C.3   195  LEU195      0.0019
    110  CD1        9.5680   38.3150   17.4330 C.3   195  LEU195      0.0001
    111  CD2       10.7720   37.0010   19.1820 C.3   195  LEU195      0.0001
    112  N         13.8140   40.6470   20.3940 N.am  196  THR196     -0.1939
    113  CA        14.8480   41.6790   20.4890 C.3   196  THR196      0.2028
    114  C         15.2880   42.2470   19.1280 C.2   196  THR196      0.2642
    115  O         16.1390   43.1420   19.0590 O.2   196  THR196     -0.2714
    116  CB        16.0710   41.1770   21.2690 C.3   196  THR196      0.1808
    117  OG1       16.6010   40.0110   20.6250 O.3   196  THR196     -0.2208
    118  CG2       15.6910   40.8470   22.7230 C.3   196  THR196      0.0379
    119  N         14.6960   41.7150   18.0610 N.am  197  HIS197     -0.1959
    120  CA        14.8840   42.2160   16.7060 C.3   197  HIS197      0.1772
    121  C         13.5570   42.1130   15.9150 C.2   197  HIS197      0.2462
    122  O         12.6390   41.4080   16.3570 O.2   197  HIS197     -0.2730
    123  CB        16.0920   41.5400   16.0200 C.3   197  HIS197      0.0785
    124  CG        15.9490   40.0660   15.7920 C.ar  197  HIS197      0.0821
    125  ND1       15.0810   39.5340   14.8620 N.ar  197  HIS197     -0.2267
    126  CD2       16.6130   39.0120   16.3270 C.ar  197  HIS197      0.1154
    127  CE1       15.1920   38.2170   14.8550 C.ar  197  HIS197      0.1986
    128  NE2       16.1170   37.8730   15.7330 N.ar  197  HIS197     -0.2212
    129  N         13.4240   42.8550   14.7860 N.am  198  PRO198     -0.2716
    130  CA        12.2140   42.8040   13.9520 C.3   198  PRO198      0.1521
    131  C         11.7290   41.3710   13.7310 C.2   198  PRO198      0.2440
    132  O         12.5540   40.5080   13.4230 O.2   198  PRO198     -0.2731
    133  CB        12.6910   43.4190   12.6430 C.3   198  PRO198      0.0310
    134  CG        13.6250   44.4820   13.1100 C.3   198  PRO198      0.0237
    135  CD        14.3350   43.9190   14.3110 C.3   198  PRO198      0.0939
    136  N         10.4280   41.1050   13.8730 N.am  199  PRO199     -0.2727
    137  CA         9.3710   42.1180   13.9620 C.3   199  PRO199      0.1402
    138  C          9.0120   42.6410   15.3710 C.2   199  PRO199      0.2269
    139  O          8.0270   43.3760   15.5080 O.2   199  PRO199     -0.2865
    140  CB         8.1710   41.3940   13.3500 C.3   199  PRO199      0.0296
    141  CG         8.4160   39.9410   13.6740 C.3   199  PRO199      0.0237
    142  CD         9.8760   39.7460   13.9920 C.3   199  PRO199      0.0939
    143  N          7.6850   41.6180   18.1920 N.3   201  TYR201     -0.1241
    144  CA         6.3930   41.3070   18.8310 C.3   201  TYR201      0.1605
    145  C          6.5320   41.1790   20.3400 C.2   201  TYR201      0.2264
    146  O          7.4990   40.5970   20.8320 O.2   201  TYR201     -0.2867
    147  CB         5.7710   39.9950   18.3090 C.3   201  TYR201      0.0534
    148  CG         5.4480   39.9070   16.8270 C.ar  201  TYR201     -0.0201
    149  CD1        4.9460   41.0080   16.1090 C.ar  201  TYR201     -0.0009
    150  CD2        5.6030   38.6930   16.1470 C.ar  201  TYR201     -0.0009
    151  CE1        4.6460   40.9070   14.7490 C.ar  201  TYR201      0.0417
    152  CE2        5.2970   38.5760   14.7960 C.ar  201  TYR201      0.0417
    153  CZ         4.8160   39.6790   14.0970 C.ar  201  TYR201      0.1957
    154  OH         4.5280   39.5480   12.7530 O.3   201  TYR201     -0.2866
    155  N          6.8750   37.6870   24.3480 N.3   204  VAL204     -0.1245
    156  CA         7.8850   36.9010   25.0710 C.3   204  VAL204      0.1561
    157  C          7.7970   37.1080   26.5650 C.2   204  VAL204      0.2260
    158  O          7.8800   38.2400   27.0690 O.2   204  VAL204     -0.2867
    159  CB         9.3530   37.1800   24.6010 C.3   204  VAL204      0.0252
    160  CG1       10.3410   36.2510   25.3010 C.3   204  VAL204      0.0019
    161  CG2        9.5030   37.0520   23.0790 C.3   204  VAL204      0.0019
    162  N         10.2500   36.4730   29.1650 N.3   206  TRP206     -0.1241
    163  CA        11.6780   36.1950   29.3810 C.3   206  TRP206      0.1605
    164  C         11.9910   35.4470   30.6760 C.2   206  TRP206      0.2264
    165  O         11.3950   35.7180   31.7170 O.2   206  TRP206     -0.2867
    166  CB        12.4770   37.4770   29.3040 C.3   206  TRP206      0.0550
    167  CG        12.6290   37.9470   27.8980 C.ar  206  TRP206      0.0003
    168  CD1       11.8660   38.8790   27.2530 C.ar  206  TRP206      0.0946
    169  CD2       13.5940   37.4900   26.9460 C.ar  206  TRP206      0.0152
    170  NE1       12.3100   39.0390   25.9600 N.ar  206  TRP206     -0.2442
    171  CE2       13.3680   38.1990   25.7450 C.ar  206  TRP206      0.0810
    172  CE3       14.6420   36.5510   26.9940 C.ar  206  TRP206      0.0012
    173  CZ2       14.1440   38.0010   24.5970 C.ar  206  TRP206      0.0191
    174  CZ3       15.4170   36.3660   25.8580 C.ar  206  TRP206      0.0001
    175  CH2       15.1590   37.0790   24.6740 C.ar  206  TRP206      0.0015
@<TRIPOS>BOND
     1     1     2    1
     2     8    10   ar
     3     8     6   ar
     4     2     5    1
     5     2     3    1
     6     5     6    1
     7    10     9   ar
     8     6     7   ar
     9     3     4    2
    10   133   134    1
    11   133   130    1
    12   154   153    1
    13     9     7   ar
    14    17    19   ar
    15    17    16   ar
    16   134   135    1
    17    14    13    2
    18    19    20   ar
    19   140   141    1
    20   140   137    1
    21    11    12    1
    22   132   131    2
    23   141   142    1
    24    15    16    1
    25    15    12    1
    26   131   136   am
    27   131   130    1
    28    16    18   ar
    29   136   137    1
    30   136   142    1
    31   130   129    1
    32   137   138    1
    33   153   151   ar
    34   153   152   ar
    35    20    18   ar
    36    13    12    1
    37   135   129    1
    38   151   149   ar
    39   129   121   am
    40   152   150   ar
    41    83    81    1
    42   127   125   ar
    43   127   128   ar
    44   125   124   ar
    45    40    38   am
    46    78    77    1
    47    78    79    2
    48    80    81    1
    49    80    77    1
    50   138   139    2
    51    81    82    1
    52    76    77    1
    53   128   126   ar
    54   124   123    1
    55   124   126   ar
    56   121   122    2
    57   121   120    1
    58   123   120    1
    59   149   148   ar
    60   150   148   ar
    61    88    85    1
    62    38    39    2
    63    38    37    1
    64   120   119    1
    65   148   147    1
    66    24    23    2
    67    37    36    1
    68    28    30   ar
    69    28    26   ar
    70    30    31   ar
    71   110   109    1
    72    36    33    1
    73    85    84    1
    74    85    86    1
    75    25    26    1
    76    25    22    1
    77    45    46    1
    78    45    42    1
    79    86    87    2
    80    23    22    1
    81    23    32   am
    82    26    27   ar
    83   119   114   am
    84   143   144    1
    85   147   144    1
    86    31    29   ar
    87    33    32    1
    88    33    34    1
    89    22    21    1
    90    46    47   ar
    91    46    48   ar
    92    47    49   ar
    93   144   145    1
    94   109   108    1
    95   109   111    1
    96    42    41    1
    97    42    43    1
    98    48    50   ar
    99   108   105    1
   100   115   114    2
   101    27    29   ar
   102   114   113    1
   103    49    50   ar
   104    59    57   ar
   105    59    60   ar
   106    34    35    2
   107    57    56   ar
   108    43    44    2
   109    95    94    1
   110    96    94    1
   111    60    58   ar
   112   145   146    2
   113    52    51    1
   114    52    53    1
   115    52    55    1
   116   112   106   am
   117   112   113    1
   118   106   105    1
   119   106   107    2
   120   105   104    1
   121   113   116    1
   122    56    58   ar
   123    56    55    1
   124   117   116    1
   125    94    93    1
   126    53    54    2
   127    75    72    1
   128   116   118    1
   129    74    73    2
   130    73    72    1
   131    64    63    2
   132    93    90    1
   133    72    71    1
   134    67    69   ar
   135    67    66   ar
   136    65    66    1
   137    65    62    1
   138   161   159    1
   139    69    70   ar
   140    89    90    1
   141    90    91    1
   142    66    68   ar
   143    63    62    1
   144   103   101    1
   145    61    62    1
   146   155   156    1
   147    70    68   ar
   148   102   101    1
   149   173   175   ar
   150   173   171   ar
   151   159   156    1
   152   159   160    1
   153   175   174   ar
   154    91    92    2
   155   101    98    1
   156   156   157    1
   157   171   170   ar
   158   171   169   ar
   159    98    97    1
   160    98    99    1
   161   174   172   ar
   162   170   168   ar
   163   157   158    2
   164   169   172   ar
   165   169   167   ar
   166    99   100    2
   167   168   167   ar
   168   167   166    1
   169   162   163    1
   170   166   163    1
   171   163   164    1
   172   164   165    2
