@<TRIPOS>MOLECULE
tmp/6fagA00.pdb
 168 166 0 0 0
SMALL
GASTEIGER

@<TRIPOS>ATOM
      1  N         21.8660   37.7270    9.9830 N.3    61  HIS61      -0.1241
      2  CA        22.2010   38.5110   11.1930 C.3    61  HIS61       0.1621
      3  C         22.7360   37.6300   12.3310 C.2    61  HIS61       0.2264
      4  O         23.3820   38.1250   13.2750 O.2    61  HIS61      -0.2867
      5  CB        21.0020   39.3540   11.6440 C.3    61  HIS61       0.0745
      6  CG        19.7550   38.5590   11.8820 C.ar   61  HIS61       0.0817
      7  ND1       19.4380   38.0210   13.1130 N.ar   61  HIS61      -0.2268
      8  CD2       18.7550   38.1910   11.0420 C.ar   61  HIS61       0.1154
      9  CE1       18.2980   37.3580   13.0220 C.ar   61  HIS61       0.1986
     10  NE2       17.8580   37.4530   11.7770 N.ar   61  HIS61      -0.2212
     11  N         20.7280   29.9470   13.5780 N.3    64  HIS64      -0.1241
     12  CA        19.7320   29.2920   14.4030 C.3    64  HIS64       0.1621
     13  C         19.9220   27.7910   14.3530 C.2    64  HIS64       0.2264
     14  O         20.3120   27.2470   13.3140 O.2    64  HIS64      -0.2867
     15  CB        18.2990   29.5890   13.9230 C.3    64  HIS64       0.0745
     16  CG        17.9280   31.0410   13.9670 C.ar   64  HIS64       0.0817
     17  ND1       16.9730   31.5840   13.1430 N.ar   64  HIS64      -0.2268
     18  CD2       18.3670   32.0530   14.7570 C.ar   64  HIS64       0.1154
     19  CE1       16.8370   32.8740   13.4150 C.ar   64  HIS64       0.1986
     20  NE2       17.6700   33.1840   14.3970 N.ar   64  HIS64      -0.2212
     21  N         11.4720   24.9950   20.0260 N.3    88  PHE88      -0.1227
     22  CA        11.6830   25.0560   18.5800 C.3    88  PHE88       0.1736
     23  C         13.0770   25.5100   18.1080 C.2    88  PHE88       0.2595
     24  O         13.4330   25.3280   16.9400 O.2    88  PHE88      -0.2718
     25  CB        10.5600   25.8540   17.9040 C.3    88  PHE88       0.0547
     26  CG        10.5760   27.3240   18.2220 C.ar   88  PHE88      -0.0202
     27  CD1        9.9780   27.8080   19.3870 C.ar   88  PHE88      -0.0042
     28  CD2       11.1360   28.2260   17.3210 C.ar   88  PHE88      -0.0042
     29  CE1        9.9670   29.1820   19.6560 C.ar   88  PHE88      -0.0003
     30  CE2       11.1350   29.5910   17.5870 C.ar   88  PHE88      -0.0003
     31  CZ        10.5380   30.0630   18.7520 C.ar   88  PHE88      -0.0000
     32  N         13.8540   26.1560   18.9860 N.am   89  GLN89      -0.1979
     33  CA        15.0880   26.7910   18.5320 C.3    89  GLN89       0.1601
     34  C         16.0130   27.2150   19.6500 C.2    89  GLN89       0.2287
     35  O         15.5530   27.5440   20.7380 O.2    89  GLN89      -0.2864
     36  CB        14.7500   28.0300   17.6790 C.3    89  GLN89       0.0394
     37  CG        15.9530   28.7860   17.1320 C.3    89  GLN89       0.0908
     38  CD        15.5520   30.0550   16.4300 C.2    89  GLN89       0.2608
     39  OE1       15.8580   31.1570   16.8980 O.2    89  GLN89      -0.2717
     40  NE2       14.8690   29.9200   15.3030 N.am   89  GLN89      -0.0878
     41  N         19.6840   29.9610   19.7700 N.3    91  HIS91      -0.1241
     42  CA        20.6490   30.8150   19.0640 C.3    91  HIS91       0.1621
     43  C         21.4050   31.6870   20.0830 C.2    91  HIS91       0.2264
     44  O         21.1600   31.5930   21.2950 O.2    91  HIS91      -0.2867
     45  CB        19.9300   31.6940   18.0310 C.3    91  HIS91       0.0745
     46  CG        18.9120   32.6100   18.6370 C.ar   91  HIS91       0.0817
     47  ND1       17.5690   32.3060   18.6670 N.ar   91  HIS91      -0.2268
     48  CD2       19.0460   33.7990   19.2800 C.ar   91  HIS91       0.1154
     49  CE1       16.9170   33.2750   19.2920 C.ar   91  HIS91       0.1986
     50  NE2       17.7910   34.1830   19.6770 N.ar   91  HIS91      -0.2212
     51  N         23.4500   35.6680   20.8370 N.3    93  HIS93      -0.1241
     52  CA        23.7440   37.0530   20.4720 C.3    93  HIS93       0.1621
     53  C         25.1350   37.3450   20.9890 C.2    93  HIS93       0.2264
     54  O         25.5290   36.8040   22.0180 O.2    93  HIS93      -0.2867
     55  CB        22.7600   38.0100   21.1370 C.3    93  HIS93       0.0745
     56  CG        21.3560   37.8510   20.6610 C.ar   93  HIS93       0.0817
     57  ND1       20.7720   38.7100   19.7510 N.ar   93  HIS93      -0.2268
     58  CD2       20.4300   36.9120   20.9410 C.ar   93  HIS93       0.1154
     59  CE1       19.5360   38.3190   19.5140 C.ar   93  HIS93       0.1986
     60  NE2       19.2980   37.2360   20.2290 N.ar   93  HIS93      -0.2212
     61  N         19.8700   32.0570   23.9450 N.3   116  HIS116     -0.1241
     62  CA        18.3870   32.0570   23.9740 C.3   116  HIS116      0.1621
     63  C         17.8840   30.7100   23.5360 C.2   116  HIS116      0.2264
     64  O         18.2710   30.2600   22.4600 O.2   116  HIS116     -0.2867
     65  CB        17.8310   33.0850   23.0150 C.3   116  HIS116      0.0745
     66  CG        18.0390   34.4980   23.4750 C.ar  116  HIS116      0.0817
     67  ND1       17.9680   35.5780   22.6200 N.ar  116  HIS116     -0.2268
     68  CD2       18.3060   35.0050   24.7070 C.ar  116  HIS116      0.1154
     69  CE1       18.2020   36.6950   23.3090 C.ar  116  HIS116      0.1986
     70  NE2       18.4180   36.3760   24.5700 N.ar  116  HIS116     -0.2212
     71  N         14.3100   29.0770   22.8440 N.3   118  ALA118     -0.1245
     72  CA        12.9490   29.5340   22.5780 C.3   118  ALA118      0.1562
     73  C         11.9810   28.3720   22.4130 C.2   118  ALA118      0.2260
     74  O         12.3360   27.2960   21.8920 O.2   118  ALA118     -0.2867
     75  CB        12.9310   30.4310   21.3670 C.3   118  ALA118      0.0290
     76  N          3.7120   27.5310   15.8310 N.3   128  LEU128     -0.1245
     77  CA         4.5940   28.6720   16.0780 C.3   128  LEU128      0.1561
     78  C          4.0650   29.9650   15.4550 C.2   128  LEU128      0.2260
     79  O          4.0870   31.0120   16.1120 O.2   128  LEU128     -0.2867
     80  CB         6.0240   28.3930   15.5870 C.3   128  LEU128      0.0270
     81  CG         7.0400   29.5630   15.6040 C.3   128  LEU128      0.0019
     82  CD1        7.3120   30.0480   17.0330 C.3   128  LEU128      0.0001
     83  CD2        8.3450   29.2220   14.8800 C.3   128  LEU128      0.0001
     84  N          3.3310   33.0760   17.7900 N.3   132  ALA132     -0.1245
     85  CA         4.4430   34.0330   17.7260 C.3   132  ALA132      0.1562
     86  C          4.0480   35.4480   18.1260 C.2   132  ALA132      0.2260
     87  O          4.8820   36.2080   18.6000 O.2   132  ALA132     -0.2867
     88  CB         5.0550   34.0350   16.3310 C.3   132  ALA132      0.0290
     89  N          5.0650   32.7880   23.5560 N.3   138  LEU138     -0.1245
     90  CA         6.4860   32.4160   23.6070 C.3   138  LEU138      0.1561
     91  C          7.1240   32.4360   24.9930 C.2   138  LEU138      0.2260
     92  O          6.8320   33.3230   25.8250 O.2   138  LEU138     -0.2867
     93  CB         7.3130   33.2560   22.6150 C.3   138  LEU138      0.0270
     94  CG         6.8240   33.3330   21.1570 C.3   138  LEU138      0.0019
     95  CD1        7.6560   34.3030   20.3440 C.3   138  LEU138      0.0001
     96  CD2        6.7660   31.9660   20.4660 C.3   138  LEU138      0.0001
     97  N         11.1920   32.0580   26.3860 N.3   140  VAL140     -0.1245
     98  CA        12.6240   32.0600   26.0410 C.3   140  VAL140      0.1561
     99  C         13.5150   32.0580   27.3110 C.2   140  VAL140      0.2260
    100  O         13.4350   32.9680   28.1640 O.2   140  VAL140     -0.2867
    101  CB        13.0080   33.2550   25.0930 C.3   140  VAL140      0.0252
    102  CG1       14.4860   33.1970   24.6860 C.3   140  VAL140      0.0019
    103  CG2       12.1430   33.3060   23.8350 C.3   140  VAL140      0.0019
    104  N         10.2450   39.7110   21.5400 N.3   195  LEU195     -0.1231
    105  CA        11.3270   39.2860   20.6660 C.3   195  LEU195      0.1693
    106  C         12.2670   40.4690   20.6250 C.2   195  LEU195      0.2593
    107  O         11.8080   41.6190   20.5820 O.2   195  LEU195     -0.2718
    108  CB        10.8180   38.9920   19.2640 C.3   195  LEU195      0.0284
    109  CG         9.9120   37.7860   19.0690 C.3   195  LEU195      0.0019
    110  CD1        9.3930   37.7100   17.6350 C.3   195  LEU195      0.0001
    111  CD2       10.6610   36.5060   19.4380 C.3   195  LEU195      0.0001
    112  N         13.5670   40.1870   20.6560 N.am  196  THR196     -0.1939
    113  CA        14.5660   41.2410   20.7590 C.3   196  THR196      0.2028
    114  C         15.0250   41.8120   19.4120 C.2   196  THR196      0.2642
    115  O         15.9330   42.6460   19.3810 O.2   196  THR196     -0.2714
    116  CB        15.8110   40.7550   21.5180 C.3   196  THR196      0.1808
    117  OG1       16.4710   39.7600   20.7370 O.3   196  THR196     -0.2208
    118  CG2       15.4640   40.2050   22.9140 C.3   196  THR196      0.0379
    119  N         14.4260   41.3330   18.3120 N.am  197  HIS197     -0.1959
    120  CA        14.6110   41.8970   16.9650 C.3   197  HIS197      0.1772
    121  C         13.2860   41.8340   16.1810 C.2   197  HIS197      0.2462
    122  O         12.3620   41.1380   16.6120 O.2   197  HIS197     -0.2730
    123  CB        15.8020   41.2510   16.2130 C.3   197  HIS197      0.0785
    124  CG        15.6710   39.7740   15.9890 C.ar  197  HIS197      0.0821
    125  ND1       14.7120   39.2300   15.1660 N.ar  197  HIS197     -0.2267
    126  CD2       16.3980   38.7310   16.4590 C.ar  197  HIS197      0.1154
    127  CE1       14.8330   37.9120   15.1590 C.ar  197  HIS197      0.1986
    128  NE2       15.8550   37.5830   15.9290 N.ar  197  HIS197     -0.2212
    129  N         13.1550   42.5910   15.0690 N.am  198  PRO198     -0.2716
    130  CA        11.9390   42.4840   14.2530 C.3   198  PRO198      0.1521
    131  C         11.5150   41.0250   13.9980 C.2   198  PRO198      0.2440
    132  O         12.3790   40.1780   13.7370 O.2   198  PRO198     -0.2731
    133  CB        12.3330   43.1900   12.9730 C.3   198  PRO198      0.0310
    134  CG        13.2020   44.3080   13.4740 C.3   198  PRO198      0.0237
    135  CD        14.0130   43.6930   14.5840 C.3   198  PRO198      0.0939
    136  N         10.2020   40.7310   14.1090 N.am  199  PRO199     -0.2727
    137  CA         9.0930   41.7030   14.2530 C.3   199  PRO199      0.1402
    138  C          8.7540   42.2210   15.6690 C.2   199  PRO199      0.2269
    139  O          7.7500   42.9210   15.8200 O.2   199  PRO199     -0.2865
    140  CB         7.8980   40.9550   13.6600 C.3   199  PRO199      0.0296
    141  CG         8.2380   39.4950   13.8350 C.3   199  PRO199      0.0237
    142  CD         9.7080   39.3420   14.1250 C.3   199  PRO199      0.0939
    143  N          7.4650   41.3690   18.4080 N.3   201  TYR201     -0.1241
    144  CA         6.2180   41.0070   19.0510 C.3   201  TYR201      0.1605
    145  C          6.3750   40.9140   20.5600 C.2   201  TYR201      0.2264
    146  O          7.3870   40.4070   21.0480 O.2   201  TYR201     -0.2867
    147  CB         5.7210   39.6460   18.5220 C.3   201  TYR201      0.0534
    148  CG         5.3260   39.5960   17.0510 C.ar  201  TYR201     -0.0201
    149  CD1        4.7430   40.7020   16.4070 C.ar  201  TYR201     -0.0009
    150  CD2        5.4950   38.4170   16.3100 C.ar  201  TYR201     -0.0009
    151  CE1        4.3680   40.6460   15.0590 C.ar  201  TYR201      0.0417
    152  CE2        5.1170   38.3450   14.9750 C.ar  201  TYR201      0.0417
    153  CZ         4.5600   39.4560   14.3430 C.ar  201  TYR201      0.1957
    154  OH         4.1860   39.3890   13.0040 O.3   201  TYR201     -0.2866
    155  N         10.0450   35.9600   29.4210 N.3   206  TRP206     -0.1241
    156  CA        11.4850   35.7550   29.6040 C.3   206  TRP206      0.1605
    157  C         11.8200   35.0480   30.9120 C.2   206  TRP206      0.2264
    158  O         11.2410   35.3500   31.9700 O.2   206  TRP206     -0.2867
    159  CB        12.2170   37.0900   29.5310 C.3   206  TRP206      0.0550
    160  CG        12.4030   37.5310   28.1130 C.ar  206  TRP206      0.0003
    161  CD1       11.6350   38.4310   27.4200 C.ar  206  TRP206      0.0946
    162  CD2       13.4060   37.0690   27.1950 C.ar  206  TRP206      0.0152
    163  NE1       12.1120   38.5770   26.1470 N.ar  206  TRP206     -0.2442
    164  CE2       13.1910   37.7460   25.9740 C.ar  206  TRP206      0.0810
    165  CE3       14.4800   36.1550   27.2940 C.ar  206  TRP206      0.0012
    166  CZ2       13.9940   37.5310   24.8440 C.ar  206  TRP206      0.0191
    167  CZ3       15.2830   35.9530   26.1790 C.ar  206  TRP206      0.0001
    168  CH2       15.0310   36.6360   24.9660 C.ar  206  TRP206      0.0015
@<TRIPOS>BOND
     1     1     2    1
     2     8    10   ar
     3     8     6   ar
     4     2     5    1
     5     2     3    1
     6     5     6    1
     7    10     9   ar
     8     6     7   ar
     9     3     4    2
    10   133   134    1
    11   133   130    1
    12   154   153    1
    13     9     7   ar
    14    17    19   ar
    15    17    16   ar
    16    14    13    2
    17    19    20   ar
    18   134   135    1
    19    11    12    1
    20   140   141    1
    21   140   137    1
    22   132   131    2
    23   141   142    1
    24    15    16    1
    25    15    12    1
    26    16    18   ar
    27   131   136   am
    28   131   130    1
    29   136   142    1
    30   136   137    1
    31   137   138    1
    32   130   129    1
    33   153   152   ar
    34   153   151   ar
    35    13    12    1
    36    20    18   ar
    37   135   129    1
    38    83    81    1
    39   152   150   ar
    40   151   149   ar
    41   129   121   am
    42   127   125   ar
    43   127   128   ar
    44   125   124   ar
    45    40    38   am
    46    78    77    1
    47    78    79    2
    48    80    81    1
    49    80    77    1
    50    81    82    1
    51   138   139    2
    52    76    77    1
    53   128   126   ar
    54   124   123    1
    55   124   126   ar
    56   121   122    2
    57   121   120    1
    58   123   120    1
    59   150   148   ar
    60    88    85    1
    61   149   148   ar
    62    38    39    2
    63    38    37    1
    64    24    23    2
    65   120   119    1
    66   148   147    1
    67    37    36    1
    68    28    30   ar
    69    28    26   ar
    70    30    31   ar
    71   110   109    1
    72    36    33    1
    73    85    84    1
    74    85    86    1
    75    25    26    1
    76    25    22    1
    77    45    46    1
    78    45    42    1
    79    23    22    1
    80    23    32   am
    81    86    87    2
    82    26    27   ar
    83   119   114   am
    84   143   144    1
    85   147   144    1
    86    33    32    1
    87    33    34    1
    88    22    21    1
    89    46    47   ar
    90    46    48   ar
    91    47    49   ar
    92    31    29   ar
    93   144   145    1
    94    42    41    1
    95    42    43    1
    96   109   108    1
    97   109   111    1
    98   108   105    1
    99    48    50   ar
   100    49    50   ar
   101   115   114    2
   102    27    29   ar
   103   114   113    1
   104    59    57   ar
   105    59    60   ar
   106    34    35    2
   107    57    56   ar
   108    43    44    2
   109    60    58   ar
   110    95    94    1
   111    96    94    1
   112    52    51    1
   113    52    53    1
   114    52    55    1
   115   145   146    2
   116   107   106    2
   117   106   112   am
   118   106   105    1
   119   112   113    1
   120    56    58   ar
   121    56    55    1
   122   105   104    1
   123   117   116    1
   124   113   116    1
   125    53    54    2
   126    94    93    1
   127    75    72    1
   128   116   118    1
   129    74    73    2
   130    73    72    1
   131    64    63    2
   132    72    71    1
   133    93    90    1
   134    67    69   ar
   135    67    66   ar
   136    65    66    1
   137    65    62    1
   138    69    70   ar
   139    66    68   ar
   140    63    62    1
   141    89    90    1
   142    90    91    1
   143   103   101    1
   144    61    62    1
   145    70    68   ar
   146   102   101    1
   147   166   168   ar
   148   166   164   ar
   149   168   167   ar
   150    91    92    2
   151   101    98    1
   152   164   163   ar
   153   164   162   ar
   154    98    97    1
   155    98    99    1
   156   163   161   ar
   157   167   165   ar
   158   162   165   ar
   159   162   160   ar
   160    99   100    2
   161   161   160   ar
   162   160   159    1
   163   155   156    1
   164   159   156    1
   165   156   157    1
   166   157   158    2
