@<TRIPOS>MOLECULE
tmp/6fakA08.pdb
 102 96 0 0 0
SMALL
GASTEIGER

@<TRIPOS>ATOM
      1  N        -36.5310   20.6690  -24.4210 N.3   148  THR148     -0.1218
      2  CA       -35.3960   20.7840  -25.3050 C.3   148  THR148      0.1862
      3  C        -34.6350   19.4610  -25.4490 C.2   148  THR148      0.2287
      4  O        -34.2090   19.0650  -26.5770 O.2   148  THR148     -0.2866
      5  CB       -34.4480   21.9070  -24.8290 C.3   148  THR148      0.1770
      6  OG1      -35.1520   23.1510  -24.8840 O.3   148  THR148     -0.2211
      7  CG2      -33.1960   21.9950  -25.7070 C.3   148  THR148      0.0375
      8  N        -34.0430   17.2660  -28.9540 N.3   152  HIS152     -0.1241
      9  CA       -32.7440   16.7910  -29.3880 C.3   152  HIS152      0.1621
     10  C        -32.6480   15.2670  -29.4350 C.2   152  HIS152      0.2264
     11  O        -32.0540   14.7110  -30.3850 O.2   152  HIS152     -0.2867
     12  CB       -31.6620   17.4530  -28.5860 C.3   152  HIS152      0.0745
     13  CG       -31.4690   18.8650  -29.0070 C.ar  152  HIS152      0.0817
     14  ND1      -30.4060   19.2610  -29.7860 N.ar  152  HIS152     -0.2268
     15  CD2      -32.2850   19.9400  -28.9130 C.ar  152  HIS152      0.1154
     16  CE1      -30.5250   20.5480  -30.0650 C.ar  152  HIS152      0.1986
     17  NE2      -31.6580   20.9830  -29.5460 N.ar  152  HIS152     -0.2212
     18  N        -34.2740   14.2850  -32.6900 N.3   155  GLU155     -0.1231
     19  CA       -33.3430   14.4880  -33.7970 C.3   155  GLU155      0.1699
     20  C        -32.2600   13.3670  -33.8520 C.2   155  GLU155      0.2592
     21  O        -31.8040   13.0040  -34.9380 O.2   155  GLU155     -0.2718
     22  CB       -32.6160   15.8370  -33.7050 C.3   155  GLU155      0.0402
     23  CG       -33.4570   17.1190  -33.6040 C.3   155  GLU155      0.1161
     24  CD       -34.7410   17.1610  -34.4350 C.2   155  GLU155      0.3649
     25  OE1      -34.7740   16.6530  -35.5880 O.co2 155  GLU155     -0.2457
     26  OE2      -35.7270   17.7540  -33.9360 O.co2 155  GLU155     -0.2457
     27  N        -31.8440   12.8440  -32.7080 N.am  156  VAL156     -0.1980
     28  CA       -30.9030   11.7340  -32.6530 C.3   156  VAL156      0.1595
     29  C        -31.5470   10.4870  -33.2450 C.2   156  VAL156      0.2287
     30  O        -30.9260    9.8260  -34.0410 O.2   156  VAL156     -0.2864
     31  CB       -30.3460   11.5000  -31.2480 C.3   156  VAL156      0.0276
     32  CG1      -29.6100   10.1430  -31.1190 C.3   156  VAL156      0.0022
     33  CG2      -29.4240   12.6530  -30.8810 C.3   156  VAL156      0.0022
     34  N        -24.3230    9.7330  -30.5600 N.3   173  ARG173     -0.1245
     35  CA       -25.0400   11.0200  -30.7670 C.3   173  ARG173      0.1563
     36  C        -25.8540   11.4280  -29.5330 C.2   173  ARG173      0.2260
     37  O        -26.1120   12.6030  -29.3420 O.2   173  ARG173     -0.2867
     38  CB       -25.9620   10.9660  -32.0030 C.3   173  ARG173      0.0307
     39  CG       -25.2780   10.7620  -33.3570 C.3   173  ARG173      0.0489
     40  CD       -24.0500   11.6520  -33.5820 C.3   173  ARG173      0.2205
     41  NE       -23.3820   11.3060  -34.8250 N.pl3 173  ARG173     -0.0865
     42  CZ       -22.0900   11.4650  -35.1180 C.cat 173  ARG173      0.5346
     43  NH1      -21.6300   11.0640  -36.2980 N.pl3 173  ARG173      0.1354
     44  NH2      -21.2560   12.0320  -34.2550 N.pl3 173  ARG173      0.1354
     45  N        -23.8370   14.0150  -26.2220 N.3   176  PRO176     -0.2102
     46  CA       -23.9490   15.4270  -25.8670 C.3   176  PRO176      0.1504
     47  C        -25.3290   15.8450  -25.4140 C.2   176  PRO176      0.2575
     48  O        -25.4240   16.8650  -24.7790 O.2   176  PRO176     -0.2718
     49  CB       -23.6200   16.1800  -27.1380 C.3   176  PRO176      0.0282
     50  CG       -23.5460   15.1520  -28.2330 C.3   176  PRO176      0.0208
     51  CD       -23.4420   13.8060  -27.6270 C.3   176  PRO176      0.0893
     52  N        -26.3670   15.0920  -25.7620 N.am  177  VAL177     -0.1980
     53  CA       -27.7100   15.4040  -25.2820 C.3   177  VAL177      0.1595
     54  C        -27.7420   15.1070  -23.7700 C.2   177  VAL177      0.2287
     55  O        -28.2680   15.9070  -22.9870 O.2   177  VAL177     -0.2864
     56  CB       -28.8140   14.6240  -25.9960 C.3   177  VAL177      0.0276
     57  CG1      -30.1700   15.1120  -25.5410 C.3   177  VAL177      0.0022
     58  CG2      -28.7340   14.7990  -27.5350 C.3   177  VAL177      0.0022
     59  N        -25.8200   17.7310  -21.7530 N.3   180  TYR180     -0.1241
     60  CA       -26.6120   18.9380  -21.6350 C.3   180  TYR180      0.1605
     61  C        -27.6000   18.8010  -20.4520 C.2   180  TYR180      0.2264
     62  O        -27.6730   19.6400  -19.5300 O.2   180  TYR180     -0.2867
     63  CB       -27.3610   19.1540  -22.9220 C.3   180  TYR180      0.0534
     64  CG       -28.1580   20.4100  -22.9390 C.ar  180  TYR180     -0.0201
     65  CD1      -27.5480   21.6140  -23.2380 C.ar  180  TYR180     -0.0009
     66  CD2      -29.5260   20.4030  -22.6760 C.ar  180  TYR180     -0.0009
     67  CE1      -28.2730   22.7870  -23.2780 C.ar  180  TYR180      0.0417
     68  CE2      -30.2690   21.5760  -22.7080 C.ar  180  TYR180      0.0417
     69  CZ       -29.6400   22.7690  -23.0030 C.ar  180  TYR180      0.1957
     70  OH       -30.3460   23.9640  -23.0470 O.3   180  TYR180     -0.2866
     71  N        -36.4400   26.8380  -27.4870 N.3   277  GLU277     -0.1245
     72  CA       -35.0520   26.8070  -27.9590 C.3   277  GLU277      0.1567
     73  C        -34.4110   28.1940  -27.8670 C.2   277  GLU277      0.2260
     74  O        -33.3130   28.3170  -27.3310 O.2   277  GLU277     -0.2867
     75  CB       -34.9710   26.2700  -29.3990 C.3   277  GLU277      0.0388
     76  CG       -33.7020   25.4850  -29.6950 C.3   277  GLU277      0.1160
     77  CD       -33.7210   24.0690  -29.1270 C.2   277  GLU277      0.3649
     78  OE1      -34.4900   23.7940  -28.1760 O.co2 277  GLU277     -0.2457
     79  OE2      -32.9570   23.2200  -29.6350 O.co2 277  GLU277     -0.2457
     80  N        -33.1060   28.4130  -24.2460 N.3   280  GLN280     -0.1231
     81  CA       -31.9690   27.5040  -23.9940 C.3   280  GLN280      0.1698
     82  C        -30.7340   27.9780  -24.8310 C.2   280  GLN280      0.2592
     83  O        -29.5850   27.7650  -24.4280 O.2   280  GLN280     -0.2718
     84  CB       -32.3140   26.0250  -24.2970 C.3   280  GLN280      0.0381
     85  CG       -33.2750   25.2640  -23.3560 C.3   280  GLN280      0.0905
     86  CD       -33.0980   25.4760  -21.8460 C.2   280  GLN280      0.2608
     87  OE1      -32.5340   24.6320  -21.1380 O.2   280  GLN280     -0.2717
     88  NE2      -33.6400   26.5840  -21.3370 N.am  280  GLN280     -0.0878
     89  N        -31.0030   28.6190  -25.9760 N.am  281  CYS281     -0.1970
     90  CA       -30.0140   29.3750  -26.7570 C.3   281  CYS281      0.1712
     91  C        -29.4150   30.5440  -25.9610 C.2   281  CYS281      0.2296
     92  O        -28.1980   30.5690  -25.7300 O.2   281  CYS281     -0.2864
     93  CB       -30.6590   29.9220  -28.0390 C.3   281  CYS281      0.0983
     94  SG       -29.5260   30.6990  -29.2170 S.3   281  CYS281     -0.0798
     95  N        -27.1250   29.5730  -23.4070 N.3   284  ASN284     -0.1240
     96  CA       -25.8580   29.0870  -23.9600 C.3   284  ASN284      0.1653
     97  C        -25.0340   30.1240  -24.7320 C.2   284  ASN284      0.2266
     98  O        -23.8740   29.8530  -25.0290 O.2   284  ASN284     -0.2867
     99  CB       -26.1060   27.8610  -24.8610 C.3   284  ASN284      0.1155
    100  CG       -26.3050   26.5880  -24.0650 C.2   284  ASN284      0.2627
    101  OD1      -25.3680   25.8090  -23.8750 O.2   284  ASN284     -0.2716
    102  ND2      -27.5200   26.3830  -23.5720 N.am  284  ASN284     -0.0877
@<TRIPOS>BOND
     1    43    42    1
     2    25    24   ar
     3    42    41    2
     4    42    44    1
     5    21    20    2
     6    41    40    1
     7    24    26   ar
     8    24    23    1
     9    30    29    2
    10    20    19    1
    11    20    27   am
    12    19    22    1
    13    19    18    1
    14    22    23    1
    15    40    39    1
    16    39    38    1
    17    29    28    1
    18    27    28    1
    19    28    31    1
    20    38    35    1
    21    31    32    1
    22    31    33    1
    23    35    34    1
    24    35    36    1
    25    11    10    2
    26    16    14   ar
    27    16    17   ar
    28    14    13   ar
    29    76    75    1
    30    76    77    1
    31    79    77   ar
    32    17    15   ar
    33    36    37    2
    34    10     9    1
    35    75    72    1
    36     9     8    1
    37     9    12    1
    38    94    93    1
    39    77    78   ar
    40    13    15   ar
    41    13    12    1
    42    50    51    1
    43    50    49    1
    44    93    90    1
    45    72    73    1
    46    72    71    1
    47    73    74    2
    48    51    45    1
    49    58    56    1
    50    49    46    1
    51    90    89    1
    52    90    91    1
    53     4     3    2
    54    45    46    1
    55    56    57    1
    56    56    53    1
    57    89    82   am
    58    91    92    2
    59    46    47    1
    60    52    47   am
    61    52    53    1
    62     7     5    1
    63     3     2    1
    64    47    48    2
    65     2     5    1
    66     2     1    1
    67    53    54    1
    68    98    97    2
    69     6     5    1
    70    99   100    1
    71    99    96    1
    72    82    83    2
    73    82    81    1
    74    97    96    1
    75    84    81    1
    76    84    85    1
    77    80    81    1
    78   100   101    2
    79   100   102   am
    80    96    95    1
    81    54    55    2
    82    85    86    1
    83    67    65   ar
    84    67    69   ar
    85    65    64   ar
    86    70    69    1
    87    69    68   ar
    88    64    63    1
    89    64    66   ar
    90    63    60    1
    91    68    66   ar
    92    86    88   am
    93    86    87    2
    94    59    60    1
    95    60    61    1
    96    61    62    2
