@<TRIPOS>MOLECULE
tmp/6fakA06.pdb
 181 173 0 0 0
SMALL
GASTEIGER

@<TRIPOS>ATOM
      1  N        -35.9120   21.5420  -14.9590 N.3   142  PHE142     -0.1241
      2  CA       -36.9930   22.4780  -15.3280 C.3   142  PHE142      0.1605
      3  C        -37.5900   22.0660  -16.6860 C.2   142  PHE142      0.2264
      4  O        -36.8550   21.5540  -17.5560 O.2   142  PHE142     -0.2867
      5  CB       -36.4770   23.9070  -15.4650 C.3   142  PHE142      0.0534
      6  CG       -35.9140   24.5340  -14.2070 C.ar  142  PHE142     -0.0203
      7  CD1      -36.0200   23.9340  -12.9290 C.ar  142  PHE142     -0.0042
      8  CD2      -35.3440   25.7840  -14.3050 C.ar  142  PHE142     -0.0042
      9  CE1      -35.5100   24.5760  -11.7850 C.ar  142  PHE142     -0.0003
     10  CE2      -34.8280   26.4350  -13.1720 C.ar  142  PHE142     -0.0003
     11  CZ       -34.8880   25.8250  -11.9310 C.ar  142  PHE142     -0.0000
     12  N        -38.6600   23.6110  -19.5200 N.3   144  PRO144     -0.2102
     13  CA       -38.0800   24.0490  -20.7850 C.3   144  PRO144      0.1504
     14  C        -36.8200   23.2460  -21.1410 C.2   144  PRO144      0.2576
     15  O        -36.5910   22.9150  -22.3100 O.2   144  PRO144     -0.2718
     16  CB       -37.7420   25.5320  -20.5170 C.3   144  PRO144      0.0282
     17  CG       -38.7060   25.9470  -19.4690 C.3   144  PRO144      0.0208
     18  CD       -38.8930   24.7500  -18.6050 C.3   144  PRO144      0.0893
     19  N        -36.0320   22.8680  -20.1340 N.am  145  THR145     -0.1953
     20  CA       -34.8550   22.0390  -20.3330 C.3   145  THR145      0.1897
     21  C        -35.2050   20.6170  -20.8450 C.2   145  THR145      0.2313
     22  O        -34.6320   20.1290  -21.8470 O.2   145  THR145     -0.2863
     23  CB       -33.9980   21.9840  -19.0610 C.3   145  THR145      0.1794
     24  OG1      -33.6770   23.3320  -18.6830 O.3   145  THR145     -0.2208
     25  CG2      -32.7440   21.1880  -19.3120 C.3   145  THR145      0.0378
     26  N        -27.3440   21.1240  -16.9970 N.3   184  PHE184     -0.1241
     27  CA       -28.4760   21.9290  -16.5440 C.3   184  PHE184      0.1605
     28  C        -29.1630   21.4560  -15.2610 C.2   184  PHE184      0.2264
     29  O        -29.4830   22.2660  -14.3780 O.2   184  PHE184     -0.2867
     30  CB       -29.4850   22.1770  -17.6360 C.3   184  PHE184      0.0534
     31  CG       -29.1430   23.2990  -18.5070 C.ar  184  PHE184     -0.0203
     32  CD1      -28.1940   23.1600  -19.4920 C.ar  184  PHE184     -0.0042
     33  CD2      -29.7630   24.5050  -18.3650 C.ar  184  PHE184     -0.0042
     34  CE1      -27.8730   24.2120  -20.3400 C.ar  184  PHE184     -0.0003
     35  CE2      -29.4370   25.5850  -19.1840 C.ar  184  PHE184     -0.0003
     36  CZ       -28.4910   25.4270  -20.1810 C.ar  184  PHE184     -0.0000
     37  N        -27.0440   22.4890  -12.2580 N.3   187  TYR187     -0.1227
     38  CA       -27.1210   23.8960  -12.0500 C.3   187  TYR187      0.1736
     39  C        -28.4500   24.2960  -11.3810 C.2   187  TYR187      0.2595
     40  O        -28.4250   25.0600  -10.4270 O.2   187  TYR187     -0.2718
     41  CB       -26.8640   24.6610  -13.3350 C.3   187  TYR187      0.0548
     42  CG       -27.1150   26.1090  -13.1780 C.ar  187  TYR187     -0.0200
     43  CD1      -26.2350   26.9140  -12.4370 C.ar  187  TYR187     -0.0009
     44  CD2      -28.2660   26.7010  -13.7200 C.ar  187  TYR187     -0.0009
     45  CE1      -26.4670   28.2950  -12.2500 C.ar  187  TYR187      0.0417
     46  CE2      -28.5000   28.0670  -13.5680 C.ar  187  TYR187      0.0417
     47  CZ       -27.5920   28.8600  -12.8350 C.ar  187  TYR187      0.1957
     48  OH       -27.8760   30.2060  -12.6670 O.3   187  TYR187     -0.2866
     49  N        -29.5480   23.7660  -11.9010 N.am  188  GLN188     -0.1979
     50  CA       -30.9040   23.9750  -11.3700 C.3   188  GLN188      0.1601
     51  C        -31.0800   23.4370   -9.9160 C.2   188  GLN188      0.2287
     52  O        -31.6250   24.1390   -9.0710 O.2   188  GLN188     -0.2864
     53  CB       -31.9110   23.3680  -12.3370 C.3   188  GLN188      0.0394
     54  CG       -31.9680   24.1600  -13.6020 C.3   188  GLN188      0.0908
     55  CD       -32.6350   23.4690  -14.7590 C.2   188  GLN188      0.2608
     56  OE1      -33.1500   22.3580  -14.6340 O.2   188  GLN188     -0.2717
     57  NE2      -32.6290   24.1300  -15.8890 N.am  188  GLN188     -0.0878
     58  N        -24.4470   36.6950  -12.2860 N.3   210  ILE210     -0.1231
     59  CA       -24.4350   36.0100  -13.5870 C.3   210  ILE210      0.1692
     60  C        -24.8760   36.9400  -14.7190 C.2   210  ILE210      0.2591
     61  O        -24.2420   36.9820  -15.7970 O.2   210  ILE210     -0.2718
     62  CB       -25.3710   34.7740  -13.6070 C.3   210  ILE210      0.0266
     63  CG1      -24.8090   33.6480  -12.7320 C.3   210  ILE210      0.0019
     64  CG2      -25.5600   34.2240  -15.0410 C.3   210  ILE210      0.0020
     65  CD1      -25.8380   32.5650  -12.4120 C.3   210  ILE210      0.0001
     66  N        -26.0030   37.6310  -14.5150 N.am  211  LEU211     -0.1980
     67  CA       -26.5060   38.5570  -15.5600 C.3   211  LEU211      0.1596
     68  C        -25.5590   39.7530  -15.8600 C.2   211  LEU211      0.2287
     69  O        -25.4440   40.2390  -17.0160 O.2   211  LEU211     -0.2864
     70  CB       -27.9130   38.9880  -15.2050 C.3   211  LEU211      0.0297
     71  CG       -28.9850   37.8810  -15.1080 C.3   211  LEU211      0.0022
     72  CD1      -30.2860   38.3900  -14.5510 C.3   211  LEU211      0.0001
     73  CD2      -29.2270   37.3020  -16.5070 C.3   211  LEU211      0.0001
     74  N        -22.6980   38.3560  -17.9380 N.3   214  LYS214     -0.1231
     75  CA       -23.1640   38.0190  -19.2720 C.3   214  LYS214      0.1693
     76  C        -23.5300   39.2390  -20.1140 C.2   214  LYS214      0.2592
     77  O        -23.2780   39.2500  -21.3260 O.2   214  LYS214     -0.2718
     78  CB       -24.3750   37.0910  -19.1640 C.3   214  LYS214      0.0285
     79  CG       -24.7970   36.4820  -20.4920 C.3   214  LYS214      0.0035
     80  CD       -26.0350   35.6290  -20.2960 C.3   214  LYS214      0.0206
     81  CE       -26.4280   34.8600  -21.5560 C.3   214  LYS214      0.1093
     82  NZ       -25.8570   33.4810  -21.4980 N.3   214  LYS214     -0.1314
     83  N        -24.1300   40.2510  -19.4860 N.am  215  PHE215     -0.1976
     84  CA       -24.5970   41.4580  -20.1870 C.3   215  PHE215      0.1639
     85  C        -23.9460   42.6750  -19.5580 C.2   215  PHE215      0.2290
     86  O        -24.6150   43.4960  -18.9470 O.2   215  PHE215     -0.2864
     87  CB       -26.1220   41.5850  -20.0940 C.3   215  PHE215      0.0560
     88  CG       -26.8690   40.3740  -20.5880 C.ar  215  PHE215     -0.0200
     89  CD1      -26.6420   39.8720  -21.8620 C.ar  215  PHE215     -0.0042
     90  CD2      -27.8310   39.7640  -19.8000 C.ar  215  PHE215     -0.0042
     91  CE1      -27.3180   38.7600  -22.3280 C.ar  215  PHE215     -0.0003
     92  CE2      -28.5210   38.6490  -20.2530 C.ar  215  PHE215     -0.0003
     93  CZ       -28.2600   38.1420  -21.5290 C.ar  215  PHE215     -0.0000
     94  N        -36.2170   36.9300  -13.3380 N.3   230  VAL230     -0.1245
     95  CA       -35.4890   35.7070  -13.1330 C.3   230  VAL230      0.1561
     96  C        -35.8080   35.0550  -11.7800 C.2   230  VAL230      0.2260
     97  O        -36.0030   33.8250  -11.7390 O.2   230  VAL230     -0.2867
     98  CB       -33.9720   35.9060  -13.3050 C.3   230  VAL230      0.0252
     99  CG1      -33.2400   34.6300  -13.0270 C.3   230  VAL230      0.0019
    100  CG2      -33.6470   36.3180  -14.7190 C.3   230  VAL230      0.0019
    101  N        -39.0950   33.4350  -11.9280 N.3   233  ASN233     -0.1225
    102  CA       -38.8960   32.2720  -12.7520 C.3   233  ASN233      0.1785
    103  C        -38.3400   31.0910  -11.9460 C.2   233  ASN233      0.2597
    104  O        -38.8870   29.9760  -12.0230 O.2   233  ASN233     -0.2718
    105  CB       -37.9540   32.6460  -13.9060 C.3   233  ASN233      0.1169
    106  CG       -37.9140   31.6350  -15.0220 C.2   233  ASN233      0.2627
    107  OD1      -38.6480   30.6340  -15.0430 O.2   233  ASN233     -0.2716
    108  ND2      -37.0750   31.9390  -16.0180 N.am  233  ASN233     -0.0877
    109  N        -37.2730   31.3070  -11.1780 N.am  234  TYR234     -0.1976
    110  CA       -36.7900   30.2620  -10.2540 C.3   234  TYR234      0.1639
    111  C        -37.8090   29.8630   -9.1720 C.2   234  TYR234      0.2290
    112  O        -37.9020   28.7050   -8.8780 O.2   234  TYR234     -0.2864
    113  CB       -35.4520   30.6100   -9.5910 C.3   234  TYR234      0.0560
    114  CG       -34.3480   30.3160  -10.4990 C.ar  234  TYR234     -0.0198
    115  CD1      -33.7430   29.0700  -10.4910 C.ar  234  TYR234     -0.0009
    116  CD2      -33.8990   31.2510  -11.3840 C.ar  234  TYR234     -0.0009
    117  CE1      -32.7170   28.7890  -11.3500 C.ar  234  TYR234      0.0417
    118  CE2      -32.8740   30.9720  -12.2410 C.ar  234  TYR234      0.0417
    119  CZ       -32.2890   29.7250  -12.2130 C.ar  234  TYR234      0.1957
    120  OH       -31.3070   29.4190  -13.1040 O.3   234  TYR234     -0.2866
    121  N        -40.1790   27.4340  -11.0350 N.3   237  CYS237     -0.1235
    122  CA       -39.4810   26.3150  -11.6040 C.3   237  CYS237      0.1677
    123  C        -38.9840   25.4090  -10.4600 C.2   237  CYS237      0.2270
    124  O        -39.0900   24.1820  -10.5760 O.2   237  CYS237     -0.2867
    125  CB       -38.3460   26.7800  -12.5090 C.3   237  CYS237      0.0956
    126  SG       -38.8250   27.5950  -14.0600 S.3   237  CYS237     -0.0801
    127  N        -40.2850   31.5740  -17.8170 N.3   249  THR249     -0.1218
    128  CA       -39.1080   31.4920  -18.6680 C.3   249  THR249      0.1862
    129  C        -39.3350   32.3360  -19.9560 C.2   249  THR249      0.2287
    130  O        -38.4980   33.1470  -20.3200 O.2   249  THR249     -0.2866
    131  CB       -38.7880   30.0280  -19.0230 C.3   249  THR249      0.1770
    132  OG1      -38.4710   29.2970  -17.8240 O.3   249  THR249     -0.2211
    133  CG2      -37.5950   29.9150  -20.0040 C.3   249  THR249      0.0375
    134  N        -38.9260   36.0390  -19.1730 N.3   252  VAL252     -0.1231
    135  CA       -37.5360   36.4290  -19.0550 C.3   252  VAL252      0.1692
    136  C        -36.9020   36.6290  -20.4780 C.2   252  VAL252      0.2591
    137  O        -36.2700   37.6780  -20.7540 O.2   252  VAL252     -0.2718
    138  CB       -36.7370   35.4370  -18.1730 C.3   252  VAL252      0.0266
    139  CG1      -35.2450   35.6190  -18.3010 C.3   252  VAL252      0.0020
    140  CG2      -37.1340   35.5510  -16.6930 C.3   252  VAL252      0.0020
    141  N        -37.1470   35.6840  -21.3830 N.am  253  MET253     -0.1979
    142  CA       -36.5460   35.7290  -22.7210 C.3   253  MET253      0.1605
    143  C        -37.0930   36.9000  -23.5310 C.2   253  MET253      0.2287
    144  O        -36.3200   37.6380  -24.1790 O.2   253  MET253     -0.2864
    145  CB       -36.7470   34.3870  -23.4410 C.3   253  MET253      0.0413
    146  CG       -36.1350   33.2170  -22.6980 C.3   253  MET253      0.0598
    147  SD       -34.4490   33.5620  -22.1650 S.3   253  MET253     -0.1393
    148  CE       -34.0810   32.1190  -21.1770 C.3   253  MET253      0.0692
    149  N        -35.4550   40.0920  -22.0670 N.3   256  ILE256     -0.1245
    150  CA       -34.1300   40.1690  -22.6620 C.3   256  ILE256      0.1561
    151  C        -34.2240   40.6330  -24.1380 C.2   256  ILE256      0.2260
    152  O        -33.6960   41.6900  -24.4880 O.2   256  ILE256     -0.2867
    153  CB       -33.4110   38.8210  -22.5440 C.3   256  ILE256      0.0252
    154  CG1      -33.0500   38.5650  -21.0590 C.3   256  ILE256      0.0019
    155  CG2      -32.1340   38.7330  -23.3940 C.3   256  ILE256      0.0019
    156  CD1      -32.5070   37.1900  -20.7670 C.3   256  ILE256      0.0001
    157  N        -33.1060   28.4130  -24.2460 N.3   280  GLN280     -0.1245
    158  CA       -31.9690   27.5040  -23.9940 C.3   280  GLN280      0.1566
    159  C        -30.7340   27.9780  -24.8310 C.2   280  GLN280      0.2260
    160  O        -29.5850   27.7650  -24.4280 O.2   280  GLN280     -0.2867
    161  CB       -32.3140   26.0250  -24.2970 C.3   280  GLN280      0.0367
    162  CG       -33.2750   25.2640  -23.3560 C.3   280  GLN280      0.0905
    163  CD       -33.0980   25.4760  -21.8460 C.2   280  GLN280      0.2608
    164  OE1      -32.5340   24.6320  -21.1380 O.2   280  GLN280     -0.2717
    165  NE2      -33.6400   26.5840  -21.3370 N.am  280  GLN280     -0.0878
    166  N        -30.2660   31.4950  -25.5460 N.3   282  ILE282     -0.1231
    167  CA       -29.8280   32.6880  -24.7980 C.3   282  ILE282      0.1692
    168  C        -28.9740   32.2630  -23.6280 C.2   282  ILE282      0.2591
    169  O        -27.9280   32.8690  -23.4010 O.2   282  ILE282     -0.2718
    170  CB       -31.0060   33.5990  -24.3400 C.3   282  ILE282      0.0266
    171  CG1      -31.5170   34.4400  -25.5190 C.3   282  ILE282      0.0019
    172  CG2      -30.6070   34.5600  -23.2090 C.3   282  ILE282      0.0020
    173  CD1      -32.9060   35.0250  -25.3210 C.3   282  ILE282      0.0001
    174  N        -29.3820   31.2000  -22.9250 N.am  283  ILE283     -0.1980
    175  CA       -28.6050   30.6800  -21.7900 C.3   283  ILE283      0.1595
    176  C        -27.2110   30.1710  -22.2190 C.2   283  ILE283      0.2287
    177  O        -26.2390   30.3350  -21.4820 O.2   283  ILE283     -0.2864
    178  CB       -29.3880   29.5990  -20.9790 C.3   283  ILE283      0.0276
    179  CG1      -30.6130   30.2290  -20.2950 C.3   283  ILE283      0.0022
    180  CG2      -28.5130   28.9990  -19.8760 C.3   283  ILE283      0.0022
    181  CD1      -31.5560   29.2490  -19.6270 C.3   283  ILE283      0.0001
@<TRIPOS>BOND
     1   166   167    1
     2   171   173    1
     3   171   170    1
     4   159   160    2
     5   159   158    1
     6   167   170    1
     7   167   168    1
     8   152   151    2
     9   170   172    1
    10   161   158    1
    11   161   162    1
    12   157   158    1
    13   144   143    2
    14   151   150    1
    15   168   169    2
    16   168   174   am
    17   143   142    1
    18   145   142    1
    19   145   146    1
    20   155   153    1
    21   162   163    1
    22   174   175    1
    23   142   141    1
    24   146   147    1
    25   150   153    1
    26   150   149    1
    27   153   154    1
    28    91    89   ar
    29    91    93   ar
    30    15    14    2
    31   176   175    1
    32   176   177    2
    33   147   148    1
    34    89    88   ar
    35    22    21    2
    36   163   165   am
    37   163   164    2
    38   175   178    1
    39    81    82    1
    40    81    80    1
    41    93    92   ar
    42   141   136   am
    43    77    76    2
    44    14    13    1
    45    14    19   am
    46   154   156    1
    47   178   179    1
    48   178   180    1
    49    21    20    1
    50    13    16    1
    51    13    12    1
    52   137   136    2
    53    88    87    1
    54    88    90   ar
    55    16    17    1
    56    79    80    1
    57    79    78    1
    58   136   135    1
    59    34    36   ar
    60    34    32   ar
    61    20    19    1
    62    20    23    1
    63   130   129    2
    64   179   181    1
    65    92    90   ar
    66    84    87    1
    67    84    85    1
    68    84    83    1
    69    36    35   ar
    70    76    83   am
    71    76    75    1
    72   133   131    1
    73   129   128    1
    74    85    86    2
    75    12    18    1
    76    32    31   ar
    77    17    18    1
    78    25    23    1
    79    75    78    1
    80    75    74    1
    81    35    33   ar
    82   134   135    1
    83    23    24    1
    84   135   138    1
    85   131   128    1
    86   131   132    1
    87   128   127    1
    88    31    33   ar
    89    31    30    1
    90   139   138    1
    91   138   140    1
    92    30    27    1
    93     4     3    2
    94    69    68    2
    95    26    27    1
    96     3     2    1
    97    27    28    1
    98    73    71    1
    99   108   106   am
   100    57    55   am
   101    68    67    1
   102    61    60    2
   103    67    70    1
   104    67    66    1
   105     5     2    1
   106     5     6    1
   107     2     1    1
   108    28    29    2
   109    70    71    1
   110    71    72    1
   111   107   106    2
   112    64    62    1
   113   106   105    1
   114    55    56    2
   115    55    54    1
   116   100    98    1
   117    60    66   am
   118    60    59    1
   119     8     6   ar
   120     8    10   ar
   121     6     7   ar
   122   126   125    1
   123   105   102    1
   124    44    46   ar
   125    44    42   ar
   126    62    59    1
   127    62    63    1
   128    54    53    1
   129    59    58    1
   130    46    47   ar
   131    94    95    1
   132    41    42    1
   133    41    38    1
   134    98    95    1
   135    98    99    1
   136    42    43   ar
   137    10    11   ar
   138    95    96    1
   139   120   119    1
   140     7     9   ar
   141    47    48    1
   142    47    45   ar
   143   102   103    1
   144   102   101    1
   145    63    65    1
   146   125   122    1
   147    43    45   ar
   148    53    50    1
   149    37    38    1
   150   118   119   ar
   151   118   116   ar
   152   119   117   ar
   153    38    39    1
   154   104   103    2
   155   103   109   am
   156    11     9   ar
   157    49    39   am
   158    49    50    1
   159    96    97    2
   160   122   121    1
   161   122   123    1
   162   116   114   ar
   163    39    40    2
   164    50    51    1
   165   117   115   ar
   166   109   110    1
   167   124   123    2
   168   114   115   ar
   169   114   113    1
   170   110   113    1
   171   110   111    1
   172    51    52    2
   173   111   112    2
