@<TRIPOS>MOLECULE
tmp/6fakA09.pdb
 95 93 0 0 0
SMALL
GASTEIGER

@<TRIPOS>ATOM
      1  N         -9.6490    9.0370   -8.1260 N.3   397  TYR397     -0.1241
      2  CA        -9.4140    8.1190   -7.0120 C.3   397  TYR397      0.1605
      3  C         -9.0390    8.8640   -5.7440 C.2   397  TYR397      0.2264
      4  O         -9.4950    8.5050   -4.6340 O.2   397  TYR397     -0.2867
      5  CB        -8.3460    7.0730   -7.4210 C.3   397  TYR397      0.0534
      6  CG        -8.7100    6.2650   -8.6470 C.ar  397  TYR397     -0.0201
      7  CD1      -10.0350    5.8710   -8.8900 C.ar  397  TYR397     -0.0009
      8  CD2       -7.7380    5.8880   -9.5700 C.ar  397  TYR397     -0.0009
      9  CE1      -10.3610    5.1130   -9.9920 C.ar  397  TYR397      0.0417
     10  CE2       -8.0470    5.1440  -10.6900 C.ar  397  TYR397      0.0417
     11  CZ        -9.3460    4.7580  -10.8930 C.ar  397  TYR397      0.1957
     12  OH        -9.6930    4.0610  -12.0050 O.3   397  TYR397     -0.2866
     13  N        -13.0690   -9.5550   -7.9790 N.3   499  PHE499     -0.1241
     14  CA       -13.0820   -9.2770   -9.3870 C.3   499  PHE499      0.1605
     15  C        -13.5590  -10.5480  -10.0920 C.2   499  PHE499      0.2264
     16  O        -13.0620  -11.6520   -9.8200 O.2   499  PHE499     -0.2867
     17  CB       -11.6810   -8.8920   -9.8240 C.3   499  PHE499      0.0534
     18  CG       -11.5770   -8.5650  -11.2730 C.ar  499  PHE499     -0.0203
     19  CD1      -11.0820   -9.5100  -12.1690 C.ar  499  PHE499     -0.0042
     20  CD2      -11.9860   -7.3210  -11.7510 C.ar  499  PHE499     -0.0042
     21  CE1      -10.9890   -9.2200  -13.5140 C.ar  499  PHE499     -0.0003
     22  CE2      -11.8900   -7.0210  -13.1020 C.ar  499  PHE499     -0.0003
     23  CZ       -11.3940   -7.9720  -13.9870 C.ar  499  PHE499     -0.0000
     24  N        -17.7080    0.3200  -11.6690 N.3   514  LYS514     -0.1231
     25  CA       -17.3360   -0.8330  -10.8330 C.3   514  LYS514      0.1693
     26  C        -16.0430   -0.6570  -10.0650 C.2   514  LYS514      0.2592
     27  O        -15.9500   -1.0100   -8.8750 O.2   514  LYS514     -0.2718
     28  CB       -17.2390   -2.0990  -11.6950 C.3   514  LYS514      0.0285
     29  CG       -16.2380   -3.1880  -11.2540 C.3   514  LYS514      0.0035
     30  CD       -16.6720   -3.9670   -9.9960 C.3   514  LYS514      0.0206
     31  CE       -15.4950   -4.5300   -9.1770 C.3   514  LYS514      0.1093
     32  NZ       -15.9240   -5.3320   -7.9850 N.3   514  LYS514     -0.1314
     33  N        -15.0190   -0.1800  -10.7540 N.am  515  THR515     -0.1953
     34  CA       -13.7590    0.1910  -10.1050 C.3   515  THR515      0.1897
     35  C        -13.9630    1.2720   -9.0140 C.2   515  THR515      0.2313
     36  O        -13.4000    1.1730   -7.9140 O.2   515  THR515     -0.2863
     37  CB       -12.7740    0.6890  -11.1580 C.3   515  THR515      0.1794
     38  OG1      -12.5120   -0.3990  -12.0510 O.3   515  THR515     -0.2208
     39  CG2      -11.4390    1.1970  -10.5330 C.3   515  THR515      0.0378
     40  N        -15.7000   -0.1530   -5.9590 N.3   518  PHE518     -0.1241
     41  CA       -14.6950   -0.9210   -5.1890 C.3   518  PHE518      0.1605
     42  C        -13.8840   -0.0310   -4.2480 C.2   518  PHE518      0.2264
     43  O        -13.7360   -0.3300   -3.0350 O.2   518  PHE518     -0.2867
     44  CB       -13.7950   -1.7470   -6.1540 C.3   518  PHE518      0.0534
     45  CG       -12.6610   -2.4420   -5.4750 C.ar  518  PHE518     -0.0203
     46  CD1      -11.4380   -1.7960   -5.2840 C.ar  518  PHE518     -0.0042
     47  CD2      -12.8050   -3.7380   -5.0390 C.ar  518  PHE518     -0.0042
     48  CE1      -10.3870   -2.4130   -4.6200 C.ar  518  PHE518     -0.0003
     49  CE2      -11.7580   -4.3730   -4.3500 C.ar  518  PHE518     -0.0003
     50  CZ       -10.5370   -3.6930   -4.1430 C.ar  518  PHE518     -0.0000
     51  N         -5.1810    0.1420   -2.9760 N.3   538  PHE538     -0.1241
     52  CA        -5.9390    0.2210   -4.2100 C.3   538  PHE538      0.1605
     53  C         -5.0570   -0.0250   -5.4390 C.2   538  PHE538      0.2264
     54  O         -5.4800   -0.7410   -6.3580 O.2   538  PHE538     -0.2867
     55  CB        -6.6080    1.5850   -4.3250 C.3   538  PHE538      0.0534
     56  CG        -7.3520    1.7560   -5.5970 C.ar  538  PHE538     -0.0203
     57  CD1       -8.5110    1.0330   -5.8270 C.ar  538  PHE538     -0.0042
     58  CD2       -6.8810    2.6020   -6.5740 C.ar  538  PHE538     -0.0042
     59  CE1       -9.2300    1.1710   -7.0090 C.ar  538  PHE538     -0.0003
     60  CE2       -7.6090    2.7680   -7.7560 C.ar  538  PHE538     -0.0003
     61  CZ        -8.7750    2.0360   -7.9680 C.ar  538  PHE538     -0.0000
     62  N         -4.3560   -3.8270   -5.7760 N.3   541  PHE541     -0.1227
     63  CA        -5.5050   -4.4580   -6.4130 C.3   541  PHE541      0.1736
     64  C         -5.5510   -4.1540   -7.9070 C.2   541  PHE541      0.2595
     65  O         -5.7950   -5.0570   -8.7140 O.2   541  PHE541     -0.2718
     66  CB        -6.8070   -4.0120   -5.7510 C.3   541  PHE541      0.0547
     67  CG        -7.1970   -4.7890   -4.5500 C.ar  541  PHE541     -0.0202
     68  CD1       -7.7410   -6.0500   -4.6720 C.ar  541  PHE541     -0.0042
     69  CD2       -7.1510   -4.2040   -3.2880 C.ar  541  PHE541     -0.0042
     70  CE1       -8.1890   -6.7480   -3.5480 C.ar  541  PHE541     -0.0003
     71  CE2       -7.5710   -4.8910   -2.1560 C.ar  541  PHE541     -0.0003
     72  CZ        -8.1040   -6.1700   -2.2830 C.ar  541  PHE541     -0.0000
     73  N         -5.2730   -2.9020   -8.2780 N.am  542  ALA542     -0.1980
     74  CA        -5.2940   -2.4700   -9.6900 C.3   542  ALA542      0.1597
     75  C         -4.2430   -3.1880  -10.5330 C.2   542  ALA542      0.2287
     76  O         -4.5310   -3.6330  -11.6560 O.2   542  ALA542     -0.2864
     77  CB        -5.0940   -0.9700   -9.8240 C.3   542  ALA542      0.0319
     78  N         -5.4320   -6.8730  -10.9840 N.3   545  VAL545     -0.1245
     79  CA        -6.4620   -6.8510  -12.0460 C.3   545  VAL545      0.1561
     80  C         -5.8880   -6.7610  -13.4550 C.2   545  VAL545      0.2260
     81  O         -6.2890   -7.5000  -14.3390 O.2   545  VAL545     -0.2867
     82  CB        -7.4380   -5.6570  -11.8440 C.3   545  VAL545      0.0252
     83  CG1       -8.2170   -5.3380  -13.1180 C.3   545  VAL545      0.0019
     84  CG2       -8.3830   -5.9580  -10.6830 C.3   545  VAL545      0.0019
     85  N         -6.9270  -13.7500   -9.9010 N.3   558  PHE558     -0.1241
     86  CA        -7.2220  -12.6830   -8.9500 C.3   558  PHE558      0.1605
     87  C         -7.2300  -13.1440   -7.4980 C.2   558  PHE558      0.2264
     88  O         -6.6070  -12.5120   -6.6460 O.2   558  PHE558     -0.2867
     89  CB        -8.5760  -12.0410   -9.2510 C.3   558  PHE558      0.0534
     90  CG        -8.8490  -10.8280   -8.4130 C.ar  558  PHE558     -0.0203
     91  CD1       -9.4780  -10.9470   -7.1750 C.ar  558  PHE558     -0.0042
     92  CD2       -8.4460   -9.5720   -8.8440 C.ar  558  PHE558     -0.0042
     93  CE1       -9.7210   -9.8260   -6.3970 C.ar  558  PHE558     -0.0003
     94  CE2       -8.6900   -8.4480   -8.0680 C.ar  558  PHE558     -0.0003
     95  CZ        -9.3250   -8.5780   -6.8420 C.ar  558  PHE558     -0.0000
@<TRIPOS>BOND
     1    81    80    2
     2    23    21   ar
     3    23    22   ar
     4    21    19   ar
     5    80    79    1
     6    83    82    1
     7    22    20   ar
     8    19    18   ar
     9    38    37    1
    10    79    82    1
    11    79    78    1
    12    12    11    1
    13    82    84    1
    14    20    18   ar
    15    28    29    1
    16    28    25    1
    17    24    25    1
    18    76    75    2
    19    18    17    1
    20    29    30    1
    21    37    39    1
    22    37    34    1
    23    11    10   ar
    24    11     9   ar
    25    25    26    1
    26    33    34    1
    27    33    26   am
    28    10     8   ar
    29    75    74    1
    30    34    35    1
    31    15    16    2
    32    15    14    1
    33    26    27    2
    34    30    31    1
    35     9     7   ar
    36    85    86    1
    37    17    14    1
    38    77    74    1
    39    74    73    1
    40     8     6   ar
    41    14    13    1
    42    89    86    1
    43    89    90    1
    44    31    32    1
    45    35    36    2
    46    86    87    1
    47     7     6   ar
    48    92    90   ar
    49    92    94   ar
    50    65    64    2
    51     6     5    1
    52    90    91   ar
    53    73    64   am
    54     1     2    1
    55    94    95   ar
    56    61    60   ar
    57    61    59   ar
    58    64    63    1
    59    60    58   ar
    60    87    88    2
    61     5     2    1
    62    91    93   ar
    63     2     3    1
    64    59    57   ar
    65    95    93   ar
    66    58    56   ar
    67    63    62    1
    68    63    66    1
    69    54    53    2
    70    44    45    1
    71    44    41    1
    72    40    41    1
    73    57    56   ar
    74    66    67    1
    75     3     4    2
    76    56    55    1
    77    45    46   ar
    78    45    47   ar
    79    53    52    1
    80    46    48   ar
    81    41    42    1
    82    47    49   ar
    83    68    67   ar
    84    68    70   ar
    85    48    50   ar
    86    67    69   ar
    87    49    50   ar
    88    55    52    1
    89    42    43    2
    90    52    51    1
    91    70    72   ar
    92    69    71   ar
    93    72    71   ar
