@<TRIPOS>MOLECULE
tmp/6fakA07.pdb
 110 106 0 0 0
SMALL
GASTEIGER

@<TRIPOS>ATOM
      1  N        -33.6500   36.2750   -0.8560 N.3   201  LYS201     -0.1231
      2  CA       -32.8750   37.4900   -0.5520 C.3   201  LYS201      0.1693
      3  C        -31.3480   37.3840   -0.6480 C.2   201  LYS201      0.2591
      4  O        -30.6800   38.3910   -0.8140 O.2   201  LYS201     -0.2718
      5  CB       -33.2340   38.0240    0.8540 C.3   201  LYS201      0.0285
      6  CG       -34.6000   38.6770    0.9690 C.3   201  LYS201      0.0035
      7  CD       -34.9330   39.1100    2.4020 C.3   201  LYS201      0.0206
      8  CE       -33.9230   40.0920    2.9940 C.3   201  LYS201      0.1093
      9  NZ       -32.9250   39.4540    3.9040 N.3   201  LYS201     -0.1314
     10  N        -30.8250   36.1830   -0.3960 N.am  202  VAL202     -0.1980
     11  CA       -29.4440   35.8240   -0.4290 C.3   202  VAL202      0.1595
     12  C        -29.2140   35.3290   -1.8340 C.2   202  VAL202      0.2287
     13  O        -28.2010   35.6300   -2.4730 O.2   202  VAL202     -0.2864
     14  CB       -29.2010   34.6730    0.5740 C.3   202  VAL202      0.0276
     15  CG1      -27.8920   33.9790    0.3000 C.3   202  VAL202      0.0022
     16  CG2      -29.3690   35.1780    2.0180 C.3   202  VAL202      0.0022
     17  N        -28.6370   37.5220   -5.3700 N.3   205  PHE205     -0.1241
     18  CA       -27.2600   37.9320   -5.6570 C.3   205  PHE205      0.1605
     19  C        -26.5510   37.0670   -6.7160 C.2   205  PHE205      0.2264
     20  O        -25.7610   37.5800   -7.5340 O.2   205  PHE205     -0.2867
     21  CB       -26.4610   38.1430   -4.3710 C.3   205  PHE205      0.0534
     22  CG       -26.7910   39.4450   -3.7140 C.ar  205  PHE205     -0.0203
     23  CD1      -28.0070   39.6190   -3.0260 C.ar  205  PHE205     -0.0042
     24  CD2      -25.9700   40.5400   -3.8600 C.ar  205  PHE205     -0.0042
     25  CE1      -28.3390   40.8470   -2.4390 C.ar  205  PHE205     -0.0003
     26  CE2      -26.3070   41.7760   -3.2950 C.ar  205  PHE205     -0.0003
     27  CZ       -27.4830   41.9460   -2.6080 C.ar  205  PHE205     -0.0000
     28  N        -29.1040   49.3410    2.2910 N.3   315  PRO315     -0.2102
     29  CA       -28.0150   48.3340    2.2040 C.3   315  PRO315      0.1504
     30  C        -28.2070   47.2960    1.0920 C.2   315  PRO315      0.2575
     31  O        -27.2540   46.9910    0.3770 O.2   315  PRO315     -0.2718
     32  CB       -27.9600   47.6860    3.6090 C.3   315  PRO315      0.0282
     33  CG       -28.8490   48.5220    4.4940 C.3   315  PRO315      0.0208
     34  CD       -29.6850   49.4680    3.6450 C.3   315  PRO315      0.0893
     35  N        -29.4350   46.7920    0.8890 N.am  316  ASP316     -0.1974
     36  CA       -29.6740   45.7750   -0.1450 C.3   316  ASP316      0.1708
     37  C        -29.3420   46.3150   -1.5050 C.2   316  ASP316      0.2293
     38  O        -28.6310   45.6770   -2.2600 O.2   316  ASP316     -0.2864
     39  CB       -31.1110   45.2330   -0.1290 C.3   316  ASP316      0.1436
     40  CG       -31.4310   44.4310    1.1550 C.2   316  ASP316      0.3671
     41  OD1      -30.6210   43.5720    1.5570 O.co2 316  ASP316     -0.2456
     42  OD2      -32.4740   44.7010    1.7960 O.co2 316  ASP316     -0.2456
     43  N        -25.4430   47.0310   -1.9410 N.3   319  PHE319     -0.1241
     44  CA       -24.7130   45.7710   -2.2690 C.3   319  PHE319      0.1605
     45  C        -25.0690   45.1380   -3.6350 C.2   319  PHE319      0.2264
     46  O        -24.2040   44.5210   -4.2840 O.2   319  PHE319     -0.2867
     47  CB       -24.7680   44.7570   -1.0970 C.3   319  PHE319      0.0534
     48  CG       -24.0170   45.2220    0.1330 C.ar  319  PHE319     -0.0203
     49  CD1      -22.6540   45.4190    0.0900 C.ar  319  PHE319     -0.0042
     50  CD2      -24.6840   45.4760    1.3340 C.ar  319  PHE319     -0.0042
     51  CE1      -21.9690   45.8990    1.2120 C.ar  319  PHE319     -0.0003
     52  CE2      -24.0250   45.9350    2.4430 C.ar  319  PHE319     -0.0003
     53  CZ       -22.6600   46.1710    2.3820 C.ar  319  PHE319     -0.0000
     54  N        -19.4640   36.1550   -5.0390 N.3   339  LEU339     -0.1245
     55  CA       -20.2670   36.2170   -3.8260 C.3   339  LEU339      0.1561
     56  C        -19.4280   36.2510   -2.5640 C.2   339  LEU339      0.2260
     57  O        -19.8390   36.8830   -1.6140 O.2   339  LEU339     -0.2867
     58  CB       -21.2590   35.0460   -3.7550 C.3   339  LEU339      0.0270
     59  CG       -22.1510   35.0020   -5.0090 C.3   339  LEU339      0.0019
     60  CD1      -22.9940   33.7300   -4.9490 C.3   339  LEU339      0.0001
     61  CD2      -23.0000   36.2310   -5.1490 C.3   339  LEU339      0.0001
     62  N        -18.4700   39.8700   -2.3100 N.3   342  VAL342     -0.1231
     63  CA       -19.5760   40.6820   -1.8160 C.3   342  VAL342      0.1692
     64  C        -19.6600   40.5720   -0.2870 C.2   342  VAL342      0.2591
     65  O        -19.8060   41.6050    0.4050 O.2   342  VAL342     -0.2718
     66  CB       -20.9210   40.3330   -2.4730 C.3   342  VAL342      0.0266
     67  CG1      -22.0420   41.1400   -1.8320 C.3   342  VAL342      0.0020
     68  CG2      -20.9120   40.5860   -3.9910 C.3   342  VAL342      0.0020
     69  N        -19.5380   39.3560    0.2470 N.am  343  GLN343     -0.1979
     70  CA       -19.5970   39.1660    1.6910 C.3   343  GLN343      0.1601
     71  C        -18.4600   39.8380    2.4350 C.2   343  GLN343      0.2287
     72  O        -18.6530   40.4230    3.5250 O.2   343  GLN343     -0.2864
     73  CB       -19.5900   37.6680    2.0220 C.3   343  GLN343      0.0394
     74  CG       -19.7540   37.3570    3.4970 C.3   343  GLN343      0.0908
     75  CD       -21.1160   37.8210    3.9990 C.2   343  GLN343      0.2608
     76  OE1      -22.1480   37.4580    3.4110 O.2   343  GLN343     -0.2717
     77  NE2      -21.1270   38.6650    5.0350 N.am  343  GLN343     -0.0878
     78  N        -19.1630   43.5050    2.5120 N.3   346  LYS346     -0.1245
     79  CA       -20.1540   43.7360    3.5490 C.3   346  LYS346      0.1561
     80  C        -19.5990   43.6770    4.9970 C.2   346  LYS346      0.2260
     81  O        -19.8480   44.5950    5.7940 O.2   346  LYS346     -0.2867
     82  CB       -21.2960   42.7440    3.3840 C.3   346  LYS346      0.0271
     83  CG       -22.3770   42.8070    4.4310 C.3   346  LYS346      0.0035
     84  CD       -23.4810   41.7960    4.0440 C.3   346  LYS346      0.0206
     85  CE       -24.6450   41.8580    5.0250 C.3   346  LYS346      0.1093
     86  NZ       -25.6550   40.8110    4.6930 N.3   346  LYS346     -0.1314
     87  N        -23.3170   29.1830    5.0010 N.3   470  ASN470     -0.1225
     88  CA       -22.6310   30.1640    4.1580 C.3   470  ASN470      0.1785
     89  C        -22.4940   29.5870    2.7530 C.2   470  ASN470      0.2597
     90  O        -21.6750   28.7110    2.5020 O.2   470  ASN470     -0.2718
     91  CB       -21.2780   30.6360    4.7370 C.3   470  ASN470      0.1169
     92  CG       -20.9210   32.0670    4.3210 C.2   470  ASN470      0.2627
     93  OD1      -21.3080   32.5510    3.2350 O.2   470  ASN470     -0.2716
     94  ND2      -20.1810   32.7580    5.1920 N.am  470  ASN470     -0.0877
     95  N        -23.3710   30.0440    1.8730 N.am  471  PHE471     -0.1962
     96  CA       -23.3770   29.5860    0.5230 C.3   471  PHE471      0.1771
     97  C        -22.0690   29.8190   -0.2190 C.2   471  PHE471      0.2619
     98  O        -21.4990   28.9110   -0.8030 O.2   471  PHE471     -0.2715
     99  CB       -24.5720   30.2740   -0.1560 C.3   471  PHE471      0.0574
    100  CG       -24.7520   29.8850   -1.5500 C.ar  471  PHE471     -0.0200
    101  CD1      -25.2260   28.6220   -1.8720 C.ar  471  PHE471     -0.0042
    102  CD2      -24.3840   30.7500   -2.5580 C.ar  471  PHE471     -0.0042
    103  CE1      -25.3730   28.2350   -3.1920 C.ar  471  PHE471     -0.0003
    104  CE2      -24.5200   30.3720   -3.8760 C.ar  471  PHE471     -0.0003
    105  CZ       -25.0180   29.1060   -4.2020 C.ar  471  PHE471     -0.0000
    106  N        -21.5920   31.0580   -0.1910 N.am  472  ALA472     -0.1977
    107  CA       -20.3880   31.4210   -0.9170 C.3   472  ALA472      0.1597
    108  C        -19.1130   30.7120   -0.4300 C.2   472  ALA472      0.2287
    109  O        -18.2420   30.4350   -1.1990 O.2   472  ALA472     -0.2864
    110  CB       -20.1950   32.9370   -0.8740 C.3   472  ALA472      0.0319
@<TRIPOS>BOND
     1    20    19    2
     2    19    18    1
     3    18    17    1
     4    18    21    1
     5    61    59    1
     6    54    55    1
     7    59    60    1
     8    59    58    1
     9    21    22    1
    10    46    45    2
    11   105   104   ar
    12   105   103   ar
    13    68    66    1
    14   104   102   ar
    15    24    22   ar
    16    24    26   ar
    17    55    58    1
    18    55    56    1
    19    22    23   ar
    20    45    44    1
    21    26    27   ar
    22   103   101   ar
    23    23    25   ar
    24    27    25   ar
    25    56    57    2
    26   102   100   ar
    27    66    67    1
    28    66    63    1
    29    13    12    2
    30    62    63    1
    31    44    43    1
    32    44    47    1
    33    38    37    2
    34   101   100   ar
    35    12    11    1
    36    63    64    1
    37   100    99    1
    38    37    36    1
    39   109   108    2
    40    47    48    1
    41   107   110    1
    42   107   108    1
    43   107   106    1
    44     1     2    1
    45     4     3    2
    46    98    97    2
    47     3     2    1
    48     3    10   am
    49     2     5    1
    50    11    10    1
    51    11    14    1
    52    64    69   am
    53    64    65    2
    54    97   106   am
    55    97    96    1
    56    99    96    1
    57    36    39    1
    58    36    35    1
    59    39    40    1
    60    49    48   ar
    61    49    51   ar
    62    48    50   ar
    63    69    70    1
    64    15    14    1
    65    31    30    2
    66    96    95    1
    67    14    16    1
    68     5     6    1
    69    35    30   am
    70     6     7    1
    71    30    29    1
    72    40    41   ar
    73    40    42   ar
    74    51    53   ar
    75    50    52   ar
    76    70    73    1
    77    70    71    1
    78    95    89   am
    79    73    74    1
    80    29    28    1
    81    29    32    1
    82    28    34    1
    83    53    52   ar
    84     7     8    1
    85    71    72    2
    86    90    89    2
    87    78    79    1
    88    89    88    1
    89     8     9    1
    90    93    92    2
    91    82    79    1
    92    82    83    1
    93    76    75    2
    94    74    75    1
    95    79    80    1
    96    32    33    1
    97    34    33    1
    98    75    77   am
    99    84    83    1
   100    84    85    1
   101    88    91    1
   102    88    87    1
   103    92    91    1
   104    92    94   am
   105    86    85    1
   106    80    81    2
