@<TRIPOS>MOLECULE
tmp/6fakA03.pdb
 89 84 0 0 0
SMALL
GASTEIGER

@<TRIPOS>ATOM
      1  N        -17.2600   39.6800    1.9020 N.3   344  ILE344     -0.1245
      2  CA       -16.0820   40.3550    2.4610 C.3   344  ILE344      0.1561
      3  C        -16.2640   41.8710    2.4790 C.2   344  ILE344      0.2260
      4  O        -15.9070   42.5060    3.4550 O.2   344  ILE344     -0.2867
      5  CB       -14.8270   39.9470    1.7350 C.3   344  ILE344      0.0252
      6  CG1      -14.4970   38.5190    2.1800 C.3   344  ILE344      0.0019
      7  CG2      -13.6420   40.8610    2.0440 C.3   344  ILE344      0.0019
      8  CD1      -13.5260   37.8560    1.2550 C.3   344  ILE344      0.0001
      9  N        -18.8090   42.6530    5.2980 N.3   347  ASP347     -0.1225
     10  CA       -18.1030   42.5430    6.6000 C.3   347  ASP347      0.1805
     11  C        -17.0970   43.6800    6.8270 C.2   347  ASP347      0.2597
     12  O        -17.0190   44.2320    7.9330 O.2   347  ASP347     -0.2718
     13  CB       -17.3940   41.1790    6.7510 C.3   347  ASP347      0.1424
     14  CG       -18.3660   40.0130    6.6500 C.2   347  ASP347      0.3668
     15  OD1      -19.6080   40.2420    6.8060 O.co2 347  ASP347     -0.2456
     16  OD2      -17.9020   38.8750    6.3550 O.co2 347  ASP347     -0.2456
     17  N        -16.3310   44.0250    5.8000 N.am  348  LEU348     -0.1979
     18  CA       -15.3860   45.1330    5.8810 C.3   348  LEU348      0.1596
     19  C        -16.0810   46.4420    6.3220 C.2   348  LEU348      0.2287
     20  O        -15.5770   47.1820    7.2140 O.2   348  LEU348     -0.2864
     21  CB       -14.7280   45.3620    4.4990 C.3   348  LEU348      0.0297
     22  CG       -13.9360   46.6870    4.3860 C.3   348  LEU348      0.0022
     23  CD1      -12.5520   46.4090    4.9370 C.3   348  LEU348      0.0001
     24  CD2      -13.8600   47.1670    2.9670 C.3   348  LEU348      0.0001
     25  N        -17.2020   46.8090   10.0160 N.3   351  ASN351     -0.1225
     26  CA       -16.1270   47.3030   10.8390 C.3   351  ASN351      0.1785
     27  C        -15.8050   48.7800   10.5580 C.2   351  ASN351      0.2597
     28  O        -15.9040   49.6160   11.4620 O.2   351  ASN351     -0.2718
     29  CB       -14.8940   46.3960   10.7120 C.3   351  ASN351      0.1169
     30  CG       -13.7110   46.9240   11.4790 C.2   351  ASN351      0.2627
     31  OD1      -12.9430   47.7310   10.9620 O.2   351  ASN351     -0.2716
     32  ND2      -13.5570   46.4770   12.7290 N.am  351  ASN351     -0.0877
     33  N        -15.4260   49.0830    9.3240 N.am  352  CYS352     -0.1970
     34  CA       -14.9580   50.4290    8.9260 C.3   352  CYS352      0.1712
     35  C        -15.9010   51.5720    9.1990 C.2   352  CYS352      0.2296
     36  O        -15.4390   52.6330    9.6490 O.2   352  CYS352     -0.2864
     37  CB       -14.5930   50.4690    7.4100 C.3   352  CYS352      0.0983
     38  SG       -13.1540   49.4630    6.9500 S.3   352  CYS352     -0.0798
     39  N        -10.2000   53.4250    6.2960 N.3   361  CYS361     -0.1235
     40  CA       -10.3060   51.9990    6.5340 C.3   361  CYS361      0.1677
     41  C        -10.7990   51.2770    5.2660 C.2   361  CYS361      0.2270
     42  O        -10.2270   50.2540    4.8660 O.2   361  CYS361     -0.2867
     43  CB       -11.2500   51.7860    7.7400 C.3   361  CYS361      0.0956
     44  SG       -11.6490   50.1140    8.2340 S.3   361  CYS361     -0.0801
     45  N         -8.8600   50.4540    1.4760 N.3   364  TYR364     -0.1241
     46  CA        -8.1040   49.2280    1.2090 C.3   364  TYR364      0.1605
     47  C         -8.9350   47.9780    0.9230 C.2   364  TYR364      0.2264
     48  O         -8.4280   46.8510    1.0050 O.2   364  TYR364     -0.2867
     49  CB        -7.1810   48.9670    2.3980 C.3   364  TYR364      0.0534
     50  CG        -6.2530   50.1240    2.6150 C.ar  364  TYR364     -0.0201
     51  CD1       -5.2340   50.3640    1.7220 C.ar  364  TYR364     -0.0009
     52  CD2       -6.4820   51.0560    3.6350 C.ar  364  TYR364     -0.0009
     53  CE1       -4.4130   51.4500    1.8660 C.ar  364  TYR364      0.0417
     54  CE2       -5.6410   52.1340    3.8020 C.ar  364  TYR364      0.0417
     55  CZ        -4.6150   52.3270    2.9120 C.ar  364  TYR364      0.1957
     56  OH        -3.7820   53.4000    3.0550 O.3   364  TYR364     -0.2866
     57  N         -7.4690   45.3040   -1.5140 N.3   367  ASP367     -0.1225
     58  CA        -6.4390   44.4260   -0.9330 C.3   367  ASP367      0.1805
     59  C         -7.0540   43.2250   -0.2500 C.2   367  ASP367      0.2597
     60  O         -6.4690   42.1260   -0.2890 O.2   367  ASP367     -0.2718
     61  CB        -5.5370   45.1820    0.0620 C.3   367  ASP367      0.1424
     62  CG        -4.7500   46.3200   -0.5920 C.2   367  ASP367      0.3668
     63  OD1       -4.3970   46.2190   -1.7760 O.co2 367  ASP367     -0.2456
     64  OD2       -4.4560   47.3140    0.0710 O.co2 367  ASP367     -0.2456
     65  N         -8.2050   43.4040    0.4320 N.am  368  LYS368     -0.1979
     66  CA        -8.8980   42.2350    0.9460 C.3   368  LYS368      0.1596
     67  C         -9.3820   41.3220   -0.1800 C.2   368  LYS368      0.2287
     68  O         -9.2330   40.1140   -0.0810 O.2   368  LYS368     -0.2864
     69  CB       -10.0780   42.6000    1.8340 C.3   368  LYS368      0.0298
     70  CG        -9.6410   43.3150    3.0740 C.3   368  LYS368      0.0038
     71  CD       -10.5680   43.0790    4.2590 C.3   368  LYS368      0.0206
     72  CE       -10.1670   43.9750    5.4030 C.3   368  LYS368      0.1093
     73  NZ        -9.1180   43.4130    6.2930 N.3   368  LYS368     -0.1314
     74  N         -6.3680   39.3450   -1.7680 N.3   371  GLU371     -0.1231
     75  CA        -5.9050   38.1900   -0.9610 C.3   371  GLU371      0.1699
     76  C         -6.8500   36.9760   -1.0510 C.2   371  GLU371      0.2592
     77  O         -6.4070   35.8070   -1.2700 O.2   371  GLU371     -0.2718
     78  CB        -5.6740   38.6150    0.4950 C.3   371  GLU371      0.0402
     79  CG        -5.4320   37.4840    1.4820 C.3   371  GLU371      0.1161
     80  CD        -5.1900   37.9950    2.8850 C.2   371  GLU371      0.3649
     81  OE1       -5.9430   37.5510    3.7780 O.co2 371  GLU371     -0.2457
     82  OE2       -4.2840   38.8520    3.0960 O.co2 371  GLU371     -0.2457
     83  N         -8.1550   37.2190   -0.9400 N.am  372  THR372     -0.1953
     84  CA        -9.0710   36.0880   -0.9770 C.3   372  THR372      0.1897
     85  C         -9.0530   35.4220   -2.3570 C.2   372  THR372      0.2313
     86  O         -9.0200   34.2120   -2.4580 O.2   372  THR372     -0.2863
     87  CB       -10.4970   36.4420   -0.5220 C.3   372  THR372      0.1794
     88  OG1      -11.3260   35.2890   -0.6500 O.3   372  THR372     -0.2208
     89  CG2      -11.0900   37.4980   -1.3320 C.3   372  THR372      0.0378
@<TRIPOS>BOND
     1    86    85    2
     2    85    84    1
     3    63    62   ar
     4    74    75    1
     5    57    58    1
     6    89    87    1
     7    77    76    2
     8    76    75    1
     9    76    83   am
    10    84    83    1
    11    84    87    1
    12    75    78    1
    13    58    59    1
    14    58    61    1
    15    88    87    1
    16    62    61    1
    17    62    64   ar
    18    60    59    2
    19    59    65   am
    20    67    68    2
    21    67    66    1
    22    65    66    1
    23    78    79    1
    24    47    48    2
    25    47    46    1
    26    66    69    1
    27    46    45    1
    28    46    49    1
    29     8     6    1
    30    79    80    1
    31    51    53   ar
    32    51    50   ar
    33     5     7    1
    34     5     6    1
    35     5     2    1
    36    69    70    1
    37    53    55   ar
    38     1     2    1
    39    49    50    1
    40     2     3    1
    41     3     4    2
    42    50    52   ar
    43    80    82   ar
    44    80    81   ar
    45    55    56    1
    46    55    54   ar
    47    24    22    1
    48    70    71    1
    49    52    54   ar
    50    71    72    1
    51    22    21    1
    52    22    23    1
    53    21    18    1
    54    42    41    2
    55    41    40    1
    56     9    10    1
    57    72    73    1
    58    17    18    1
    59    17    11   am
    60    18    19    1
    61    39    40    1
    62    19    20    2
    63    16    14   ar
    64    40    43    1
    65    10    13    1
    66    10    11    1
    67    14    13    1
    68    14    15   ar
    69    11    12    2
    70    38    37    1
    71    38    44    1
    72    37    34    1
    73    43    44    1
    74    34    35    1
    75    34    33    1
    76    35    36    2
    77    33    27   am
    78    25    26    1
    79    27    26    1
    80    27    28    2
    81    29    26    1
    82    29    30    1
    83    31    30    2
    84    30    32   am
