@<TRIPOS>MOLECULE
tmp/6fakA04.pdb
 96 89 0 0 0
SMALL
GASTEIGER

@<TRIPOS>ATOM
      1  N        -57.6660   14.2910  -18.3860 N.3    37  ASP37      -0.1239
      2  CA       -58.1810   15.3420  -17.4850 C.3    37  ASP37       0.1674
      3  C        -57.7050   16.7580  -17.7860 C.2    37  ASP37       0.2266
      4  O        -58.4960   17.6970  -17.6980 O.2    37  ASP37      -0.2867
      5  CB       -57.8530   15.0380  -16.0240 C.3    37  ASP37       0.1410
      6  CG       -58.5880   13.8270  -15.4930 C.2    37  ASP37       0.3668
      7  OD1      -59.4640   13.2930  -16.2030 O.co2  37  ASP37      -0.2456
      8  OD2      -58.3000   13.4300  -14.3380 O.co2  37  ASP37      -0.2456
      9  N        -59.1190   18.0290  -21.1920 N.3    40  GLU40      -0.1231
     10  CA       -60.5010   18.4600  -20.9380 C.3    40  GLU40       0.1699
     11  C        -60.5580   19.8340  -20.2440 C.2    40  GLU40       0.2592
     12  O        -61.3060   20.7020  -20.6840 O.2    40  GLU40      -0.2718
     13  CB       -61.2960   17.3890  -20.1710 C.3    40  GLU40       0.0402
     14  CG       -61.5640   16.1510  -21.0290 C.3    40  GLU40       0.1161
     15  CD       -62.2120   15.0100  -20.2680 C.2    40  GLU40       0.3649
     16  OE1      -63.3070   15.2200  -19.7080 O.co2  40  GLU40      -0.2457
     17  OE2      -61.6400   13.8990  -20.2480 O.co2  40  GLU40      -0.2457
     18  N        -59.7210   20.0540  -19.2260 N.am   41  TYR41      -0.1976
     19  CA       -59.6850   21.3540  -18.5070 C.3    41  TYR41       0.1639
     20  C        -59.3050   22.5040  -19.4420 C.2    41  TYR41       0.2290
     21  O        -59.9070   23.5930  -19.3780 O.2    41  TYR41      -0.2864
     22  CB       -58.7350   21.3150  -17.2910 C.3    41  TYR41       0.0560
     23  CG       -58.2350   22.6740  -16.8060 C.ar   41  TYR41      -0.0198
     24  CD1      -58.9130   23.3910  -15.8280 C.ar   41  TYR41      -0.0009
     25  CD2      -57.0630   23.2130  -17.3100 C.ar   41  TYR41      -0.0009
     26  CE1      -58.4460   24.6200  -15.3830 C.ar   41  TYR41       0.0417
     27  CE2      -56.5850   24.4310  -16.8780 C.ar   41  TYR41       0.0417
     28  CZ       -57.2730   25.1280  -15.9170 C.ar   41  TYR41       0.1957
     29  OH       -56.7590   26.3340  -15.5110 O.3    41  TYR41      -0.2866
     30  N        -62.3030   23.2340  -21.6940 N.3    44  ARG44      -0.1245
     31  CA       -63.3330   23.9100  -20.8840 C.3    44  ARG44       0.1563
     32  C        -63.0220   25.3870  -20.6650 C.2    44  ARG44       0.2260
     33  O        -63.9070   26.2470  -20.7980 O.2    44  ARG44      -0.2867
     34  CB       -63.5680   23.2190  -19.5220 C.3    44  ARG44       0.0307
     35  CG       -64.6640   22.1530  -19.5160 C.3    44  ARG44       0.0489
     36  CD       -64.1250   20.7680  -19.8430 C.3    44  ARG44       0.2205
     37  NE       -65.1460   19.8740  -20.4110 N.pl3  44  ARG44      -0.0865
     38  CZ       -65.3000   19.5680  -21.7080 C.cat  44  ARG44       0.5346
     39  NH1      -64.4950   20.0930  -22.6360 N.pl3  44  ARG44       0.1354
     40  NH2      -66.2680   18.7340  -22.0850 N.pl3  44  ARG44       0.1354
     41  N        -62.0350   28.1610  -11.9990 N.3    53  GLU53      -0.1245
     42  CA       -60.7950   27.3910  -12.0990 C.3    53  GLU53       0.1567
     43  C        -59.8590   27.8080  -13.2440 C.2    53  GLU53       0.2260
     44  O        -58.6870   27.4120  -13.2410 O.2    53  GLU53      -0.2867
     45  CB       -61.0730   25.8650  -12.1290 C.3    53  GLU53       0.0388
     46  CG       -61.6580   25.2820  -13.4250 C.3    53  GLU53       0.1160
     47  CD       -63.1360   25.5870  -13.6400 C.2    53  GLU53       0.3649
     48  OE1      -63.7030   25.0910  -14.6340 O.co2  53  GLU53      -0.2457
     49  OE2      -63.7360   26.3240  -12.8280 O.co2  53  GLU53      -0.2457
     50  N        -57.0810   29.9790  -11.6870 N.3    56  LYS56      -0.1245
     51  CA       -56.3240   29.3570  -10.5750 C.3    56  LYS56       0.1561
     52  C        -54.8400   29.1740  -10.9280 C.2    56  LYS56       0.2260
     53  O        -54.4700   29.1900  -12.0980 O.2    56  LYS56      -0.2867
     54  CB       -56.9210   27.9970  -10.1750 C.3    56  LYS56       0.0271
     55  CG       -58.1900   28.0700   -9.3300 C.3    56  LYS56       0.0035
     56  CD       -58.7790   26.6790   -9.0980 C.3    56  LYS56       0.0206
     57  CE       -59.5400   26.5330   -7.7850 C.3    56  LYS56       0.1093
     58  NZ       -60.3150   27.7280   -7.3640 N.3    56  LYS56      -0.1314
     59  N        -52.1390   24.2090   -8.7190 N.3    60  ASN60      -0.1225
     60  CA       -53.3410   23.8990   -7.9410 C.3    60  ASN60       0.1785
     61  C        -54.3410   23.0930   -8.7630 C.2    60  ASN60       0.2597
     62  O        -54.9510   22.1570   -8.2260 O.2    60  ASN60      -0.2718
     63  CB       -53.9740   25.1530   -7.2850 C.3    60  ASN60       0.1169
     64  CG       -53.1900   25.6360   -6.0500 C.2    60  ASN60       0.2627
     65  OD1      -52.4610   24.8520   -5.4100 O.2    60  ASN60      -0.2716
     66  ND2      -53.3460   26.9340   -5.6980 N.am   60  ASN60      -0.0877
     67  N        -54.4280   23.3640  -10.0600 N.am   61  VAL61      -0.1980
     68  CA       -55.2940   22.5750  -10.9560 C.3    61  VAL61       0.1595
     69  C        -54.7760   21.1530  -11.1420 C.2    61  VAL61       0.2287
     70  O        -55.5080   20.2040  -10.9350 O.2    61  VAL61      -0.2864
     71  CB       -55.4860   23.2460  -12.3510 C.3    61  VAL61       0.0276
     72  CG1      -56.3400   22.3640  -13.2600 C.3    61  VAL61       0.0022
     73  CG2      -56.1640   24.6280  -12.1900 C.3    61  VAL61       0.0022
     74  N        -54.9510   19.1020   -7.9160 N.3    64  GLU64      -0.1231
     75  CA       -56.3390   18.7000   -7.6890 C.3    64  GLU64       0.1699
     76  C        -56.6980   17.4640   -8.5070 C.2    64  GLU64       0.2592
     77  O        -57.2660   16.5020   -7.9690 O.2    64  GLU64      -0.2718
     78  CB       -57.2860   19.8590   -8.0220 C.3    64  GLU64       0.0402
     79  CG       -58.7460   19.4970   -7.8970 C.3    64  GLU64       0.1161
     80  CD       -59.2220   19.3790   -6.4490 C.2    64  GLU64       0.3649
     81  OE1      -58.4600   19.7580   -5.5010 O.co2  64  GLU64      -0.2457
     82  OE2      -60.3930   18.9350   -6.2700 O.co2  64  GLU64      -0.2457
     83  N        -56.3380   17.4650   -9.8030 N.am   65  LYS65      -0.1980
     84  CA       -56.6610   16.3290  -10.6700 C.3    65  LYS65       0.1596
     85  C        -55.9290   15.0520  -10.2980 C.2    65  LYS65       0.2287
     86  O        -56.4630   13.9670  -10.4380 O.2    65  LYS65      -0.2864
     87  CB       -56.3500   16.6440  -12.1320 C.3    65  LYS65       0.0298
     88  CG       -57.1390   17.8020  -12.7470 C.3    65  LYS65       0.0038
     89  CD       -58.6380   17.6860  -12.5020 C.3    65  LYS65       0.0206
     90  CE       -59.4570   18.7520  -13.2420 C.3    65  LYS65       0.1093
     91  NZ       -60.9170   18.4870  -13.0400 N.3    65  LYS65      -0.1314
     92  N        -57.6060   13.6680   -7.1600 N.3    68  ALA68      -0.1245
     93  CA       -58.9320   13.1440   -7.4960 C.3    68  ALA68       0.1562
     94  C        -58.9760   11.7390   -8.1240 C.2    68  ALA68       0.2260
     95  O        -60.0560   11.1950   -8.3320 O.2    68  ALA68      -0.2867
     96  CB       -59.6770   14.1390   -8.3970 C.3    68  ALA68       0.0290
@<TRIPOS>BOND
     1    39    38    1
     2    40    38    1
     3    38    37    2
     4    30    31    1
     5     9    10    1
     6    14    15    1
     7    14    13    1
     8    10    11    1
     9    10    13    1
    10    31    32    1
    11    31    34    1
    12    33    32    2
    13    12    11    2
    14    37    36    1
    15    15    17   ar
    16    15    16   ar
    17    11    18   am
    18    36    35    1
    19    34    35    1
    20    20    21    2
    21    20    19    1
    22    18    19    1
    23    19    22    1
    24     1     2    1
    25     3     4    2
    26     3     2    1
    27     2     5    1
    28    25    27   ar
    29    25    23   ar
    30    22    23    1
    31    27    28   ar
    32    23    24   ar
    33     7     6   ar
    34     5     6    1
    35    28    29    1
    36    28    26   ar
    37    24    26   ar
    38     6     8   ar
    39    48    47   ar
    40    47    46    1
    41    47    49   ar
    42    46    45    1
    43    72    71    1
    44    43    44    2
    45    43    42    1
    46    90    91    1
    47    90    89    1
    48    88    89    1
    49    88    87    1
    50    71    73    1
    51    71    68    1
    52    87    84    1
    53    45    42    1
    54    42    41    1
    55    53    52    2
    56    50    51    1
    57    69    68    1
    58    69    70    2
    59    68    67    1
    60    52    51    1
    61    84    85    1
    62    84    83    1
    63    51    54    1
    64    86    85    2
    65    54    55    1
    66    67    61   am
    67    83    76   am
    68    55    56    1
    69    56    57    1
    70    61    62    2
    71    61    60    1
    72    59    60    1
    73    76    77    2
    74    76    75    1
    75    96    93    1
    76    95    94    2
    77    94    93    1
    78    78    79    1
    79    78    75    1
    80    60    63    1
    81    74    75    1
    82    79    80    1
    83    57    58    1
    84    93    92    1
    85    63    64    1
    86    80    82   ar
    87    80    81   ar
    88    64    66   am
    89    64    65    2
