@<TRIPOS>MOLECULE
tmp/6fakA00.pdb
 148 139 0 0 0
SMALL
GASTEIGER

@<TRIPOS>ATOM
      1  N        -27.0440   22.4890  -12.2580 N.3   187  TYR187     -0.1241
      2  CA       -27.1210   23.8960  -12.0500 C.3   187  TYR187      0.1605
      3  C        -28.4500   24.2960  -11.3810 C.2   187  TYR187      0.2264
      4  O        -28.4250   25.0600  -10.4270 O.2   187  TYR187     -0.2867
      5  CB       -26.8640   24.6610  -13.3350 C.3   187  TYR187      0.0534
      6  CG       -27.1150   26.1090  -13.1780 C.ar  187  TYR187     -0.0201
      7  CD1      -26.2350   26.9140  -12.4370 C.ar  187  TYR187     -0.0009
      8  CD2      -28.2660   26.7010  -13.7200 C.ar  187  TYR187     -0.0009
      9  CE1      -26.4670   28.2950  -12.2500 C.ar  187  TYR187      0.0417
     10  CE2      -28.5000   28.0670  -13.5680 C.ar  187  TYR187      0.0417
     11  CZ       -27.5920   28.8600  -12.8350 C.ar  187  TYR187      0.1957
     12  OH       -27.8760   30.2060  -12.6670 O.3   187  TYR187     -0.2866
     13  N        -28.5980   23.1550   -7.7920 N.3   190  HIS190     -0.1226
     14  CA       -27.7780   24.0470   -7.0170 C.3   190  HIS190      0.1752
     15  C        -28.5640   25.3430   -6.6340 C.2   190  HIS190      0.2595
     16  O        -28.5990   25.7200   -5.4930 O.2   190  HIS190     -0.2718
     17  CB       -26.5350   24.3920   -7.8300 C.3   190  HIS190      0.0759
     18  CG       -25.5000   25.1440   -7.0800 C.ar  190  HIS190      0.0818
     19  ND1      -24.8020   24.5960   -6.0250 N.ar  190  HIS190     -0.2268
     20  CD2      -25.0150   26.3980   -7.2430 C.ar  190  HIS190      0.1154
     21  CE1      -23.9150   25.4750   -5.5790 C.ar  190  HIS190      0.1986
     22  NE2      -24.0330   26.5760   -6.2930 N.ar  190  HIS190     -0.2212
     23  N        -29.1620   26.0000   -7.6080 N.am  191  VAL191     -0.1980
     24  CA       -29.9010   27.2120   -7.3280 C.3   191  VAL191      0.1595
     25  C        -31.1540   26.9200   -6.4590 C.2   191  VAL191      0.2287
     26  O        -31.4390   27.6480   -5.4780 O.2   191  VAL191     -0.2864
     27  CB       -30.2920   27.9210   -8.6190 C.3   191  VAL191      0.0276
     28  CG1      -31.1840   29.1330   -8.3400 C.3   191  VAL191      0.0022
     29  CG2      -29.0470   28.3830   -9.3440 C.3   191  VAL191      0.0022
     30  N        -26.9220   35.7910   -6.7480 N.3   206  ILE206     -0.1245
     31  CA       -26.4640   34.8950   -7.7900 C.3   206  ILE206      0.1561
     32  C        -26.8600   35.4150   -9.1690 C.2   206  ILE206      0.2260
     33  O        -26.0500   35.3890  -10.0570 O.2   206  ILE206     -0.2867
     34  CB       -27.0260   33.4470   -7.6400 C.3   206  ILE206      0.0252
     35  CG1      -26.4610   32.7910   -6.4040 C.3   206  ILE206      0.0019
     36  CG2      -26.7010   32.5810   -8.8770 C.3   206  ILE206      0.0019
     37  CD1      -27.0920   31.4360   -6.1370 C.3   206  ILE206      0.0001
     38  N        -24.4470   36.6950  -12.2860 N.3   210  ILE210     -0.1245
     39  CA       -24.4350   36.0100  -13.5870 C.3   210  ILE210      0.1561
     40  C        -24.8760   36.9400  -14.7190 C.2   210  ILE210      0.2260
     41  O        -24.2420   36.9820  -15.7970 O.2   210  ILE210     -0.2867
     42  CB       -25.3710   34.7740  -13.6070 C.3   210  ILE210      0.0252
     43  CG1      -24.8090   33.6480  -12.7320 C.3   210  ILE210      0.0019
     44  CG2      -25.5600   34.2240  -15.0410 C.3   210  ILE210      0.0019
     45  CD1      -25.8380   32.5650  -12.4120 C.3   210  ILE210      0.0001
     46  N        -20.6110   35.2670  -23.2570 N.3   287  LYS287     -0.1245
     47  CA       -20.6070   36.5770  -22.5950 C.3   287  LYS287      0.1561
     48  C        -20.3460   37.6690  -23.6360 C.2   287  LYS287      0.2260
     49  O        -19.4430   37.5420  -24.4720 O.2   287  LYS287     -0.2867
     50  CB       -19.5520   36.6570  -21.4740 C.3   287  LYS287      0.0271
     51  CG       -19.6980   35.6090  -20.3560 C.3   287  LYS287      0.0035
     52  CD       -18.7880   35.9210  -19.1540 C.3   287  LYS287      0.0206
     53  CE       -17.8340   34.7870  -18.7690 C.3   287  LYS287      0.1093
     54  NZ       -18.3890   33.7860  -17.8070 N.3   287  LYS287     -0.1314
     55  N        -18.7500   32.6250  -10.0960 N.3   335  ILE335     -0.1231
     56  CA       -19.8810   33.1320   -9.3550 C.3   335  ILE335      0.1678
     57  C        -19.6630   33.0130   -7.8420 C.2   335  ILE335      0.2434
     58  O        -19.8800   33.9970   -7.1550 O.2   335  ILE335     -0.2733
     59  CB       -21.2290   32.5300   -9.8370 C.3   335  ILE335      0.0265
     60  CG1      -21.4330   32.7170  -11.3610 C.3   335  ILE335      0.0019
     61  CG2      -22.3910   33.1510   -9.0920 C.3   335  ILE335      0.0020
     62  CD1      -21.3440   34.1430  -11.8860 C.3   335  ILE335      0.0001
     63  N        -19.1950   31.8480   -7.3200 N.am  336  PRO336     -0.2729
     64  CA       -18.8960   31.7550   -5.8750 C.3   336  PRO336      0.1401
     65  C        -17.8110   32.7580   -5.3830 C.2   336  PRO336      0.2269
     66  O        -17.9570   33.3450   -4.3150 O.2   336  PRO336     -0.2865
     67  CB       -18.4480   30.2860   -5.6870 C.3   336  PRO336      0.0296
     68  CG       -18.9740   29.5590   -6.8370 C.3   336  PRO336      0.0237
     69  CD       -19.1620   30.5300   -7.9760 C.3   336  PRO336      0.0939
     70  N        -19.4640   36.1550   -5.0390 N.3   339  LEU339     -0.1245
     71  CA       -20.2670   36.2170   -3.8260 C.3   339  LEU339      0.1561
     72  C        -19.4280   36.2510   -2.5640 C.2   339  LEU339      0.2260
     73  O        -19.8390   36.8830   -1.6140 O.2   339  LEU339     -0.2867
     74  CB       -21.2590   35.0460   -3.7550 C.3   339  LEU339      0.0270
     75  CG       -22.1510   35.0020   -5.0090 C.3   339  LEU339      0.0019
     76  CD1      -22.9940   33.7300   -4.9490 C.3   339  LEU339      0.0001
     77  CD2      -23.0000   36.2310   -5.1490 C.3   339  LEU339      0.0001
     78  N         -7.9650   26.0050  -19.9370 N.3   432  LEU432     -0.1245
     79  CA        -8.7090   27.0520  -20.6490 C.3   432  LEU432      0.1561
     80  C         -8.2140   28.4290  -20.1990 C.2   432  LEU432      0.2260
     81  O         -7.5640   28.5390  -19.1670 O.2   432  LEU432     -0.2867
     82  CB       -10.2230   26.9490  -20.3950 C.3   432  LEU432      0.0270
     83  CG       -10.9180   25.6430  -20.7830 C.3   432  LEU432      0.0019
     84  CD1      -12.4070   25.7970  -20.5140 C.3   432  LEU432      0.0001
     85  CD2      -10.6200   25.2690  -22.2310 C.3   432  LEU432      0.0001
     86  N        -10.1500   30.8800  -19.1380 N.3   434  GLU434     -0.1245
     87  CA       -10.8960   31.1790  -17.8950 C.3   434  GLU434      0.1567
     88  C        -11.0130   29.9030  -17.0450 C.2   434  GLU434      0.2260
     89  O        -12.0770   29.5570  -16.5060 O.2   434  GLU434     -0.2867
     90  CB       -12.2560   31.8620  -18.1910 C.3   434  GLU434      0.0388
     91  CG       -12.1430   33.3790  -18.4510 C.3   434  GLU434      0.1160
     92  CD       -13.4660   34.0490  -18.8620 C.2   434  GLU434      0.3649
     93  OE1      -14.5730   33.4750  -18.6230 O.co2 434  GLU434     -0.2457
     94  OE2      -13.4020   35.1780  -19.4180 O.co2 434  GLU434     -0.2457
     95  N        -12.4880   30.5650  -13.3970 N.3   437  ALA437     -0.1231
     96  CA       -13.9350   30.7080  -13.3390 C.3   437  ALA437      0.1694
     97  C        -14.6570   29.3690  -13.6260 C.2   437  ALA437      0.2592
     98  O        -15.5860   28.9490  -12.8950 O.2   437  ALA437     -0.2718
     99  CB       -14.4280   31.7930  -14.2910 C.3   437  ALA437      0.0304
    100  N        -14.2010   28.6970  -14.6620 N.am  438  CYS438     -0.1970
    101  CA       -14.8080   27.4360  -15.0890 C.3   438  CYS438      0.1712
    102  C        -14.7500   26.3570  -13.9830 C.2   438  CYS438      0.2296
    103  O        -15.7700   25.7720  -13.6120 O.2   438  CYS438     -0.2864
    104  CB       -14.1380   26.9710  -16.3940 C.3   438  CYS438      0.0983
    105  SG       -14.8210   25.4640  -17.1240 S.3   438  CYS438     -0.0798
    106  N        -16.7640   27.3630  -10.7180 N.3   441  ASN441     -0.1225
    107  CA       -18.1920   27.2900  -11.0240 C.3   441  ASN441      0.1785
    108  C        -18.6840   25.8260  -11.0250 C.2   441  ASN441      0.2597
    109  O        -19.7160   25.4990  -10.4170 O.2   441  ASN441     -0.2718
    110  CB       -18.5030   27.9290  -12.3820 C.3   441  ASN441      0.1169
    111  CG       -18.6480   29.4710  -12.3250 C.2   441  ASN441      0.2627
    112  OD1      -18.8950   30.0700  -11.2810 O.2   441  ASN441     -0.2716
    113  ND2      -18.5090   30.1060  -13.4900 N.am  441  ASN441     -0.0877
    114  N        -17.9780   24.9660  -11.7460 N.am  442  LEU442     -0.1980
    115  CA       -18.3870   23.5710  -11.8510 C.3   442  LEU442      0.1596
    116  C        -18.1470   22.7770  -10.5890 C.2   442  LEU442      0.2287
    117  O        -18.9760   21.9530  -10.2440 O.2   442  LEU442     -0.2864
    118  CB       -17.7330   22.8750  -13.0290 C.3   442  LEU442      0.0297
    119  CG       -18.1980   23.2960  -14.4210 C.3   442  LEU442      0.0022
    120  CD1      -17.4600   22.4510  -15.4450 C.3   442  LEU442      0.0001
    121  CD2      -19.6830   23.1180  -14.6150 C.3   442  LEU442      0.0001
    122  N        -18.3120   23.9360   -7.5360 N.3   444  ASP444     -0.1225
    123  CA       -19.3030   24.3500   -6.5660 C.3   444  ASP444      0.1805
    124  C        -20.6390   23.5970   -6.6880 C.2   444  ASP444      0.2597
    125  O        -21.3220   23.3080   -5.6860 O.2   444  ASP444     -0.2718
    126  CB       -19.5590   25.8550   -6.6880 C.3   444  ASP444      0.1424
    127  CG       -19.9740   26.4780   -5.3600 C.2   444  ASP444      0.3668
    128  OD1      -19.1010   26.5740   -4.4380 O.co2 444  ASP444     -0.2456
    129  OD2      -21.1660   26.8690   -5.2470 O.co2 444  ASP444     -0.2456
    130  N        -20.9670   23.2120   -7.9060 N.am  445  LEU445     -0.1979
    131  CA       -22.1570   22.4260   -8.1300 C.3   445  LEU445      0.1596
    132  C        -22.1650   21.0680   -7.4570 C.2   445  LEU445      0.2287
    133  O        -23.2190   20.5180   -7.2210 O.2   445  LEU445     -0.2864
    134  CB       -22.4010   22.2010   -9.6150 C.3   445  LEU445      0.0297
    135  CG       -22.4760   23.4410  -10.5180 C.3   445  LEU445      0.0022
    136  CD1      -22.6900   22.9970  -11.9720 C.3   445  LEU445      0.0001
    137  CD2      -23.4820   24.4440  -10.0110 C.3   445  LEU445      0.0001
    138  N        -23.3710   30.0440    1.8730 N.3   471  PHE471     -0.1241
    139  CA       -23.3770   29.5860    0.5230 C.3   471  PHE471      0.1605
    140  C        -22.0690   29.8190   -0.2190 C.2   471  PHE471      0.2264
    141  O        -21.4990   28.9110   -0.8030 O.2   471  PHE471     -0.2867
    142  CB       -24.5720   30.2740   -0.1560 C.3   471  PHE471      0.0534
    143  CG       -24.7520   29.8850   -1.5500 C.ar  471  PHE471     -0.0203
    144  CD1      -25.2260   28.6220   -1.8720 C.ar  471  PHE471     -0.0042
    145  CD2      -24.3840   30.7500   -2.5580 C.ar  471  PHE471     -0.0042
    146  CE1      -25.3730   28.2350   -3.1920 C.ar  471  PHE471     -0.0003
    147  CE2      -24.5200   30.3720   -3.8760 C.ar  471  PHE471     -0.0003
    148  CZ       -25.0180   29.1060   -4.2020 C.ar  471  PHE471     -0.0000
@<TRIPOS>BOND
     1    49    48    2
     2    48    47    1
     3    46    47    1
     4    47    50    1
     5    85    83    1
     6    50    51    1
     7    83    84    1
     8    83    82    1
     9    79    82    1
    10    79    80    1
    11    79    78    1
    12    51    52    1
    13    80    81    2
    14    94    92   ar
    15    52    53    1
    16    86    87    1
    17    92    93   ar
    18    92    91    1
    19    53    54    1
    20    91    90    1
    21    90    87    1
    22    87    88    1
    23   105   104    1
    24    88    89    2
    25   104   101    1
    26    41    40    2
    27   120   119    1
    28   101   100    1
    29   101   102    1
    30    44    42    1
    31    40    39    1
    32   100    97   am
    33   121   119    1
    34   119   118    1
    35    99    96    1
    36   102   103    2
    37     8    10   ar
    38     8     6   ar
    39    97    96    1
    40    97    98    2
    41    42    39    1
    42    42    43    1
    43    39    38    1
    44    10    11   ar
    45   113   111   am
    46    95    96    1
    47     5     6    1
    48     5     2    1
    49     6     7   ar
    50   118   115    1
    51    11    12    1
    52    11     9   ar
    53    43    45    1
    54     7     9   ar
    55   110   111    1
    56   110   107    1
    57   111   112    2
    58     1     2    1
    59     2     3    1
    60   136   135    1
    61    62    60    1
    62   115   114    1
    63   115   116    1
    64   114   108   am
    65     3     4    2
    66    60    59    1
    67   108   107    1
    68   108   109    2
    69   107   106    1
    70   116   117    2
    71   135   137    1
    72   135   134    1
    73    55    56    1
    74    33    32    2
    75    59    56    1
    76    59    61    1
    77   134   131    1
    78    56    57    1
    79    29    27    1
    80    32    31    1
    81    36    34    1
    82    27    28    1
    83    27    24    1
    84   131   130    1
    85   131   132    1
    86    69    63    1
    87    69    68    1
    88   130   124   am
    89    57    63   am
    90    57    58    2
    91    17    18    1
    92    17    14    1
    93    13    14    1
    94    31    34    1
    95    31    30    1
    96    34    35    1
    97    23    24    1
    98    23    15   am
    99   122   123    1
   100   132   133    2
   101    24    25    1
   102    63    64    1
   103    20    18   ar
   104    20    22   ar
   105    18    19   ar
   106    14    15    1
   107    68    67    1
   108   124   123    1
   109   124   125    2
   110   126   123    1
   111   126   127    1
   112    15    16    2
   113    25    26    2
   114    35    37    1
   115    22    21   ar
   116    19    21   ar
   117    64    67    1
   118    64    65    1
   119    65    66    2
   120   127   129   ar
   121   127   128   ar
   122    77    75    1
   123    70    71    1
   124    75    76    1
   125    75    74    1
   126   148   147   ar
   127   148   146   ar
   128   147   145   ar
   129    71    74    1
   130    71    72    1
   131   146   144   ar
   132    72    73    2
   133   145   143   ar
   134   144   143   ar
   135   143   142    1
   136   141   140    2
   137   140   139    1
   138   142   139    1
   139   139   138    1
