@<TRIPOS>MOLECULE
tmp/6fakA05.pdb
 81 75 0 0 0
SMALL
GASTEIGER

@<TRIPOS>ATOM
      1  N        -51.5870   26.1950   -0.7860 N.3    87  ALA87      -0.1245
      2  CA       -50.1430   26.3680   -0.5090 C.3    87  ALA87       0.1562
      3  C        -49.5090   25.1970    0.2640 C.2    87  ALA87       0.2260
      4  O        -48.4070   24.7660   -0.0590 O.2    87  ALA87      -0.2867
      5  CB       -49.8930   27.6610    0.2540 C.3    87  ALA87       0.0290
      6  N        -49.2060   22.3170   -2.1440 N.3    90  ARG90      -0.1231
      7  CA       -48.0680   22.5980   -3.0470 C.3    90  ARG90       0.1694
      8  C        -46.7000   22.2920   -2.4200 C.2    90  ARG90       0.2591
      9  O        -45.8140   21.7130   -3.0620 O.2    90  ARG90      -0.2718
     10  CB       -48.1280   24.0310   -3.5460 C.3    90  ARG90       0.0321
     11  CG       -49.2400   24.2810   -4.5480 C.3    90  ARG90       0.0489
     12  CD       -49.5660   25.7750   -4.6860 C.3    90  ARG90       0.2205
     13  NE       -48.3770   26.5390   -4.9790 N.pl3  90  ARG90      -0.0865
     14  CZ       -48.1440   27.8070   -4.6220 C.cat  90  ARG90       0.5346
     15  NH1      -46.9990   28.3810   -4.9490 N.pl3  90  ARG90       0.1354
     16  NH2      -49.0630   28.5080   -3.9450 N.pl3  90  ARG90       0.1354
     17  N        -46.5810   22.6240   -1.1490 N.am   91  LEU91      -0.1980
     18  CA       -45.3760   22.4130   -0.4050 C.3    91  LEU91       0.1596
     19  C        -45.1510   20.9110   -0.1640 C.2    91  LEU91       0.2287
     20  O        -44.0650   20.4020   -0.4140 O.2    91  LEU91      -0.2864
     21  CB       -45.4250   23.2030    0.9410 C.3    91  LEU91       0.0297
     22  CG       -44.1850   23.1220    1.8470 C.3    91  LEU91       0.0022
     23  CD1      -42.9630   23.6860    1.1610 C.3    91  LEU91       0.0001
     24  CD2      -44.4060   23.8880    3.1580 C.3    91  LEU91       0.0001
     25  N        -43.9860   19.2680   -3.3890 N.3    94  PHE94      -0.1241
     26  CA       -42.5870   19.5740   -3.5250 C.3    94  PHE94       0.1605
     27  C        -41.6820   18.6960   -2.6550 C.2    94  PHE94       0.2264
     28  O        -40.6710   18.1910   -3.1460 O.2    94  PHE94      -0.2867
     29  CB       -42.3460   21.0610   -3.2590 C.3    94  PHE94       0.0534
     30  CG       -40.9130   21.4310   -3.1810 C.ar   94  PHE94      -0.0203
     31  CD1      -40.1650   21.5710   -4.3270 C.ar   94  PHE94      -0.0042
     32  CD2      -40.3080   21.7050   -1.9650 C.ar   94  PHE94      -0.0042
     33  CE1      -38.8190   21.9280   -4.2520 C.ar   94  PHE94      -0.0003
     34  CE2      -38.9680   22.0560   -1.8920 C.ar   94  PHE94      -0.0003
     35  CZ       -38.2420   22.1700   -3.0420 C.ar   94  PHE94      -0.0000
     36  N        -31.9920   28.3290   -2.7060 N.3   195  LEU195     -0.1231
     37  CA       -33.2020   29.0500   -2.4530 C.3   195  LEU195      0.1693
     38  C        -33.9150   28.5360   -1.2020 C.2   195  LEU195      0.2591
     39  O        -34.3180   29.3110   -0.3990 O.2   195  LEU195     -0.2718
     40  CB       -34.1190   28.9670   -3.6710 C.3   195  LEU195      0.0284
     41  CG       -35.2990   29.8830   -3.8190 C.3   195  LEU195      0.0019
     42  CD1      -34.8720   31.3460   -3.7130 C.3   195  LEU195      0.0001
     43  CD2      -35.9500   29.6120   -5.1730 C.3   195  LEU195      0.0001
     44  N        -34.0350   27.2230   -1.0690 N.am  196  LEU196     -0.1980
     45  CA       -34.7030   26.6040    0.0630 C.3   196  LEU196      0.1596
     46  C        -33.9490   26.8010    1.4010 C.2   196  LEU196      0.2287
     47  O        -34.5800   27.0050    2.3920 O.2   196  LEU196     -0.2864
     48  CB       -34.9610   25.1350   -0.2150 C.3   196  LEU196      0.0297
     49  CG       -36.2710   24.8320   -0.9960 C.3   196  LEU196      0.0022
     50  CD1      -37.5340   25.1640   -0.1690 C.3   196  LEU196      0.0001
     51  CD2      -36.3500   25.5020   -2.3790 C.3   196  LEU196      0.0001
     52  N        -34.9140   33.7590   -1.0830 N.3   200  THR200     -0.1218
     53  CA       -34.6640   34.5580   -2.3050 C.3   200  THR200      0.1862
     54  C        -33.7060   35.7550   -2.0760 C.2   200  THR200      0.2287
     55  O        -33.0260   36.1840   -3.0000 O.2   200  THR200     -0.2866
     56  CB       -35.9780   35.0510   -3.0030 C.3   200  THR200      0.1770
     57  OG1      -36.6330   36.0430   -2.2060 O.3   200  THR200     -0.2211
     58  CG2      -36.9630   33.9250   -3.2780 C.3   200  THR200      0.0375
     59  N        -38.5740   30.8010   -8.6160 N.3   235  ASP235     -0.1239
     60  CA       -39.5670   30.4450   -7.6160 C.3   235  ASP235      0.1674
     61  C        -40.5240   29.3280   -8.1480 C.2   235  ASP235      0.2266
     62  O        -40.7770   28.3350   -7.4390 O.2   235  ASP235     -0.2867
     63  CB       -40.3820   31.6540   -7.0920 C.3   235  ASP235      0.1410
     64  CG       -39.5570   32.5920   -6.1610 C.2   235  ASP235      0.3668
     65  OD1      -38.4420   32.2270   -5.6800 O.co2 235  ASP235     -0.2456
     66  OD2      -40.0300   33.7390   -5.9650 O.co2 235  ASP235     -0.2456
     67  N        -38.4730   26.0060   -9.3730 N.3   238  CYS238     -0.1221
     68  CA       -37.9930   25.2320   -8.2120 C.3   238  CYS238      0.1808
     69  C        -39.1230   24.4750   -7.5050 C.2   238  CYS238      0.2601
     70  O        -38.9100   23.3520   -7.0070 O.2   238  CYS238     -0.2717
     71  CB       -37.1820   26.0890   -7.2600 C.3   238  CYS238      0.0970
     72  SG       -35.5840   26.6450   -7.9480 S.3   238  CYS238     -0.0800
     73  N        -40.3090   25.0860   -7.4660 N.am  239  GLU239     -0.1979
     74  CA       -41.4870   24.4290   -6.9700 C.3   239  GLU239      0.1602
     75  C        -41.8530   23.1670   -7.7380 C.2   239  GLU239      0.2287
     76  O        -42.3300   22.1970   -7.1560 O.2   239  GLU239     -0.2864
     77  CB       -42.6800   25.3990   -6.9220 C.3   239  GLU239      0.0415
     78  CG       -43.9540   24.6910   -6.5170 C.3   239  GLU239      0.1163
     79  CD       -45.1810   25.5450   -6.4520 C.2   239  GLU239      0.3649
     80  OE1      -45.0850   26.8060   -6.5060 O.co2 239  GLU239     -0.2457
     81  OE2      -46.2490   24.8660   -6.3110 O.co2 239  GLU239     -0.2457
@<TRIPOS>BOND
     1    67    68    1
     2    59    60    1
     3    68    69    1
     4    68    71    1
     5    61    60    1
     6    61    62    2
     7    72    71    1
     8    75    76    2
     9    75    74    1
    10    60    63    1
    11    69    73   am
    12    69    70    2
    13    73    74    1
    14    63    64    1
    15    74    77    1
    16    77    78    1
    17    78    79    1
    18    80    79   ar
    19    79    81   ar
    20    64    66   ar
    21    64    65   ar
    22    43    41    1
    23    13    12    1
    24    13    14    2
    25    15    14    1
    26    12    11    1
    27    14    16    1
    28    11    10    1
    29    31    33   ar
    30    31    30   ar
    31    33    35   ar
    32    41    42    1
    33    41    40    1
    34    40    37    1
    35    10     7    1
    36    26    25    1
    37    26    29    1
    38    26    27    1
    39    58    56    1
    40    29    30    1
    41    30    32   ar
    42    28    27    2
    43     9     8    2
    44     7     8    1
    45     7     6    1
    46    35    34   ar
    47    56    53    1
    48    56    57    1
    49    55    54    2
    50    36    37    1
    51    37    38    1
    52     8    17   am
    53    51    49    1
    54    53    54    1
    55    53    52    1
    56    32    34   ar
    57    38    44   am
    58    38    39    2
    59    17    18    1
    60    44    45    1
    61    49    48    1
    62    49    50    1
    63     1     2    1
    64     2     5    1
    65     2     3    1
    66    20    19    2
    67    18    19    1
    68    18    21    1
    69    48    45    1
    70     4     3    2
    71    45    46    1
    72    21    22    1
    73    23    22    1
    74    46    47    2
    75    22    24    1
