@<TRIPOS>MOLECULE
tmp/6famA01.pdb
 130 130 0 0 0
SMALL
GASTEIGER

@<TRIPOS>ATOM
      1  N          5.9800   32.6800    6.8600 N.3    16  TYR16      -0.1241
      2  CA         5.3100   31.8790    7.8700 C.3    16  TYR16       0.1605
      3  C          5.3440   32.6720    9.1670 C.2    16  TYR16       0.2264
      4  O          6.3880   33.1320    9.5900 O.2    16  TYR16      -0.2867
      5  CB         6.0110   30.4950    7.9950 C.3    16  TYR16       0.0534
      6  CG         5.8170   29.7480    6.6930 C.ar   16  TYR16      -0.0201
      7  CD1        6.6900   29.9450    5.6100 C.ar   16  TYR16      -0.0009
      8  CD2        4.7230   28.9480    6.4810 C.ar   16  TYR16      -0.0009
      9  CE1        6.4430   29.3730    4.3840 C.ar   16  TYR16       0.0417
     10  CE2        4.4710   28.3580    5.2470 C.ar   16  TYR16       0.0417
     11  CZ         5.3440   28.5770    4.1890 C.ar   16  TYR16       0.1957
     12  OH         5.1340   28.0450    2.9340 O.3    16  TYR16      -0.2866
     13  N          4.1530   31.5230   12.2580 N.3    18  TRP18      -0.1241
     14  CA         3.7760   30.5450   13.2670 C.3    18  TRP18       0.1605
     15  C          4.8240   30.3120   14.3520 C.2    18  TRP18       0.2264
     16  O          4.6660   29.3980   15.1640 O.2    18  TRP18      -0.2867
     17  CB         3.3780   29.2570   12.5680 C.3    18  TRP18       0.0550
     18  CG         4.3770   28.6410   11.6390 C.ar   18  TRP18       0.0003
     19  CD1        5.7330   28.7180   11.6700 C.ar   18  TRP18       0.0946
     20  CD2        4.0480   27.7680   10.5760 C.ar   18  TRP18       0.0152
     21  NE1        6.2690   27.9510   10.6730 N.ar   18  TRP18      -0.2442
     22  CE2        5.2540   27.3410    9.9870 C.ar   18  TRP18       0.0810
     23  CE3        2.8390   27.2870   10.0660 C.ar   18  TRP18       0.0012
     24  CZ2        5.2790   26.4340    8.9290 C.ar   18  TRP18       0.0191
     25  CZ3        2.8670   26.3830    9.0240 C.ar   18  TRP18       0.0001
     26  CH2        4.0700   25.9760    8.4570 C.ar   18  TRP18       0.0015
     27  N         -4.0510   29.7980    7.9360 N.3    96  TRP96      -0.1241
     28  CA        -4.5350   28.5030    8.3910 C.3    96  TRP96       0.1605
     29  C         -5.9340   28.5700    8.9950 C.2    96  TRP96       0.2264
     30  O         -6.4050   27.5550    9.4970 O.2    96  TRP96      -0.2867
     31  CB        -3.5590   27.8760    9.4110 C.3    96  TRP96       0.0550
     32  CG        -2.3280   27.3980    8.7640 C.ar   96  TRP96       0.0003
     33  CD1       -1.1870   28.1090    8.5620 C.ar   96  TRP96       0.0946
     34  CD2       -2.1350   26.1250    8.1310 C.ar   96  TRP96       0.0152
     35  NE1       -0.2740   27.3420    7.9000 N.ar   96  TRP96      -0.2442
     36  CE2       -0.8300   26.1190    7.6140 C.ar   96  TRP96       0.0810
     37  CE3       -2.9340   24.9740    7.9820 C.ar   96  TRP96       0.0012
     38  CZ2       -0.3190   25.0340    6.9210 C.ar   96  TRP96       0.0191
     39  CZ3       -2.4230   23.8890    7.3120 C.ar   96  TRP96       0.0001
     40  CH2       -1.1090   23.9150    6.8030 C.ar   96  TRP96       0.0015
     41  N         -1.7150   33.2130    1.4580 N.3   124  HIS124     -0.1241
     42  CA        -1.4280   31.8680    0.9730 C.3   124  HIS124      0.1621
     43  C         -2.3800   30.9370    1.7360 C.2   124  HIS124      0.2264
     44  O         -2.1910   30.6470    2.9210 O.2   124  HIS124     -0.2867
     45  CB         0.0190   31.5340    1.2640 C.3   124  HIS124      0.0745
     46  CG         0.5210   30.2660    0.6520 C.ar  124  HIS124      0.0817
     47  ND1        1.7550   29.7410    0.9760 N.ar  124  HIS124     -0.2268
     48  CD2       -0.0000   29.4510   -0.2980 C.ar  124  HIS124      0.1154
     49  CE1        1.9660   28.6650    0.2170 C.ar  124  HIS124      0.1986
     50  NE2        0.9240   28.4670   -0.5620 N.ar  124  HIS124     -0.2212
     51  N         -3.9940   27.9120    3.0630 N.3   126  GLU126     -0.1231
     52  CA        -3.5090   26.5990    3.3750 C.3   126  GLU126      0.1684
     53  C         -4.6470   25.5870    3.4690 C.2   126  GLU126      0.2434
     54  O         -5.8270   25.9650    3.5260 O.2   126  GLU126     -0.2733
     55  CB        -2.7300   26.6660    4.6980 C.3   126  GLU126      0.0402
     56  CG        -1.5150   27.5850    4.6160 C.3   126  GLU126      0.1161
     57  CD        -0.2900   26.9400    4.0100 C.2   126  GLU126      0.3649
     58  OE1       -0.3790   25.8090    3.4840 O.co2 126  GLU126     -0.2457
     59  OE2        0.7800   27.6060    4.0740 O.co2 126  GLU126     -0.2457
     60  N         -4.3170   24.2740    3.5320 N.am  127  PRO127     -0.2729
     61  CA        -5.3500   23.2260    3.5900 C.3   127  PRO127      0.1401
     62  C         -5.8390   23.0380    5.0090 C.2   127  PRO127      0.2269
     63  O         -5.5710   22.0410    5.6680 O.2   127  PRO127     -0.2865
     64  CB        -4.6630   21.9890    3.0360 C.3   127  PRO127      0.0296
     65  CG        -3.2450   22.2920    2.9650 C.3   127  PRO127      0.0237
     66  CD        -2.9940   23.7100    3.2200 C.3   127  PRO127      0.0939
     67  N         -2.7000   26.5910   -1.6760 N.3   165  TYR165     -0.1241
     68  CA        -1.8720   25.4080   -1.5250 C.3   165  TYR165      0.1605
     69  C         -2.7140   24.1460   -1.5980 C.2   165  TYR165      0.2264
     70  O         -3.8370   24.1100   -1.0870 O.2   165  TYR165     -0.2867
     71  CB        -1.0330   25.4730   -0.2490 C.3   165  TYR165      0.0534
     72  CG        -0.0140   24.3490   -0.1970 C.ar  165  TYR165     -0.0201
     73  CD1        1.1240   24.3670   -0.9750 C.ar  165  TYR165     -0.0009
     74  CD2       -0.2020   23.2420    0.6050 C.ar  165  TYR165     -0.0009
     75  CE1        2.0210   23.3260   -0.9650 C.ar  165  TYR165      0.0417
     76  CE2        0.6960   22.1960    0.5920 C.ar  165  TYR165      0.0417
     77  CZ         1.7990   22.2460   -0.2140 C.ar  165  TYR165      0.1957
     78  OH         2.6970   21.2070   -0.2360 O.3   165  TYR165     -0.2866
     79  N          5.3660   26.0120   -5.9080 N.3   222  TYR222     -0.1227
     80  CA         5.7950   25.9650   -4.5030 C.3   222  TYR222      0.1736
     81  C          7.1340   25.2950   -4.2250 C.2   222  TYR222      0.2595
     82  O          8.0160   25.9110   -3.6270 O.2   222  TYR222     -0.2718
     83  CB         4.7210   25.3880   -3.5370 C.3   222  TYR222      0.0548
     84  CG         5.1740   25.6280   -2.1210 C.ar  222  TYR222     -0.0200
     85  CD1        5.0850   26.8850   -1.5410 C.ar  222  TYR222     -0.0009
     86  CD2        5.8070   24.6290   -1.4050 C.ar  222  TYR222     -0.0009
     87  CE1        5.6240   27.1500   -0.2980 C.ar  222  TYR222      0.0417
     88  CE2        6.3610   24.8880   -0.1520 C.ar  222  TYR222      0.0417
     89  CZ         6.2600   26.1430    0.4110 C.ar  222  TYR222      0.1957
     90  OH         6.8610   26.3790    1.6360 O.3   222  TYR222     -0.2866
     91  N          7.2890   24.0170   -4.5580 N.am  223  PHE223     -0.1976
     92  CA         8.3740   23.2410   -3.9510 C.3   223  PHE223      0.1639
     93  C          9.7240   23.7940   -4.3040 C.2   223  PHE223      0.2290
     94  O         10.0520   24.0010   -5.4840 O.2   223  PHE223     -0.2864
     95  CB         8.2480   21.7790   -4.3490 C.3   223  PHE223      0.0560
     96  CG         6.8970   21.2250   -3.9830 C.ar  223  PHE223     -0.0200
     97  CD1        6.5360   21.0340   -2.6540 C.ar  223  PHE223     -0.0042
     98  CD2        5.9450   21.0080   -4.9530 C.ar  223  PHE223     -0.0042
     99  CE1        5.2720   20.6030   -2.3200 C.ar  223  PHE223     -0.0003
    100  CE2        4.6730   20.6030   -4.6190 C.ar  223  PHE223     -0.0003
    101  CZ         4.3320   20.3850   -3.3110 C.ar  223  PHE223     -0.0000
    102  N         11.5760   15.3940    9.4500 N.3   265  ARG265     -0.1245
    103  CA        11.1860   14.2550    8.5940 C.3   265  ARG265      0.1563
    104  C         12.4620   13.4680    8.3000 C.2   265  ARG265      0.2260
    105  O         13.0140   13.5370    7.1920 O.2   265  ARG265     -0.2867
    106  CB        10.5090   14.7570    7.3000 C.3   265  ARG265      0.0307
    107  CG         9.3340   15.7090    7.5390 C.3   265  ARG265      0.0489
    108  CD         8.4960   15.9230    6.3020 C.3   265  ARG265      0.2205
    109  NE         7.4630   16.9390    6.5260 N.pl3 265  ARG265     -0.0865
    110  CZ         7.4830   18.1960    6.0960 C.cat 265  ARG265      0.5346
    111  NH1        8.5100   18.6550    5.4160 N.pl3 265  ARG265      0.1354
    112  NH2        6.4650   19.0130    6.3700 N.pl3 265  ARG265      0.1354
    113  N         10.5020   29.2330    5.9600 N.3   303  GLU303     -0.1245
    114  CA        10.0800   27.8590    6.2670 C.3   303  GLU303      0.1567
    115  C         11.3510   27.1480    6.7800 C.2   303  GLU303      0.2260
    116  O         12.0610   26.4560    6.0550 O.2   303  GLU303     -0.2867
    117  CB         9.4350   27.1540    5.0770 C.3   303  GLU303      0.0388
    118  CG         8.1930   26.3310    5.4560 C.3   303  GLU303      0.1160
    119  CD         8.4170   25.2140    6.4390 C.2   303  GLU303      0.3649
    120  OE1        7.4580   24.4180    6.6640 O.co2 303  GLU303     -0.2457
    121  OE2        9.4910   25.1380    7.0530 O.co2 303  GLU303     -0.2457
    122  N         11.8080   23.2720    6.6290 N.3   306  GLU306     -0.1245
    123  CA        12.0930   22.6730    5.3270 C.3   306  GLU306      0.1567
    124  C         13.4060   23.1620    4.7330 C.2   306  GLU306      0.2260
    125  O         13.8110   22.7210    3.6650 O.2   306  GLU306     -0.2867
    126  CB        10.9260   22.8810    4.3860 C.3   306  GLU306      0.0388
    127  CG         9.7330   22.0630    4.8510 C.3   306  GLU306      0.1160
    128  CD         8.5740   21.9860    3.8950 C.2   306  GLU306      0.3649
    129  OE1        8.5040   22.8250    2.9860 O.co2 306  GLU306     -0.2457
    130  OE2        7.7160   21.1040    4.0910 O.co2 306  GLU306     -0.2457
@<TRIPOS>BOND
     1    79    80    1
     2    94    93    2
     3    98   100   ar
     4    98    96   ar
     5   100   101   ar
     6    91    81   am
     7    91    92    1
     8    80    81    1
     9    80    83    1
    10    95    96    1
    11    95    92    1
    12    93    92    1
    13    81    82    2
    14    96    97   ar
    15    83    84    1
    16   101    99   ar
    17    97    99   ar
    18    84    85   ar
    19    84    86   ar
    20    67    68    1
    21    69    68    1
    22    69    70    2
    23    85    87   ar
    24    68    71    1
    25    86    88   ar
    26    73    75   ar
    27    73    72   ar
    28    75    77   ar
    29    50    48   ar
    30    50    49   ar
    31    87    89   ar
    32    48    46   ar
    33    71    72    1
    34    78    77    1
    35    77    76   ar
    36    72    74   ar
    37    88    89   ar
    38    49    47   ar
    39    89    90    1
    40    76    74   ar
    41    46    47   ar
    42    46    45    1
    43    42    45    1
    44    42    41    1
    45    42    43    1
    46    43    44    2
    47    12    11    1
    48    65    64    1
    49    65    66    1
    50   129   128   ar
    51    64    61    1
    52    51    52    1
    53    66    60    1
    54    52    53    1
    55    52    55    1
    56    53    54    2
    57    53    60   am
    58    58    57   ar
    59    60    61    1
    60    61    62    1
    61   125   124    2
    62   128   130   ar
    63   128   127    1
    64    57    59   ar
    65    57    56    1
    66    11     9   ar
    67    11    10   ar
    68     9     7   ar
    69   126   127    1
    70   126   123    1
    71    56    55    1
    72   124   123    1
    73    62    63    2
    74   117   118    1
    75   117   114    1
    76    10     8   ar
    77   123   122    1
    78   111   110    1
    79   118   119    1
    80     7     6   ar
    81   113   114    1
    82   116   115    2
    83   110   112    1
    84   110   109    2
    85   114   115    1
    86   108   109    1
    87   108   107    1
    88   119   120   ar
    89   119   121   ar
    90     8     6   ar
    91     6     5    1
    92    40    38   ar
    93    40    39   ar
    94     1     2    1
    95    38    36   ar
    96   105   104    2
    97   106   107    1
    98   106   103    1
    99    39    37   ar
   100    36    35   ar
   101    36    34   ar
   102     2     5    1
   103     2     3    1
   104    35    33   ar
   105    27    28    1
   106    37    34   ar
   107    34    32   ar
   108   104   103    1
   109    28    29    1
   110    28    31    1
   111    26    24   ar
   112    26    25   ar
   113    33    32   ar
   114   103   102    1
   115    32    31    1
   116    24    22   ar
   117    29    30    2
   118    25    23   ar
   119     3     4    2
   120    22    20   ar
   121    22    21   ar
   122    23    20   ar
   123    20    18   ar
   124    21    19   ar
   125    18    19   ar
   126    18    17    1
   127    13    14    1
   128    17    14    1
   129    14    15    1
   130    15    16    2
