@<TRIPOS>MOLECULE
tmp/6famA00.pdb
 107 107 0 0 0
SMALL
GASTEIGER

@<TRIPOS>ATOM
      1  N          4.1530   31.5230   12.2580 N.3    18  TRP18      -0.1241
      2  CA         3.7760   30.5450   13.2670 C.3    18  TRP18       0.1605
      3  C          4.8240   30.3120   14.3520 C.2    18  TRP18       0.2264
      4  O          4.6660   29.3980   15.1640 O.2    18  TRP18      -0.2867
      5  CB         3.3780   29.2570   12.5680 C.3    18  TRP18       0.0550
      6  CG         4.3770   28.6410   11.6390 C.ar   18  TRP18       0.0003
      7  CD1        5.7330   28.7180   11.6700 C.ar   18  TRP18       0.0946
      8  CD2        4.0480   27.7680   10.5760 C.ar   18  TRP18       0.0152
      9  NE1        6.2690   27.9510   10.6730 N.ar   18  TRP18      -0.2442
     10  CE2        5.2540   27.3410    9.9870 C.ar   18  TRP18       0.0810
     11  CE3        2.8390   27.2870   10.0660 C.ar   18  TRP18       0.0012
     12  CZ2        5.2790   26.4340    8.9290 C.ar   18  TRP18       0.0191
     13  CZ3        2.8670   26.3830    9.0240 C.ar   18  TRP18       0.0001
     14  CH2        4.0700   25.9760    8.4570 C.ar   18  TRP18       0.0015
     15  N          6.5510   26.1850   17.1470 N.3    30  HIS30      -0.1241
     16  CA         7.1990   25.7710   15.9020 C.3    30  HIS30       0.1621
     17  C          8.6980   25.5270   16.0430 C.2    30  HIS30       0.2264
     18  O          9.2070   24.5900   15.4020 O.2    30  HIS30      -0.2867
     19  CB         6.8110   26.6610   14.7100 C.3    30  HIS30       0.0745
     20  CG         5.5760   26.1920   14.0180 C.ar   30  HIS30       0.0817
     21  ND1        5.6390   25.4920   12.8410 N.ar   30  HIS30      -0.2268
     22  CD2        4.2600   26.2820   14.3350 C.ar   30  HIS30       0.1154
     23  CE1        4.4170   25.1570   12.4710 C.ar   30  HIS30       0.1986
     24  NE2        3.5590   25.6210   13.3580 N.ar   30  HIS30      -0.2212
     25  N          8.5900   21.0670   17.5980 N.3    33  HIS33      -0.1241
     26  CA         7.7490   20.4750   16.5490 C.3    33  HIS33       0.1621
     27  C          7.7980   18.9750   16.6400 C.2    33  HIS33       0.2264
     28  O          8.8580   18.4050   16.9070 O.2    33  HIS33      -0.2867
     29  CB         8.2890   20.9330   15.1680 C.3    33  HIS33       0.0745
     30  CG         7.3300   20.8420   14.0150 C.ar   33  HIS33       0.0817
     31  ND1        6.9830   19.6550   13.3950 N.ar   33  HIS33      -0.2268
     32  CD2        6.7400   21.8210   13.2920 C.ar   33  HIS33       0.1154
     33  CE1        6.1800   19.9170   12.3740 C.ar   33  HIS33       0.1986
     34  NE2        6.0240   21.2210   12.2840 N.ar   33  HIS33      -0.2212
     35  N         -4.0510   29.7980    7.9360 N.3    96  TRP96      -0.1241
     36  CA        -4.5350   28.5030    8.3910 C.3    96  TRP96       0.1605
     37  C         -5.9340   28.5700    8.9950 C.2    96  TRP96       0.2264
     38  O         -6.4050   27.5550    9.4970 O.2    96  TRP96      -0.2867
     39  CB        -3.5590   27.8760    9.4110 C.3    96  TRP96       0.0550
     40  CG        -2.3280   27.3980    8.7640 C.ar   96  TRP96       0.0003
     41  CD1       -1.1870   28.1090    8.5620 C.ar   96  TRP96       0.0946
     42  CD2       -2.1350   26.1250    8.1310 C.ar   96  TRP96       0.0152
     43  NE1       -0.2740   27.3420    7.9000 N.ar   96  TRP96      -0.2442
     44  CE2       -0.8300   26.1190    7.6140 C.ar   96  TRP96       0.0810
     45  CE3       -2.9340   24.9740    7.9820 C.ar   96  TRP96       0.0012
     46  CZ2       -0.3190   25.0340    6.9210 C.ar   96  TRP96       0.0191
     47  CZ3       -2.4230   23.8890    7.3120 C.ar   96  TRP96       0.0001
     48  CH2       -1.1090   23.9150    6.8030 C.ar   96  TRP96       0.0015
     49  N         -2.7000   26.5910   -1.6760 N.3   165  TYR165     -0.1241
     50  CA        -1.8720   25.4080   -1.5250 C.3   165  TYR165      0.1605
     51  C         -2.7140   24.1460   -1.5980 C.2   165  TYR165      0.2264
     52  O         -3.8370   24.1100   -1.0870 O.2   165  TYR165     -0.2867
     53  CB        -1.0330   25.4730   -0.2490 C.3   165  TYR165      0.0534
     54  CG        -0.0140   24.3490   -0.1970 C.ar  165  TYR165     -0.0201
     55  CD1        1.1240   24.3670   -0.9750 C.ar  165  TYR165     -0.0009
     56  CD2       -0.2020   23.2420    0.6050 C.ar  165  TYR165     -0.0009
     57  CE1        2.0210   23.3260   -0.9650 C.ar  165  TYR165      0.0417
     58  CE2        0.6960   22.1960    0.5920 C.ar  165  TYR165      0.0417
     59  CZ         1.7990   22.2460   -0.2140 C.ar  165  TYR165      0.1957
     60  OH         2.6970   21.2070   -0.2360 O.3   165  TYR165     -0.2866
     61  N         12.7860   17.2740   11.1340 N.3   264  ILE264     -0.1231
     62  CA        11.3800   16.9370   11.3650 C.3   264  ILE264      0.1692
     63  C         10.8770   15.7400   10.5460 C.2   264  ILE264      0.2591
     64  O          9.8730   15.1390   10.9330 O.2   264  ILE264     -0.2718
     65  CB        10.3940   18.1290   11.2120 C.3   264  ILE264      0.0266
     66  CG1       10.4110   18.7500    9.8010 C.3   264  ILE264      0.0019
     67  CG2       10.6590   19.1560   12.2980 C.3   264  ILE264      0.0020
     68  CD1        9.0590   19.3090    9.4040 C.3   264  ILE264      0.0001
     69  N         11.5760   15.3940    9.4500 N.am  265  ARG265     -0.1980
     70  CA        11.1860   14.2550    8.5940 C.3   265  ARG265      0.1597
     71  C         12.4620   13.4680    8.3000 C.2   265  ARG265      0.2287
     72  O         13.0140   13.5370    7.1920 O.2   265  ARG265     -0.2864
     73  CB        10.5090   14.7570    7.3000 C.3   265  ARG265      0.0334
     74  CG         9.3340   15.7090    7.5390 C.3   265  ARG265      0.0492
     75  CD         8.4960   15.9230    6.3020 C.3   265  ARG265      0.2205
     76  NE         7.4630   16.9390    6.5260 N.pl3 265  ARG265     -0.0865
     77  CZ         7.4830   18.1960    6.0960 C.cat 265  ARG265      0.5346
     78  NH1        8.5100   18.6550    5.4160 N.pl3 265  ARG265      0.1354
     79  NH2        6.4650   19.0130    6.3700 N.pl3 265  ARG265      0.1354
     80  N         10.5020   29.2330    5.9600 N.3   303  GLU303     -0.1245
     81  CA        10.0800   27.8590    6.2670 C.3   303  GLU303      0.1567
     82  C         11.3510   27.1480    6.7800 C.2   303  GLU303      0.2260
     83  O         12.0610   26.4560    6.0550 O.2   303  GLU303     -0.2867
     84  CB         9.4350   27.1540    5.0770 C.3   303  GLU303      0.0388
     85  CG         8.1930   26.3310    5.4560 C.3   303  GLU303      0.1160
     86  CD         8.4170   25.2140    6.4390 C.2   303  GLU303      0.3649
     87  OE1        7.4580   24.4180    6.6640 O.co2 303  GLU303     -0.2457
     88  OE2        9.4910   25.1380    7.0530 O.co2 303  GLU303     -0.2457
     89  N         11.6300   24.7680    8.9090 N.3   305  HIS305     -0.1226
     90  CA        11.5290   23.3230    9.0330 C.3   305  HIS305      0.1752
     91  C         12.0040   22.6210    7.7770 C.2   305  HIS305      0.2595
     92  O         12.5160   21.5040    7.8340 O.2   305  HIS305     -0.2718
     93  CB        10.0830   22.8700    9.3070 C.3   305  HIS305      0.0759
     94  CG         9.3970   23.6300   10.3880 C.ar  305  HIS305      0.0818
     95  ND1        9.9160   23.7560   11.6580 N.ar  305  HIS305     -0.2268
     96  CD2        8.2040   24.2560   10.3900 C.ar  305  HIS305      0.1154
     97  CE1        9.0650   24.4860   12.3720 C.ar  305  HIS305      0.1986
     98  NE2        8.0110   24.8040   11.6300 N.ar  305  HIS305     -0.2212
     99  N         11.8080   23.2720    6.6290 N.am  306  GLU306     -0.1979
    100  CA        12.0930   22.6730    5.3270 C.3   306  GLU306      0.1602
    101  C         13.4060   23.1620    4.7330 C.2   306  GLU306      0.2287
    102  O         13.8110   22.7210    3.6650 O.2   306  GLU306     -0.2864
    103  CB        10.9260   22.8810    4.3860 C.3   306  GLU306      0.0415
    104  CG         9.7330   22.0630    4.8510 C.3   306  GLU306      0.1163
    105  CD         8.5740   21.9860    3.8950 C.2   306  GLU306      0.3649
    106  OE1        8.5040   22.8250    2.9860 O.co2 306  GLU306     -0.2457
    107  OE2        7.7160   21.1040    4.0910 O.co2 306  GLU306     -0.2457
@<TRIPOS>BOND
     1    49    50    1
     2    51    50    1
     3    51    52    2
     4    50    53    1
     5    55    57   ar
     6    55    54   ar
     7    57    59   ar
     8    53    54    1
     9    60    59    1
    10    59    58   ar
    11    54    56   ar
    12    58    56   ar
    13   106   105   ar
    14   102   101    2
    15   105   107   ar
    16   105   104    1
    17   103   104    1
    18   103   100    1
    19   101   100    1
    20    84    85    1
    21    84    81    1
    22   100    99    1
    23    78    77    1
    24    85    86    1
    25    80    81    1
    26    83    82    2
    27    77    79    1
    28    77    76    2
    29    81    82    1
    30    75    76    1
    31    75    74    1
    32    86    87   ar
    33    86    88   ar
    34    99    91   am
    35    48    46   ar
    36    48    47   ar
    37    46    44   ar
    38    72    71    2
    39    73    74    1
    40    73    70    1
    41    47    45   ar
    42    44    43   ar
    43    44    42   ar
    44    91    92    2
    45    91    90    1
    46    43    41   ar
    47    35    36    1
    48    45    42   ar
    49    42    40   ar
    50    71    70    1
    51    36    37    1
    52    36    39    1
    53    14    12   ar
    54    14    13   ar
    55    41    40   ar
    56    70    69    1
    57    40    39    1
    58    89    90    1
    59    12    10   ar
    60    37    38    2
    61    13    11   ar
    62    90    93    1
    63    93    94    1
    64    68    66    1
    65    69    63   am
    66    66    65    1
    67    10     8   ar
    68    10     9   ar
    69    11     8   ar
    70    94    96   ar
    71    94    95   ar
    72    96    98   ar
    73    63    64    2
    74    63    62    1
    75     8     6   ar
    76     9     7   ar
    77    61    62    1
    78    65    62    1
    79    65    67    1
    80    98    97   ar
    81     6     7   ar
    82     6     5    1
    83    95    97   ar
    84     1     2    1
    85    34    33   ar
    86    34    32   ar
    87    33    31   ar
    88    23    21   ar
    89    23    24   ar
    90     5     2    1
    91    21    20   ar
    92     2     3    1
    93    32    30   ar
    94    24    22   ar
    95    31    30   ar
    96    30    29    1
    97    20    22   ar
    98    20    19    1
    99     3     4    2
   100    19    16    1
   101    29    26    1
   102    18    17    2
   103    16    17    1
   104    16    15    1
   105    26    27    1
   106    26    25    1
   107    27    28    2
