@<TRIPOS>MOLECULE
tmp/6fapC00.pdb
 81 78 0 0 0
SMALL
GASTEIGER

@<TRIPOS>ATOM
      1  N          7.2240   37.7220   44.8280 N.3    13  ASP13      -0.1225
      2  CA         8.5590   38.1350   44.3950 C.3    13  ASP13       0.1805
      3  C          9.5940   36.9970   44.3980 C.2    13  ASP13       0.2597
      4  O         10.6650   37.1260   43.7980 O.2    13  ASP13      -0.2718
      5  CB         9.0590   39.3370   45.2160 C.3    13  ASP13       0.1424
      6  CG         9.1630   39.0440   46.7100 C.2    13  ASP13       0.3668
      7  OD1        8.8030   37.9280   47.1390 O.co2  13  ASP13      -0.2456
      8  OD2        9.5970   39.9480   47.4600 O.co2  13  ASP13      -0.2456
      9  N          9.2490   35.8660   45.0080 N.am   14  GLU14      -0.1979
     10  CA        10.0330   34.6430   44.8390 C.3    14  GLU14       0.1602
     11  C         10.0320   34.1740   43.3860 C.2    14  GLU14       0.2287
     12  O         10.8930   33.3910   42.9880 O.2    14  GLU14      -0.2864
     13  CB         9.4990   33.5170   45.7320 C.3    14  GLU14       0.0415
     14  CG         9.5930   33.7860   47.2320 C.3    14  GLU14       0.1163
     15  CD        11.0220   33.9000   47.7410 C.2    14  GLU14       0.3649
     16  OE1       11.9500   33.3730   47.0870 O.co2  14  GLU14      -0.2457
     17  OE2       11.2140   34.5080   48.8130 O.co2  14  GLU14      -0.2457
     18  N          9.8790   36.4550   40.7090 N.3    16  LEU16      -0.1231
     19  CA        10.2680   37.5870   39.8590 C.3    16  LEU16       0.1693
     20  C         11.7220   37.4710   39.4250 C.2    16  LEU16       0.2592
     21  O         12.6230   37.5570   40.2550 O.2    16  LEU16      -0.2718
     22  CB        10.0970   38.9140   40.6120 C.3    16  LEU16       0.0284
     23  CG         8.7180   39.5770   40.6300 C.3    16  LEU16       0.0019
     24  CD1        8.7280   40.7600   41.5890 C.3    16  LEU16       0.0001
     25  CD2        8.2970   40.0270   39.2380 C.3    16  LEU16       0.0001
     26  N         11.9500   37.3290   38.1230 N.am   17  LEU17      -0.1966
     27  CA        13.2760   37.5680   37.5520 C.3    17  LEU17       0.1728
     28  C         13.6200   39.0330   37.6900 C.2    17  LEU17       0.2616
     29  O         12.8540   39.8870   37.2510 O.2    17  LEU17      -0.2715
     30  CB        13.3200   37.2000   36.0690 C.3    17  LEU17       0.0311
     31  CG        13.7630   35.7770   35.7630 C.3    17  LEU17       0.0022
     32  CD1       12.6990   34.8160   36.2360 C.3    17  LEU17       0.0001
     33  CD2       14.0320   35.5870   34.2790 C.3    17  LEU17       0.0001
     34  N         14.7680   39.3200   38.2950 N.am   18  LEU18      -0.1977
     35  CA        15.3600   40.6510   38.2390 C.3    18  LEU18       0.1596
     36  C         16.3910   40.6940   37.1000 C.2    18  LEU18       0.2287
     37  O         17.2070   39.7900   36.9610 O.2    18  LEU18      -0.2864
     38  CB        16.0060   40.9900   39.5880 C.3    18  LEU18       0.0297
     39  CG        16.8540   42.2680   39.6910 C.3    18  LEU18       0.0022
     40  CD1       16.0750   43.5110   39.2680 C.3    18  LEU18       0.0001
     41  CD2       17.3940   42.4300   41.1070 C.3    18  LEU18       0.0001
     42  N         19.7000   41.7570   35.1060 N.3    20  ASP20      -0.1239
     43  CA        21.0650   42.0430   35.5500 C.3    20  ASP20       0.1674
     44  C         21.6730   43.2760   34.8640 C.2    20  ASP20       0.2266
     45  O         22.7770   43.6920   35.2010 O.2    20  ASP20      -0.2867
     46  CB        21.9600   40.8180   35.3380 C.3    20  ASP20       0.1410
     47  CG        21.7460   39.7530   36.4000 C.2    20  ASP20       0.3668
     48  OD1       22.2540   39.9310   37.5280 O.co2  20  ASP20      -0.2456
     49  OD2       21.0600   38.7470   36.1110 O.co2  20  ASP20      -0.2456
     50  N         13.1200   29.7650   38.0730 N.3    38  VAL38      -0.1231
     51  CA        14.0080   30.9270   37.9760 C.3    38  VAL38       0.1678
     52  C         15.3870   30.4860   37.4900 C.2    38  VAL38       0.2434
     53  O         16.0420   29.6680   38.1350 O.2    38  VAL38      -0.2733
     54  CB        14.1520   31.6550   39.3320 C.3    38  VAL38       0.0265
     55  CG1       15.2060   32.7520   39.2500 C.3    38  VAL38       0.0020
     56  CG2       12.8150   32.2430   39.7600 C.3    38  VAL38       0.0020
     57  N         15.8240   31.0140   36.3370 N.am   39  PRO39      -0.2729
     58  CA        17.1160   30.6110   35.8000 C.3    39  PRO39       0.1401
     59  C         18.2640   31.1640   36.6320 C.2    39  PRO39       0.2269
     60  O         18.2050   32.3060   37.0920 O.2    39  PRO39      -0.2865
     61  CB        17.1200   31.2290   34.4030 C.3    39  PRO39       0.0296
     62  CG        16.2740   32.4450   34.5370 C.3    39  PRO39       0.0237
     63  CD        15.2380   32.1360   35.5800 C.3    39  PRO39       0.0939
     64  N         22.4120   32.2070   36.9740 N.3    41  GLY41      -0.1225
     65  CA        23.2150   33.0990   36.1410 C.3    41  GLY41       0.1811
     66  C         22.4430   34.3380   35.7140 C.2    41  GLY41       0.2280
     67  O         21.4560   34.7210   36.3510 O.2    41  GLY41      -0.2866
     68  N         20.2120   36.9780   33.5020 N.3    43  TRP43      -0.1241
     69  CA        19.0930   37.1400   32.5830 C.3    43  TRP43       0.1605
     70  C         18.9570   38.6150   32.2100 C.2    43  TRP43       0.2264
     71  O         19.0970   39.4970   33.0640 O.2    43  TRP43      -0.2867
     72  CB        17.8030   36.6400   33.2350 C.3    43  TRP43       0.0550
     73  CG        16.5730   36.9590   32.4610 C.ar   43  TRP43       0.0003
     74  CD1       16.0870   36.2820   31.3850 C.ar   43  TRP43       0.0946
     75  CD2       15.6480   38.0230   32.7190 C.ar   43  TRP43       0.0152
     76  NE1       14.9190   36.8620   30.9490 N.ar   43  TRP43      -0.2442
     77  CE2       14.6280   37.9340   31.7500 C.ar   43  TRP43       0.0810
     78  CE3       15.5830   39.0420   33.6760 C.ar   43  TRP43       0.0012
     79  CZ2       13.5590   38.8290   31.7040 C.ar   43  TRP43       0.0191
     80  CZ3       14.5210   39.9370   33.6260 C.ar   43  TRP43       0.0001
     81  CH2       13.5230   39.8200   32.6480 C.ar   43  TRP43       0.0015
@<TRIPOS>BOND
     1    76    74   ar
     2    76    77   ar
     3    74    73   ar
     4    79    77   ar
     5    79    81   ar
     6    77    75   ar
     7    70    69    1
     8    70    71    2
     9    73    75   ar
    10    73    72    1
    11    69    72    1
    12    69    68    1
    13    81    80   ar
    14    75    78   ar
    15    80    78   ar
    16    33    31    1
    17    61    62    1
    18    61    58    1
    19    62    63    1
    20    44    45    2
    21    44    43    1
    22    42    43    1
    23    46    43    1
    24    46    47    1
    25    63    57    1
    26    66    65    1
    27    66    67    2
    28    31    30    1
    29    31    32    1
    30    58    57    1
    31    58    59    1
    32    30    27    1
    33    49    47   ar
    34    65    64    1
    35    57    52   am
    36    47    48   ar
    37    59    60    2
    38    37    36    2
    39    36    35    1
    40    29    28    2
    41    52    51    1
    42    52    53    2
    43    27    28    1
    44    27    26    1
    45    28    34   am
    46    51    50    1
    47    51    54    1
    48    26    20   am
    49    35    34    1
    50    35    38    1
    51    25    23    1
    52    55    54    1
    53    40    39    1
    54    54    56    1
    55    20    19    1
    56    20    21    2
    57    38    39    1
    58    39    41    1
    59    19    22    1
    60    19    18    1
    61    22    23    1
    62    23    24    1
    63    12    11    2
    64    11    10    1
    65     4     3    2
    66     2     3    1
    67     2     1    1
    68     2     5    1
    69     3     9   am
    70    10     9    1
    71    10    13    1
    72     5     6    1
    73    13    14    1
    74     6     7   ar
    75     6     8   ar
    76    16    15   ar
    77    14    15    1
    78    15    17   ar
