@<TRIPOS>MOLECULE
tmp/6farA01.pdb
 142 142 0 0 0
SMALL
GASTEIGER

@<TRIPOS>ATOM
      1  N          6.0540   32.8260    6.8480 N.3    13  TYR13      -0.1241
      2  CA         5.4190   32.0140    7.8770 C.3    13  TYR13       0.1605
      3  C          5.4200   32.7990    9.1950 C.2    13  TYR13       0.2264
      4  O          6.4470   33.3230    9.5790 O.2    13  TYR13      -0.2867
      5  CB         6.1620   30.6560    8.0050 C.3    13  TYR13       0.0534
      6  CG         5.9750   29.8950    6.7070 C.ar   13  TYR13      -0.0201
      7  CD1        6.7860   30.1440    5.5910 C.ar   13  TYR13      -0.0009
      8  CD2        4.9180   29.0290    6.5560 C.ar   13  TYR13      -0.0009
      9  CE1        6.5130   29.5410    4.3830 C.ar   13  TYR13       0.0417
     10  CE2        4.6470   28.4210    5.3410 C.ar   13  TYR13       0.0417
     11  CZ         5.4620   28.6590    4.2680 C.ar   13  TYR13       0.1957
     12  OH         5.2420   28.0950    3.0040 O.3    13  TYR13      -0.2866
     13  N          4.2310   31.6340   12.2590 N.3    15  TRP15      -0.1241
     14  CA         3.8450   30.6430   13.2600 C.3    15  TRP15       0.1605
     15  C          4.8750   30.4530   14.3920 C.2    15  TRP15       0.2264
     16  O          4.7340   29.5270   15.2100 O.2    15  TRP15      -0.2867
     17  CB         3.4890   29.3240   12.5910 C.3    15  TRP15       0.0550
     18  CG         4.5250   28.7030   11.6650 C.ar   15  TRP15       0.0003
     19  CD1        5.8920   28.8060   11.7300 C.ar   15  TRP15       0.0946
     20  CD2        4.2480   27.8100   10.5910 C.ar   15  TRP15       0.0152
     21  NE1        6.4710   28.0480   10.7440 N.ar   15  TRP15      -0.2442
     22  CE2        5.4780   27.4260   10.0350 C.ar   15  TRP15       0.0810
     23  CE3        3.0630   27.3070   10.0280 C.ar   15  TRP15       0.0012
     24  CZ2        5.5620   26.5430    8.9670 C.ar   15  TRP15       0.0191
     25  CZ3        3.1460   26.4520    8.9420 C.ar   15  TRP15       0.0001
     26  CH2        4.3900   26.0830    8.4260 C.ar   15  TRP15       0.0015
     27  N         -3.8400   29.9390    7.9710 N.3    93  TRP93      -0.1241
     28  CA        -4.3630   28.6600    8.4350 C.3    93  TRP93       0.1605
     29  C         -5.7470   28.7230    9.0620 C.2    93  TRP93       0.2264
     30  O         -6.2460   27.6950    9.5330 O.2    93  TRP93      -0.2867
     31  CB        -3.3940   28.0830    9.4680 C.3    93  TRP93       0.0550
     32  CG        -2.2460   27.5680    8.8480 C.ar   93  TRP93       0.0003
     33  CD1       -1.0840   28.2060    8.6710 C.ar   93  TRP93       0.0946
     34  CD2       -2.1340   26.2970    8.1870 C.ar   93  TRP93       0.0152
     35  NE1       -0.2170   27.4080    7.9860 N.ar   93  TRP93      -0.2442
     36  CE2       -0.8250   26.2140    7.7030 C.ar   93  TRP93       0.0810
     37  CE3       -3.0040   25.1940    8.0230 C.ar   93  TRP93       0.0012
     38  CZ2       -0.3630   25.1110    7.0270 C.ar   93  TRP93       0.0191
     39  CZ3       -2.5390   24.0710    7.3620 C.ar   93  TRP93       0.0001
     40  CH2       -1.2220   24.0430    6.8560 C.ar   93  TRP93       0.0015
     41  N         -1.6290   33.3480    1.4200 N.3   121  HIS121     -0.1241
     42  CA        -1.3730   32.0100    0.9570 C.3   121  HIS121      0.1621
     43  C         -2.3040   31.0820    1.7160 C.2   121  HIS121      0.2264
     44  O         -2.0800   30.7860    2.9040 O.2   121  HIS121     -0.2867
     45  CB         0.0820   31.6700    1.2120 C.3   121  HIS121      0.0745
     46  CG         0.5440   30.3620    0.6450 C.ar  121  HIS121      0.0817
     47  ND1        1.7700   29.8220    0.9730 N.ar  121  HIS121     -0.2268
     48  CD2        0.0070   29.5370   -0.2920 C.ar  121  HIS121      0.1154
     49  CE1        1.9560   28.7050    0.2730 C.ar  121  HIS121      0.1986
     50  NE2        0.9120   28.5200   -0.5110 N.ar  121  HIS121     -0.2212
     51  N         -3.9230   28.0640    3.0870 N.3   123  GLU123     -0.1231
     52  CA        -3.5050   26.7170    3.3820 C.3   123  GLU123      0.1684
     53  C         -4.6860   25.7570    3.5030 C.2   123  GLU123      0.2434
     54  O         -5.8400   26.2110    3.5850 O.2   123  GLU123     -0.2733
     55  CB        -2.6870   26.7360    4.6800 C.3   123  GLU123      0.0402
     56  CG        -1.4410   27.6000    4.5940 C.3   123  GLU123      0.1161
     57  CD        -0.2470   26.9320    3.9620 C.2   123  GLU123      0.3649
     58  OE1       -0.3880   25.8000    3.4450 O.co2 123  GLU123     -0.2457
     59  OE2        0.8420   27.5750    4.0060 O.co2 123  GLU123     -0.2457
     60  N         -4.4050   24.4440    3.5030 N.am  124  PRO124     -0.2729
     61  CA        -5.4520   23.4390    3.6080 C.3   124  PRO124      0.1401
     62  C         -5.9390   23.2340    5.0370 C.2   124  PRO124      0.2269
     63  O         -5.6890   22.1970    5.6600 O.2   124  PRO124     -0.2865
     64  CB        -4.8090   22.1760    3.0260 C.3   124  PRO124      0.0296
     65  CG        -3.4010   22.4300    2.8210 C.3   124  PRO124      0.0237
     66  CD        -3.0930   23.8370    3.1740 C.3   124  PRO124      0.0939
     67  N         -2.7660   26.7150   -1.6820 N.3   162  TYR162     -0.1241
     68  CA        -1.9620   25.5120   -1.5330 C.3   162  TYR162      0.1605
     69  C         -2.8590   24.2700   -1.5820 C.2   162  TYR162      0.2264
     70  O         -3.9880   24.2700   -1.0800 O.2   162  TYR162     -0.2867
     71  CB        -1.1640   25.5250   -0.2240 C.3   162  TYR162      0.0534
     72  CG        -0.1540   24.4370   -0.1870 C.ar  162  TYR162     -0.0201
     73  CD1        1.0210   24.5340   -0.8620 C.ar  162  TYR162     -0.0009
     74  CD2       -0.4160   23.2390    0.4380 C.ar  162  TYR162     -0.0009
     75  CE1        1.9170   23.4890   -0.9000 C.ar  162  TYR162      0.0417
     76  CE2        0.4780   22.2020    0.4060 C.ar  162  TYR162      0.0417
     77  CZ         1.6560   22.3240   -0.2750 C.ar  162  TYR162      0.1957
     78  OH         2.5780   21.2860   -0.3190 O.3   162  TYR162     -0.2866
     79  N          5.4240   26.1410   -5.8780 N.3   219  TYR219     -0.1227
     80  CA         5.8410   26.0860   -4.4510 C.3   219  TYR219      0.1736
     81  C          7.1890   25.4160   -4.1720 C.2   219  TYR219      0.2595
     82  O          8.0850   26.0300   -3.6090 O.2   219  TYR219     -0.2718
     83  CB         4.7630   25.5030   -3.5030 C.3   219  TYR219      0.0548
     84  CG         5.2060   25.7190   -2.0680 C.ar  219  TYR219     -0.0200
     85  CD1        5.1090   26.9710   -1.4660 C.ar  219  TYR219     -0.0009
     86  CD2        5.8950   24.7420   -1.3870 C.ar  219  TYR219     -0.0009
     87  CE1        5.6180   27.2030   -0.1940 C.ar  219  TYR219      0.0417
     88  CE2        6.4140   24.9830   -0.1120 C.ar  219  TYR219      0.0417
     89  CZ         6.2880   26.2090    0.4520 C.ar  219  TYR219      0.1957
     90  OH         6.8350   26.4290    1.7080 O.3   219  TYR219     -0.2866
     91  N          7.3130   24.1320   -4.4870 N.am  220  PHE220     -0.1976
     92  CA         8.4080   23.3620   -3.9020 C.3   220  PHE220      0.1639
     93  C          9.7750   23.8890   -4.2590 C.2   220  PHE220      0.2290
     94  O         10.0980   24.0810   -5.4360 O.2   220  PHE220     -0.2864
     95  CB         8.2620   21.8680   -4.2270 C.3   220  PHE220      0.0560
     96  CG         6.9140   21.3480   -3.8510 C.ar  220  PHE220     -0.0200
     97  CD1        6.5940   21.1660   -2.5200 C.ar  220  PHE220     -0.0042
     98  CD2        5.9350   21.1280   -4.8090 C.ar  220  PHE220     -0.0042
     99  CE1        5.3400   20.7590   -2.1470 C.ar  220  PHE220     -0.0003
    100  CE2        4.6910   20.7220   -4.4400 C.ar  220  PHE220     -0.0003
    101  CZ         4.3830   20.5220   -3.1080 C.ar  220  PHE220     -0.0000
    102  N         16.9110   22.8930   -0.0190 N.3   256  TYR256     -0.1241
    103  CA        15.8950   22.1860    0.7620 C.3   256  TYR256      0.1605
    104  C         16.5590   21.1850    1.6680 C.2   256  TYR256      0.2264
    105  O         17.4110   20.4070    1.2200 O.2   256  TYR256     -0.2867
    106  CB        14.9130   21.4240   -0.1550 C.3   256  TYR256      0.0534
    107  CG        13.7280   20.8930    0.6040 C.ar  256  TYR256     -0.0201
    108  CD1       13.7620   19.6500    1.2310 C.ar  256  TYR256     -0.0009
    109  CD2       12.5610   21.6330    0.6890 C.ar  256  TYR256     -0.0009
    110  CE1       12.6710   19.1950    1.9650 C.ar  256  TYR256      0.0417
    111  CE2       11.4740   21.1830    1.3970 C.ar  256  TYR256      0.0417
    112  CZ        11.5160   19.9460    2.0260 C.ar  256  TYR256      0.1957
    113  OH        10.4300   19.4900    2.7570 O.3   256  TYR256     -0.2866
    114  N         11.7980   15.5010    9.5720 N.3   262  ARG262     -0.1245
    115  CA        11.4520   14.3510    8.7310 C.3   262  ARG262      0.1563
    116  C         12.7380   13.5730    8.4130 C.2   262  ARG262      0.2260
    117  O         13.2550   13.6440    7.2930 O.2   262  ARG262     -0.2867
    118  CB        10.7140   14.8070    7.4540 C.3   262  ARG262      0.0307
    119  CG         9.5100   15.7110    7.6850 C.3   262  ARG262      0.0489
    120  CD         8.7120   15.9740    6.4080 C.3   262  ARG262      0.2205
    121  NE         7.6460   16.9680    6.6340 N.pl3 262  ARG262     -0.0865
    122  CZ         7.6360   18.2380    6.1960 C.cat 262  ARG262      0.5346
    123  NH1        8.6180   18.7240    5.4790 N.pl3 262  ARG262      0.1354
    124  NH2        6.6080   19.0440    6.4650 N.pl3 262  ARG262      0.1354
    125  N         10.5550   29.3800    6.0050 N.3   300  GLU300     -0.1245
    126  CA        10.1280   28.0080    6.3240 C.3   300  GLU300      0.1567
    127  C         11.3990   27.3010    6.8150 C.2   300  GLU300      0.2260
    128  O         12.0800   26.5850    6.0960 O.2   300  GLU300     -0.2867
    129  CB         9.4650   27.2960    5.1320 C.3   300  GLU300      0.0388
    130  CG         8.2060   26.4700    5.5150 C.3   300  GLU300      0.1160
    131  CD         8.4280   25.3170    6.4790 C.2   300  GLU300      0.3649
    132  OE1        7.4800   24.4980    6.6150 O.co2 300  GLU300     -0.2457
    133  OE2        9.5200   25.2560    7.0930 O.co2 300  GLU300     -0.2457
    134  N         11.8570   23.4380    6.6530 N.3   303  GLU303     -0.1245
    135  CA        12.1690   22.8350    5.3490 C.3   303  GLU303      0.1567
    136  C         13.4990   23.2900    4.7770 C.2   303  GLU303      0.2260
    137  O         13.9070   22.8370    3.7240 O.2   303  GLU303     -0.2867
    138  CB        11.0140   23.0320    4.3910 C.3   303  GLU303      0.0388
    139  CG         9.8110   22.2150    4.8770 C.3   303  GLU303      0.1160
    140  CD         8.6720   22.1080    3.8950 C.2   303  GLU303      0.3649
    141  OE1        8.6430   22.8530    2.9020 O.co2 303  GLU303     -0.2457
    142  OE2        7.7940   21.2480    4.1470 O.co2 303  GLU303     -0.2457
@<TRIPOS>BOND
     1    79    80    1
     2    94    93    2
     3    98   100   ar
     4    98    96   ar
     5    91    81   am
     6    91    92    1
     7    80    81    1
     8    80    83    1
     9   100   101   ar
    10    93    92    1
    11    95    92    1
    12    95    96    1
    13    81    82    2
    14    96    97   ar
    15    83    84    1
    16   101    99   ar
    17    97    99   ar
    18    84    85   ar
    19    84    86   ar
    20    67    68    1
    21    69    68    1
    22    69    70    2
    23    68    71    1
    24    85    87   ar
    25    86    88   ar
    26    75    73   ar
    27    75    77   ar
    28    73    72   ar
    29    50    48   ar
    30    50    49   ar
    31    78    77    1
    32    48    46   ar
    33    77    76   ar
    34    71    72    1
    35    87    89   ar
    36    72    74   ar
    37   106   107    1
    38   106   103    1
    39    88    89   ar
    40   102   103    1
    41    49    47   ar
    42    76    74   ar
    43    89    90    1
    44   107   109   ar
    45   107   108   ar
    46    46    47   ar
    47    46    45    1
    48   109   111   ar
    49   103   104    1
    50    42    45    1
    51    42    41    1
    52    42    43    1
    53   105   104    2
    54   108   110   ar
    55   111   112   ar
    56    43    44    2
    57   110   112   ar
    58   112   113    1
    59    65    64    1
    60    65    66    1
    61   141   140   ar
    62    12    11    1
    63    64    61    1
    64    51    52    1
    65    66    60    1
    66    52    53    1
    67    52    55    1
    68    58    57   ar
    69    60    53   am
    70    60    61    1
    71    53    54    2
    72    61    62    1
    73   137   136    2
    74   140   142   ar
    75   140   139    1
    76    57    59   ar
    77    57    56    1
    78    11     9   ar
    79    11    10   ar
    80     9     7   ar
    81   138   139    1
    82   138   135    1
    83    56    55    1
    84   136   135    1
    85    62    63    2
    86   129   130    1
    87   129   126    1
    88    10     8   ar
    89   135   134    1
    90   123   122    1
    91   130   131    1
    92     7     6   ar
    93   125   126    1
    94   128   127    2
    95   122   124    1
    96   122   121    2
    97   126   127    1
    98   120   121    1
    99   120   119    1
   100   131   132   ar
   101   131   133   ar
   102     8     6   ar
   103     6     5    1
   104     1     2    1
   105    40    38   ar
   106    40    39   ar
   107    38    36   ar
   108   117   116    2
   109    39    37   ar
   110   118   119    1
   111   118   115    1
   112    36    35   ar
   113    36    34   ar
   114     2     5    1
   115     2     3    1
   116    27    28    1
   117    35    33   ar
   118    37    34   ar
   119    34    32   ar
   120   116   115    1
   121    26    25   ar
   122    26    24   ar
   123    28    29    1
   124    28    31    1
   125    33    32   ar
   126   115   114    1
   127    32    31    1
   128    25    23   ar
   129    24    22   ar
   130    29    30    2
   131     3     4    2
   132    23    20   ar
   133    22    20   ar
   134    22    21   ar
   135    20    18   ar
   136    21    19   ar
   137    18    19   ar
   138    18    17    1
   139    13    14    1
   140    17    14    1
   141    14    15    1
   142    15    16    2
