@<TRIPOS>MOLECULE
tmp/6fatB02.pdb
 112 109 0 0 0
SMALL
GASTEIGER

@<TRIPOS>ATOM
      1  N         46.0030   21.5280  110.4500 N.3    21  TRP21      -0.1241
      2  CA        45.7220   20.1210  110.7590 C.3    21  TRP21       0.1605
      3  C         46.8660   19.2050  110.3360 C.2    21  TRP21       0.2264
      4  O         47.3300   18.3810  111.1250 O.2    21  TRP21      -0.2867
      5  CB        44.4390   19.6510  110.0730 C.3    21  TRP21       0.0550
      6  CG        43.1950   20.3140  110.5620 C.ar   21  TRP21       0.0003
      7  CD1       42.3250   21.0550  109.8220 C.ar   21  TRP21       0.0946
      8  CD2       42.6710   20.2920  111.8970 C.ar   21  TRP21       0.0152
      9  NE1       41.2870   21.4920  110.6060 N.ar   21  TRP21      -0.2442
     10  CE2       41.4750   21.0420  111.8860 C.ar   21  TRP21       0.0810
     11  CE3       43.0960   19.7110  113.1010 C.ar   21  TRP21       0.0012
     12  CZ2       40.6970   21.2330  113.0350 C.ar   21  TRP21       0.0191
     13  CZ3       42.3200   19.8990  114.2460 C.ar   21  TRP21       0.0001
     14  CH2       41.1340   20.6550  114.2020 C.ar   21  TRP21       0.0015
     15  N         36.7790   13.1270  105.2550 N.3    36  ASP36      -0.1225
     16  CA        36.1540   14.1320  106.1310 C.3    36  ASP36       0.1805
     17  C         35.1920   15.0850  105.4000 C.2    36  ASP36       0.2598
     18  O         34.4880   15.8610  106.0500 O.2    36  ASP36      -0.2718
     19  CB        37.2290   14.9530  106.8560 C.3    36  ASP36       0.1424
     20  CG        38.0830   14.1090  107.7860 C.2    36  ASP36       0.3668
     21  OD1       37.5110   13.3940  108.6370 O.co2  36  ASP36      -0.2456
     22  OD2       39.3280   14.1640  107.6710 O.co2  36  ASP36      -0.2456
     23  N         35.1650   15.0290  104.0660 N.am   37  ASN37      -0.1960
     24  CA        34.2880   15.8790  103.2540 C.3    37  ASN37       0.1819
     25  C         32.8150   15.5740  103.5490 C.2    37  ASN37       0.2621
     26  O         32.4620   14.4310  103.8480 O.2    37  ASN37      -0.2715
     27  CB        34.5940   15.6750  101.7560 C.3    37  ASN37       0.1195
     28  CG        34.1620   16.8470  100.8850 C.2    37  ASN37       0.2630
     29  OD1       33.6340   17.8510  101.3650 O.2    37  ASN37      -0.2716
     30  ND2       34.4000   16.7210   99.5830 N.am   37  ASN37      -0.0877
     31  N         31.9690   16.6000  103.4650 N.am   38  HIS38      -0.1973
     32  CA        30.5460   16.4890  103.8230 C.3    38  HIS38       0.1656
     33  C         29.8310   15.5060  102.8740 C.2    38  HIS38       0.2291
     34  O         30.1790   15.4500  101.6900 O.2    38  HIS38      -0.2864
     35  CB        29.8810   17.8740  103.7700 C.3    38  HIS38       0.0771
     36  CG        28.6000   17.9670  104.5390 C.ar   38  HIS38       0.0820
     37  ND1       27.3620   17.8580  103.9420 N.ar   38  HIS38      -0.2267
     38  CD2       28.3640   18.1710  105.8570 C.ar   38  HIS38       0.1154
     39  CE1       26.4200   17.9820  104.8590 C.ar   38  HIS38       0.1986
     40  NE2       27.0010   18.1750  106.0290 N.ar   38  HIS38      -0.2212
     41  N         42.2370   25.2560  109.5480 N.3    58  PHE58      -0.1241
     42  CA        40.9890   25.7460  110.1370 C.3    58  PHE58       0.1605
     43  C         41.2120   27.2090  110.5060 C.2    58  PHE58       0.2264
     44  O         42.0720   27.5010  111.3360 O.2    58  PHE58      -0.2867
     45  CB        40.6370   24.9340  111.3900 C.3    58  PHE58       0.0534
     46  CG        39.3520   25.3510  112.0540 C.ar   58  PHE58      -0.0203
     47  CD1       39.3510   26.3050  113.0680 C.ar   58  PHE58      -0.0042
     48  CD2       38.1410   24.7800  111.6740 C.ar   58  PHE58      -0.0042
     49  CE1       38.1660   26.6900  113.6810 C.ar   58  PHE58      -0.0003
     50  CE2       36.9510   25.1600  112.2850 C.ar   58  PHE58      -0.0003
     51  CZ        36.9640   26.1160  113.2900 C.ar   58  PHE58      -0.0000
     52  N         33.8060   30.4030  110.8090 N.3    66  ASN66      -0.1240
     53  CA        35.1140   29.8310  110.4850 C.3    66  ASN66       0.1653
     54  C         35.1550   29.2310  109.0810 C.2    66  ASN66       0.2266
     55  O         34.1160   28.9210  108.4960 O.2    66  ASN66      -0.2867
     56  CB        35.4960   28.7620  111.5170 C.3    66  ASN66       0.1155
     57  CG        34.3760   27.7720  111.7630 C.2    66  ASN66       0.2627
     58  OD1       34.2080   26.8110  111.0100 O.2    66  ASN66      -0.2716
     59  ND2       33.6010   28.0080  112.8240 N.am   66  ASN66      -0.0877
     60  N         37.3470   26.3960  106.3070 N.3    68  THR68      -0.1218
     61  CA        38.2490   25.2720  106.0880 C.3    68  THR68       0.1862
     62  C         39.0050   25.6130  104.8130 C.2    68  THR68       0.2287
     63  O         38.4240   25.5990  103.7270 O.2    68  THR68      -0.2866
     64  CB        37.4980   23.9350  105.9210 C.3    68  THR68       0.1770
     65  OG1       36.8530   23.5880  107.1520 O.3    68  THR68      -0.2211
     66  CG2       38.4640   22.8090  105.5250 C.3    68  THR68       0.0375
     67  N         34.8560   22.6230   99.1490 N.3    93  ILE93      -0.1245
     68  CA        36.0860   22.9710   98.4400 C.3    93  ILE93       0.1561
     69  C         36.0580   22.2290   97.1070 C.2    93  ILE93       0.2260
     70  O         35.9890   20.9990   97.0830 O.2    93  ILE93      -0.2867
     71  CB        37.3550   22.5930   99.2360 C.3    93  ILE93       0.0252
     72  CG1       37.4530   23.4490  100.5030 C.3    93  ILE93       0.0019
     73  CG2       38.6110   22.7860   98.3860 C.3    93  ILE93       0.0019
     74  CD1       38.4360   22.9350  101.5320 C.3    93  ILE93       0.0001
     75  N         37.6250   20.5860   94.7730 N.3    95  TYR95      -0.1241
     76  CA        38.9330   19.9220   94.7060 C.3    95  TYR95       0.1605
     77  C         39.4480   19.6520   93.2930 C.2    95  TYR95       0.2264
     78  O         40.6630   19.6460   93.0820 O.2    95  TYR95      -0.2867
     79  CB        38.9140   18.6050   95.4950 C.3    95  TYR95       0.0534
     80  CG        38.8820   18.7820   96.9980 C.ar   95  TYR95      -0.0201
     81  CD1       39.9330   19.4120   97.6630 C.ar   95  TYR95      -0.0009
     82  CD2       37.8190   18.2950   97.7620 C.ar   95  TYR95      -0.0009
     83  CE1       39.9190   19.5720   99.0400 C.ar   95  TYR95       0.0417
     84  CE2       37.7970   18.4490   99.1430 C.ar   95  TYR95       0.0417
     85  CZ        38.8500   19.0870   99.7780 C.ar   95  TYR95       0.1957
     86  OH        38.8390   19.2440  101.1440 O.3    95  TYR95      -0.2866
     87  N         36.0270   26.6540  102.0040 N.3   112  ASN112     -0.1240
     88  CA        34.6810   26.0590  102.0140 C.3   112  ASN112      0.1653
     89  C         33.5430   27.0910  102.1190 C.2   112  ASN112      0.2266
     90  O         32.4260   26.7330  102.4710 O.2   112  ASN112     -0.2867
     91  CB        34.5670   25.0050  103.1360 C.3   112  ASN112      0.1155
     92  CG        34.4230   25.6140  104.5260 C.2   112  ASN112      0.2627
     93  OD1       34.8310   26.7510  104.7710 O.2   112  ASN112     -0.2716
     94  ND2       33.8510   24.8480  105.4470 N.am  112  ASN112     -0.0877
     95  N         31.0020   27.4030  105.6460 N.3   115  HIS115     -0.1226
     96  CA        30.2690   26.2870  106.2610 C.3   115  HIS115      0.1752
     97  C         30.5060   24.9840  105.4940 C.2   115  HIS115      0.2596
     98  O         31.2620   24.9640  104.5240 O.2   115  HIS115     -0.2718
     99  CB        28.7670   26.6070  106.3460 C.3   115  HIS115      0.0759
    100  CG        28.0810   26.6790  105.0160 C.ar  115  HIS115      0.0818
    101  ND1       28.0230   27.8370  104.2730 N.ar  115  HIS115     -0.2268
    102  CD2       27.4190   25.7390  104.3000 C.ar  115  HIS115      0.1154
    103  CE1       27.3580   27.6070  103.1550 C.ar  115  HIS115      0.1986
    104  NE2       26.9810   26.3420  103.1460 N.ar  115  HIS115     -0.2212
    105  N         29.8760   23.9000  105.9480 N.am  116  ASN116     -0.1974
    106  CA        29.9620   22.6010  105.2820 C.3   116  ASN116      0.1688
    107  C         28.5960   22.1450  104.7740 C.2   116  ASN116      0.2292
    108  O         27.5800   22.3370  105.4440 O.2   116  ASN116     -0.2864
    109  CB        30.5500   21.5620  106.2420 C.3   116  ASN116      0.1181
    110  CG        32.0620   21.6680  106.3730 C.2   116  ASN116      0.2629
    111  OD1       32.7400   22.2440  105.5140 O.2   116  ASN116     -0.2716
    112  ND2       32.6010   21.1030  107.4550 N.am  116  ASN116     -0.0877
@<TRIPOS>BOND
     1    78    77    2
     2    77    76    1
     3    76    75    1
     4    76    79    1
     5    79    80    1
     6    80    81   ar
     7    80    82   ar
     8    70    69    2
     9    69    68    1
    10    81    83   ar
    11    82    84   ar
    12    73    71    1
    13    68    67    1
    14    68    71    1
    15    83    85   ar
    16    84    85   ar
    17    71    72    1
    18    30    28   am
    19    85    86    1
    20    72    74    1
    21    28    29    2
    22    28    27    1
    23    34    33    2
    24    27    24    1
    25    87    88    1
    26    88    89    1
    27    88    91    1
    28    89    90    2
    29    33    32    1
    30    91    92    1
    31   104   103   ar
    32   104   102   ar
    33   103   101   ar
    34    24    25    1
    35    24    23    1
    36    31    25   am
    37    31    32    1
    38    25    26    2
    39    63    62    2
    40    35    32    1
    41    35    36    1
    42    37    36   ar
    43    37    39   ar
    44    23    17   am
    45   101   100   ar
    46   102   100   ar
    47    98    97    2
    48    92    93    2
    49    92    94   am
    50    36    38   ar
    51   107   106    1
    52   107   108    2
    53    62    61    1
    54    39    40   ar
    55   100    99    1
    56    15    16    1
    57   106   105    1
    58   106   109    1
    59    17    18    2
    60    17    16    1
    61    97   105   am
    62    97    96    1
    63   111   110    2
    64    66    64    1
    65    95    96    1
    66    38    40   ar
    67    64    61    1
    68    64    65    1
    69    61    60    1
    70    16    19    1
    71   109   110    1
    72    96    99    1
    73   110   112   am
    74    19    20    1
    75    22    20   ar
    76    20    21   ar
    77    55    54    2
    78    54    53    1
    79    41    42    1
    80     7     6   ar
    81     7     9   ar
    82     5     6    1
    83     5     2    1
    84    42    43    1
    85    42    45    1
    86     3     2    1
    87     3     4    2
    88     1     2    1
    89    53    52    1
    90    53    56    1
    91    43    44    2
    92     6     8   ar
    93     9    10   ar
    94    58    57    2
    95    45    46    1
    96    56    57    1
    97    48    46   ar
    98    48    50   ar
    99    57    59   am
   100    10     8   ar
   101    10    12   ar
   102     8    11   ar
   103    46    47   ar
   104    50    51   ar
   105    12    14   ar
   106    47    49   ar
   107    11    13   ar
   108    51    49   ar
   109    14    13   ar
