@<TRIPOS>MOLECULE
tmp/6fatB03.pdb
 96 94 0 0 0
SMALL
GASTEIGER

@<TRIPOS>ATOM
      1  N         46.0030   21.5280  110.4500 N.3    21  TRP21      -0.1227
      2  CA        45.7220   20.1210  110.7590 C.3    21  TRP21       0.1737
      3  C         46.8660   19.2050  110.3360 C.2    21  TRP21       0.2595
      4  O         47.3300   18.3810  111.1250 O.2    21  TRP21      -0.2718
      5  CB        44.4390   19.6510  110.0730 C.3    21  TRP21       0.0564
      6  CG        43.1950   20.3140  110.5620 C.ar   21  TRP21       0.0003
      7  CD1       42.3250   21.0550  109.8220 C.ar   21  TRP21       0.0946
      8  CD2       42.6710   20.2920  111.8970 C.ar   21  TRP21       0.0152
      9  NE1       41.2870   21.4920  110.6060 N.ar   21  TRP21      -0.2442
     10  CE2       41.4750   21.0420  111.8860 C.ar   21  TRP21       0.0810
     11  CE3       43.0960   19.7110  113.1010 C.ar   21  TRP21       0.0012
     12  CZ2       40.6970   21.2330  113.0350 C.ar   21  TRP21       0.0191
     13  CZ3       42.3200   19.8990  114.2460 C.ar   21  TRP21       0.0001
     14  CH2       41.1340   20.6550  114.2020 C.ar   21  TRP21       0.0015
     15  N         47.2960   19.3420  109.0830 N.am   22  PHE22      -0.1976
     16  CA        48.3650   18.5090  108.5290 C.3    22  PHE22       0.1639
     17  C         49.0050   19.1280  107.2870 C.2    22  PHE22       0.2290
     18  O         48.4830   20.0910  106.7190 O.2    22  PHE22      -0.2864
     19  CB        47.8290   17.1070  108.1990 C.3    22  PHE22       0.0560
     20  CG        46.6690   17.1020  107.2340 C.ar   22  PHE22      -0.0200
     21  CD1       46.8870   17.0830  105.8560 C.ar   22  PHE22      -0.0042
     22  CD2       45.3560   17.1020  107.7000 C.ar   22  PHE22      -0.0042
     23  CE1       45.8200   17.0770  104.9660 C.ar   22  PHE22      -0.0003
     24  CE2       44.2860   17.0940  106.8140 C.ar   22  PHE22      -0.0003
     25  CZ        44.5170   17.0800  105.4460 C.ar   22  PHE22      -0.0000
     26  N         36.7790   13.1270  105.2550 N.3    36  ASP36      -0.1239
     27  CA        36.1540   14.1320  106.1310 C.3    36  ASP36       0.1674
     28  C         35.1920   15.0850  105.4000 C.2    36  ASP36       0.2266
     29  O         34.4880   15.8610  106.0500 O.2    36  ASP36      -0.2867
     30  CB        37.2290   14.9530  106.8560 C.3    36  ASP36       0.1410
     31  CG        38.0830   14.1090  107.7860 C.2    36  ASP36       0.3668
     32  OD1       37.5110   13.3940  108.6370 O.co2  36  ASP36      -0.2456
     33  OD2       39.3280   14.1640  107.6710 O.co2  36  ASP36      -0.2456
     34  N         50.0090   19.1420  100.2260 N.3    54  ARG54      -0.1245
     35  CA        48.6260   19.4410  100.6100 C.3    54  ARG54       0.1563
     36  C         48.5540   19.9280  102.0590 C.2    54  ARG54       0.2260
     37  O         48.6480   19.1260  102.9870 O.2    54  ARG54      -0.2867
     38  CB        47.7530   18.1900  100.4180 C.3    54  ARG54       0.0307
     39  CG        46.3280   18.2990  100.9430 C.3    54  ARG54       0.0489
     40  CD        45.4130   17.2820  100.2810 C.3    54  ARG54       0.2205
     41  NE        44.0950   17.2390  100.9220 N.pl3  54  ARG54      -0.0865
     42  CZ        43.6300   16.2700  101.7200 C.cat  54  ARG54       0.5346
     43  NH1       44.3460   15.1810  102.0120 N.pl3  54  ARG54       0.1354
     44  NH2       42.4060   16.3880  102.2320 N.pl3  54  ARG54       0.1354
     45  N         46.2560   21.5450  104.9550 N.3    56  ALA56      -0.1231
     46  CA        44.8640   21.7380  105.3850 C.3    56  ALA56       0.1694
     47  C         44.8130   22.5590  106.6730 C.2    56  ALA56       0.2592
     48  O         45.6440   22.3640  107.5640 O.2    56  ALA56      -0.2718
     49  CB        44.1820   20.3960  105.5840 C.3    56  ALA56       0.0304
     50  N         43.8360   23.4670  106.7630 N.am   57  MET57      -0.1965
     51  CA        43.7610   24.4590  107.8450 C.3    57  MET57       0.1736
     52  C         42.3330   24.7210  108.3290 C.2    57  MET57       0.2616
     53  O         41.3630   24.4560  107.6190 O.2    57  MET57      -0.2715
     54  CB        44.3580   25.7910  107.3750 C.3    57  MET57       0.0427
     55  CG        45.8590   25.7780  107.1350 C.3    57  MET57       0.0599
     56  SD        46.3990   27.1440  106.0920 S.3    57  MET57      -0.1393
     57  CE        45.8970   26.5590  104.4750 C.3    57  MET57       0.0692
     58  N         42.2370   25.2560  109.5480 N.am   58  PHE58      -0.1974
     59  CA        40.9890   25.7460  110.1370 C.3    58  PHE58       0.1639
     60  C         41.2120   27.2090  110.5060 C.2    58  PHE58       0.2290
     61  O         42.0720   27.5010  111.3360 O.2    58  PHE58      -0.2864
     62  CB        40.6370   24.9340  111.3900 C.3    58  PHE58       0.0560
     63  CG        39.3520   25.3510  112.0540 C.ar   58  PHE58      -0.0200
     64  CD1       39.3510   26.3050  113.0680 C.ar   58  PHE58      -0.0042
     65  CD2       38.1410   24.7800  111.6740 C.ar   58  PHE58      -0.0042
     66  CE1       38.1660   26.6900  113.6810 C.ar   58  PHE58      -0.0003
     67  CE2       36.9510   25.1600  112.2850 C.ar   58  PHE58      -0.0003
     68  CZ        36.9640   26.1160  113.2900 C.ar   58  PHE58      -0.0000
     69  N         37.3470   26.3960  106.3070 N.3    68  THR68      -0.1218
     70  CA        38.2490   25.2720  106.0880 C.3    68  THR68       0.1862
     71  C         39.0050   25.6130  104.8130 C.2    68  THR68       0.2287
     72  O         38.4240   25.5990  103.7270 O.2    68  THR68      -0.2866
     73  CB        37.4980   23.9350  105.9210 C.3    68  THR68       0.1770
     74  OG1       36.8530   23.5880  107.1520 O.3    68  THR68      -0.2211
     75  CG2       38.4640   22.8090  105.5250 C.3    68  THR68       0.0375
     76  N         42.2850   24.8530  102.3030 N.3    70  GLU70      -0.1245
     77  CA        43.3540   23.9650  101.8540 C.3    70  GLU70       0.1567
     78  C         44.2400   24.6940  100.8520 C.2    70  GLU70       0.2260
     79  O         43.7540   25.5220  100.0800 O.2    70  GLU70      -0.2867
     80  CB        42.7880   22.6850  101.2310 C.3    70  GLU70       0.0388
     81  CG        42.3630   21.6330  102.2530 C.3    70  GLU70       0.1160
     82  CD        42.3100   20.2210  101.6900 C.2    70  GLU70       0.3649
     83  OE1       43.2080   19.8410  100.9060 O.co2  70  GLU70      -0.2457
     84  OE2       41.3720   19.4760  102.0430 O.co2  70  GLU70      -0.2457
     85  N         37.6250   20.5860   94.7730 N.3    95  TYR95      -0.1241
     86  CA        38.9330   19.9220   94.7060 C.3    95  TYR95       0.1605
     87  C         39.4480   19.6520   93.2930 C.2    95  TYR95       0.2264
     88  O         40.6630   19.6460   93.0820 O.2    95  TYR95      -0.2867
     89  CB        38.9140   18.6050   95.4950 C.3    95  TYR95       0.0534
     90  CG        38.8820   18.7820   96.9980 C.ar   95  TYR95      -0.0201
     91  CD1       39.9330   19.4120   97.6630 C.ar   95  TYR95      -0.0009
     92  CD2       37.8190   18.2950   97.7620 C.ar   95  TYR95      -0.0009
     93  CE1       39.9190   19.5720   99.0400 C.ar   95  TYR95       0.0417
     94  CE2       37.7970   18.4490   99.1430 C.ar   95  TYR95       0.0417
     95  CZ        38.8500   19.0870   99.7780 C.ar   95  TYR95       0.1957
     96  OH        38.8390   19.2440  101.1440 O.3    95  TYR95      -0.2866
@<TRIPOS>BOND
     1    88    87    2
     2    87    86    1
     3    86    85    1
     4    86    89    1
     5    89    90    1
     6    90    91   ar
     7    90    92   ar
     8    91    93   ar
     9    92    94   ar
    10    93    95   ar
    11    94    95   ar
    12    95    96    1
    13    79    78    2
    14    34    35    1
    15    40    41    1
    16    40    39    1
    17    38    35    1
    18    38    39    1
    19    35    36    1
    20    78    77    1
    21    83    82   ar
    22    41    42    2
    23    80    77    1
    24    80    81    1
    25    82    84   ar
    26    82    81    1
    27    42    43    1
    28    42    44    1
    29    77    76    1
    30    36    37    2
    31    72    71    2
    32    57    56    1
    33    71    70    1
    34    45    46    1
    35    23    25   ar
    36    23    21   ar
    37    26    27    1
    38    46    49    1
    39    46    47    1
    40    28    29    2
    41    28    27    1
    42    25    24   ar
    43    75    73    1
    44    21    20   ar
    45    73    70    1
    46    73    74    1
    47    70    69    1
    48    56    55    1
    49    27    30    1
    50    47    50   am
    51    47    48    2
    52    18    17    2
    53    50    51    1
    54    24    22   ar
    55    30    31    1
    56    55    54    1
    57    20    22   ar
    58    20    19    1
    59    17    16    1
    60    54    51    1
    61    53    52    2
    62    33    31   ar
    63    31    32   ar
    64    51    52    1
    65    19    16    1
    66    52    58   am
    67    16    15    1
    68    15     3   am
    69    58    59    1
    70     7     6   ar
    71     7     9   ar
    72     5     6    1
    73     5     2    1
    74    59    60    1
    75    59    62    1
    76     3     2    1
    77     3     4    2
    78     1     2    1
    79    60    61    2
    80     6     8   ar
    81     9    10   ar
    82    62    63    1
    83    65    63   ar
    84    65    67   ar
    85    10     8   ar
    86    10    12   ar
    87     8    11   ar
    88    63    64   ar
    89    67    68   ar
    90    12    14   ar
    91    64    66   ar
    92    11    13   ar
    93    68    66   ar
    94    14    13   ar
