@<TRIPOS>MOLECULE
tmp/6fatB01.pdb
 83 79 0 0 0
SMALL
GASTEIGER

@<TRIPOS>ATOM
      1  N         42.2370   25.2560  109.5480 N.3    58  PHE58      -0.1241
      2  CA        40.9890   25.7460  110.1370 C.3    58  PHE58       0.1605
      3  C         41.2120   27.2090  110.5060 C.2    58  PHE58       0.2264
      4  O         42.0720   27.5010  111.3360 O.2    58  PHE58      -0.2867
      5  CB        40.6370   24.9340  111.3900 C.3    58  PHE58       0.0534
      6  CG        39.3520   25.3510  112.0540 C.ar   58  PHE58      -0.0203
      7  CD1       39.3510   26.3050  113.0680 C.ar   58  PHE58      -0.0042
      8  CD2       38.1410   24.7800  111.6740 C.ar   58  PHE58      -0.0042
      9  CE1       38.1660   26.6900  113.6810 C.ar   58  PHE58      -0.0003
     10  CE2       36.9510   25.1600  112.2850 C.ar   58  PHE58      -0.0003
     11  CZ        36.9640   26.1160  113.2900 C.ar   58  PHE58      -0.0000
     12  N         39.6240   30.8830  111.8960 N.3    60  THR60      -0.1218
     13  CA        38.5610   31.5620  112.6470 C.3    60  THR60       0.1862
     14  C         38.3530   32.9760  112.0980 C.2    60  THR60       0.2287
     15  O         39.2660   33.8000  112.1490 O.2    60  THR60      -0.2866
     16  CB        38.9040   31.6380  114.1510 C.3    60  THR60       0.1770
     17  OG1       39.0280   30.3120  114.6780 O.3    60  THR60      -0.2211
     18  CG2       37.8240   32.3830  114.9360 C.3    60  THR60       0.0375
     19  N         33.4310   35.1530  116.1710 N.3    63  PRO63      -0.2102
     20  CA        32.9860   34.3930  117.3510 C.3    63  PRO63       0.1504
     21  C         32.2720   33.0720  117.0390 C.2    63  PRO63       0.2576
     22  O         32.5090   32.0800  117.7300 O.2    63  PRO63      -0.2718
     23  CB        32.0220   35.3600  118.0490 C.3    63  PRO63       0.0282
     24  CG        32.4730   36.7120  117.6310 C.3    63  PRO63       0.0208
     25  CD        32.9820   36.5590  116.2280 C.3    63  PRO63       0.0893
     26  N         31.4110   33.0680  116.0190 N.am   64  LYS64      -0.1966
     27  CA        30.6590   31.8680  115.6190 C.3    64  LYS64       0.1728
     28  C         30.7660   31.5970  114.1100 C.2    64  LYS64       0.2617
     29  O         29.8000   31.1480  113.4810 O.2    64  LYS64      -0.2715
     30  CB        29.1850   32.0100  116.0310 C.3    64  LYS64       0.0311
     31  CG        28.9680   32.3670  117.4970 C.3    64  LYS64       0.0038
     32  CD        27.5010   32.2870  117.8990 C.3    64  LYS64       0.0206
     33  CE        26.6760   33.4090  117.2840 C.3    64  LYS64       0.1093
     34  NZ        25.2720   33.3970  117.7790 N.3    64  LYS64      -0.1314
     35  N         31.9460   31.8530  113.5410 N.am   65  SER65      -0.1936
     36  CA        32.1910   31.6650  112.1060 C.3    65  SER65       0.2055
     37  C         33.6260   31.2150  111.8490 C.2    65  SER65       0.2643
     38  O         34.5470   31.6070  112.5710 O.2    65  SER65      -0.2714
     39  CB        31.9050   32.9600  111.3390 C.3    65  SER65       0.2130
     40  OG        32.7600   34.0130  111.7550 O.3    65  SER65      -0.2179
     41  N         33.8060   30.4030  110.8090 N.am   66  ASN66      -0.1971
     42  CA        35.1140   29.8310  110.4850 C.3    66  ASN66       0.1688
     43  C         35.1550   29.2310  109.0810 C.2    66  ASN66       0.2292
     44  O         34.1160   28.9210  108.4960 O.2    66  ASN66      -0.2864
     45  CB        35.4960   28.7620  111.5170 C.3    66  ASN66       0.1181
     46  CG        34.3760   27.7720  111.7630 C.2    66  ASN66       0.2629
     47  OD1       34.2080   26.8110  111.0100 O.2    66  ASN66      -0.2716
     48  ND2       33.6010   28.0080  112.8240 N.am   66  ASN66      -0.0877
     49  N         32.6820   29.2580  104.2850 N.3   114  GLY114     -0.1210
     50  CA        32.1560   29.5620  105.6250 C.3   114  GLY114      0.1956
     51  C         31.3190   28.5030  106.3290 C.2   114  GLY114      0.2611
     52  O         30.9480   28.6950  107.4890 O.2   114  GLY114     -0.2717
     53  N         31.0020   27.4030  105.6460 N.am  115  HIS115     -0.1975
     54  CA        30.2690   26.2870  106.2610 C.3   115  HIS115      0.1656
     55  C         30.5060   24.9840  105.4940 C.2   115  HIS115      0.2291
     56  O         31.2620   24.9640  104.5240 O.2   115  HIS115     -0.2864
     57  CB        28.7670   26.6070  106.3460 C.3   115  HIS115      0.0771
     58  CG        28.0810   26.6790  105.0160 C.ar  115  HIS115      0.0820
     59  ND1       28.0230   27.8370  104.2730 N.ar  115  HIS115     -0.2267
     60  CD2       27.4190   25.7390  104.3000 C.ar  115  HIS115      0.1154
     61  CE1       27.3580   27.6070  103.1550 C.ar  115  HIS115      0.1986
     62  NE2       26.9810   26.3420  103.1460 N.ar  115  HIS115     -0.2212
     63  N         23.0320   26.7570  107.9960 N.3   122  SER122     -0.1217
     64  CA        24.0030   27.3630  108.9180 C.3   122  SER122      0.1889
     65  C         24.0240   28.9010  108.8950 C.2   122  SER122      0.2288
     66  O         24.5290   29.5190  109.8310 O.2   122  SER122     -0.2866
     67  CB        25.4090   26.8210  108.6340 C.3   122  SER122      0.2089
     68  OG        25.7440   26.9690  107.2660 O.3   122  SER122     -0.2183
     69  N         23.1290   33.7110  111.9180 N.3   126  ASN126     -0.1240
     70  CA        24.5920   33.7300  111.9670 C.3   126  ASN126      0.1653
     71  C         25.1170   34.5760  110.8040 C.2   126  ASN126      0.2266
     72  O         25.3400   34.0730  109.6980 O.2   126  ASN126     -0.2867
     73  CB        25.1500   32.2980  111.9320 C.3   126  ASN126      0.1155
     74  CG        26.6090   32.2160  112.3660 C.2   126  ASN126      0.2627
     75  OD1       27.3740   33.1760  112.2430 O.2   126  ASN126     -0.2716
     76  ND2       27.0030   31.0520  112.8690 N.am  126  ASN126     -0.0877
     77  N         28.6720   33.6230  109.3210 N.3   129  VAL129     -0.1245
     78  CA        28.5980   32.5810  108.2880 C.3   129  VAL129      0.1561
     79  C         28.1580   33.1780  106.9400 C.2   129  VAL129      0.2260
     80  O         28.6790   32.7910  105.8890 O.2   129  VAL129     -0.2867
     81  CB        27.6640   31.4170  108.7220 C.3   129  VAL129      0.0252
     82  CG1       27.3920   30.4480  107.5770 C.3   129  VAL129      0.0019
     83  CG2       28.2710   30.6580  109.8950 C.3   129  VAL129      0.0019
@<TRIPOS>BOND
     1    62    61   ar
     2    62    60   ar
     3    61    59   ar
     4    59    58   ar
     5    49    50    1
     6    60    58   ar
     7    56    55    2
     8    58    57    1
     9    55    54    1
    10    50    51    1
    11    53    54    1
    12    53    51   am
    13    80    79    2
    14    54    57    1
    15    51    52    2
    16    79    78    1
    17    68    67    1
    18    82    81    1
    19    63    64    1
    20    78    81    1
    21    78    77    1
    22    44    43    2
    23    67    64    1
    24    81    83    1
    25    65    64    1
    26    65    66    2
    27    43    42    1
    28     1     2    1
    29    72    71    2
    30     2     3    1
    31     2     5    1
    32    42    41    1
    33    42    45    1
    34     3     4    2
    35    71    70    1
    36    41    37   am
    37    47    46    2
    38    39    40    1
    39    39    36    1
    40     5     6    1
    41    45    46    1
    42     8     6   ar
    43     8    10   ar
    44    46    48   am
    45    37    36    1
    46    37    38    2
    47    12    13    1
    48    69    70    1
    49    73    70    1
    50    73    74    1
    51     6     7   ar
    52    14    15    2
    53    14    13    1
    54    36    35    1
    55    75    74    2
    56    10    11   ar
    57    74    76   am
    58    13    16    1
    59     7     9   ar
    60    11     9   ar
    61    29    28    2
    62    35    28   am
    63    28    27    1
    64    16    17    1
    65    16    18    1
    66    27    26    1
    67    27    30    1
    68    26    21   am
    69    30    31    1
    70    19    25    1
    71    19    20    1
    72    25    24    1
    73    21    20    1
    74    21    22    2
    75    33    34    1
    76    33    32    1
    77    20    23    1
    78    31    32    1
    79    24    23    1
