@<TRIPOS>MOLECULE
tmp/6fawA01.pdb
 85 78 0 0 0
SMALL
GASTEIGER

@<TRIPOS>ATOM
      1  N          2.8150   -8.8980   -1.1680 N.3    47  ASN47      -0.1240
      2  CA         3.0580   -8.6740   -2.5790 C.3    47  ASN47       0.1653
      3  C          2.7210   -7.2460   -2.9850 C.2    47  ASN47       0.2266
      4  O          3.4320   -6.6650   -3.7920 O.2    47  ASN47      -0.2867
      5  CB         2.2330   -9.6560   -3.4040 C.3    47  ASN47       0.1155
      6  CG         2.7280  -11.0450   -3.3020 C.2    47  ASN47       0.2627
      7  OD1        3.8970  -11.2680   -3.0240 O.2    47  ASN47      -0.2716
      8  ND2        1.8370  -12.0190   -3.5510 N.am   47  ASN47      -0.0877
      9  N          5.6240   -5.0530   -1.8630 N.3    50  SER50      -0.1202
     10  CA         6.7930   -5.2780   -2.6940 C.3    50  SER50       0.2020
     11  C          6.6310   -4.6290   -4.0710 C.2    50  SER50       0.2618
     12  O          7.5550   -3.9870   -4.5620 O.2    50  SER50      -0.2717
     13  CB         7.0420   -6.7830   -2.7940 C.3    50  SER50       0.2103
     14  OG         8.0990   -7.0460   -3.6930 O.3    50  SER50      -0.2182
     15  N          5.4850   -4.8310   -4.7260 N.am   51  VAL51      -0.1979
     16  CA         5.2680   -4.2490   -6.0550 C.3    51  VAL51       0.1595
     17  C          5.3650   -2.7290   -5.9730 C.2    51  VAL51       0.2287
     18  O          5.9430   -2.0750   -6.8440 O.2    51  VAL51      -0.2864
     19  CB         3.8940   -4.7070   -6.6040 C.3    51  VAL51       0.0276
     20  CG1        3.4590   -3.8700   -7.8260 C.3    51  VAL51       0.0022
     21  CG2        3.9100   -6.1940   -6.9730 C.3    51  VAL51       0.0022
     22  N          9.0150   -1.6860   -5.4410 N.3    54  LYS54      -0.1245
     23  CA         9.8050   -2.0740   -6.6110 C.3    54  LYS54       0.1561
     24  C          9.6570   -1.0480   -7.7100 C.2    54  LYS54       0.2260
     25  O         10.6340   -0.6650   -8.3610 O.2    54  LYS54      -0.2867
     26  CB         9.3500   -3.4300   -7.1510 C.3    54  LYS54       0.0271
     27  CG         9.8580   -3.7410   -8.5820 C.3    54  LYS54       0.0035
     28  CD         9.1780   -4.9630   -9.2000 C.3    54  LYS54       0.0206
     29  CE         9.1870   -4.9260  -10.7420 C.3    54  LYS54       0.1093
     30  NZ        10.5450   -4.8680  -11.3470 N.3    54  LYS54      -0.1314
     31  N         10.5550  -14.0680    2.7650 N.3   116  PHE116     -0.1241
     32  CA        10.1670  -12.9650    1.8990 C.3   116  PHE116      0.1605
     33  C         10.8240  -11.6670    2.3550 C.2   116  PHE116      0.2264
     34  O         11.3750  -10.9130    1.5420 O.2   116  PHE116     -0.2867
     35  CB         8.6360  -12.8600    1.9180 C.3   116  PHE116      0.0534
     36  CG         8.0800  -11.7860    1.0500 C.ar  116  PHE116     -0.0203
     37  CD1        8.0670  -10.4640    1.4550 C.ar  116  PHE116     -0.0042
     38  CD2        7.5540  -12.0980   -0.1890 C.ar  116  PHE116     -0.0042
     39  CE1        7.5390   -9.4850    0.6490 C.ar  116  PHE116     -0.0003
     40  CE2        7.0030  -11.1140   -0.9920 C.ar  116  PHE116     -0.0003
     41  CZ         7.0070   -9.8150   -0.5790 C.ar  116  PHE116     -0.0000
     42  N         14.7830  -11.6980    2.1690 N.3   119  LYS119     -0.1245
     43  CA        15.1300  -11.4660    0.7710 C.3   119  LYS119      0.1561
     44  C         14.9940   -9.9900    0.4190 C.2   119  LYS119      0.2260
     45  O         15.8660   -9.4150   -0.2330 O.2   119  LYS119     -0.2867
     46  CB        14.2380  -12.3160   -0.1270 C.3   119  LYS119      0.0271
     47  CG        14.4150  -12.0270   -1.6270 C.3   119  LYS119      0.0035
     48  CD        13.3400  -12.6860   -2.4580 C.3   119  LYS119      0.0206
     49  CE        13.1740  -12.0160   -3.7800 C.3   119  LYS119      0.1093
     50  NZ        12.6820  -10.6320   -3.6240 N.3   119  LYS119     -0.1314
     51  N          8.1210  -21.0030   -4.9340 N.3   164  PRO164     -0.2102
     52  CA         8.4960  -19.8300   -5.7390 C.3   164  PRO164      0.1504
     53  C          9.2670  -18.7660   -4.9730 C.2   164  PRO164      0.2575
     54  O         10.0900  -18.0820   -5.5820 O.2   164  PRO164     -0.2718
     55  CB         7.1500  -19.3270   -6.2920 C.3   164  PRO164      0.0282
     56  CG         6.2870  -20.5470   -6.3200 C.3   164  PRO164      0.0208
     57  CD         6.6860  -21.3450   -5.1160 C.3   164  PRO164      0.0893
     58  N          8.9840  -18.5710   -3.6860 N.am  165  ILE165     -0.1980
     59  CA         9.7200  -17.5790   -2.9050 C.3   165  ILE165      0.1595
     60  C         11.1650  -18.0080   -2.7450 C.2   165  ILE165      0.2287
     61  O         12.0800  -17.1950   -2.9060 O.2   165  ILE165     -0.2864
     62  CB         9.0170  -17.3230   -1.5580 C.3   165  ILE165      0.0276
     63  CG1        7.6160  -16.7020   -1.7860 C.3   165  ILE165      0.0022
     64  CG2        9.8850  -16.4430   -0.6650 C.3   165  ILE165      0.0022
     65  CD1        6.7960  -16.6440   -0.5300 C.3   165  ILE165      0.0001
     66  N         12.8560  -17.3840   -6.1500 N.3   168  GLY168     -0.1225
     67  CA        13.1460  -15.9830   -6.4060 C.3   168  GLY168      0.1811
     68  C         14.2740  -15.4580   -5.5450 C.2   168  GLY168      0.2280
     69  O         15.0420  -14.6070   -5.9810 O.2   168  GLY168     -0.2866
     70  N          9.6600  -19.0660  -12.5890 N.3   216  ILE216     -0.1245
     71  CA        10.8700  -18.5620  -11.9320 C.3   216  ILE216      0.1561
     72  C         12.0800  -19.3970  -12.3340 C.2   216  ILE216      0.2260
     73  O         13.1720  -18.8650  -12.5190 O.2   216  ILE216     -0.2867
     74  CB        10.7050  -18.4780  -10.4090 C.3   216  ILE216      0.0252
     75  CG1        9.4410  -17.6600  -10.0590 C.3   216  ILE216      0.0019
     76  CG2       11.9710  -17.8500   -9.7710 C.3   216  ILE216      0.0019
     77  CD1        9.2630  -17.4390   -8.6290 C.3   216  ILE216      0.0001
     78  N         13.4780  -17.9910  -15.4100 N.3   219  LEU219     -0.1245
     79  CA        14.3200  -16.8210  -15.1850 C.3   219  LEU219      0.1561
     80  C         15.7270  -17.2270  -14.7370 C.2   219  LEU219      0.2260
     81  O         16.7210  -16.6020  -15.1310 O.2   219  LEU219     -0.2867
     82  CB        13.6730  -15.8970  -14.1440 C.3   219  LEU219      0.0270
     83  CG        12.2720  -15.3710  -14.4750 C.3   219  LEU219      0.0019
     84  CD1       11.7560  -14.5760  -13.2890 C.3   219  LEU219      0.0001
     85  CD2       12.2780  -14.5150  -15.7430 C.3   219  LEU219      0.0001
@<TRIPOS>BOND
     1    85    83    1
     2    78    79    1
     3    79    80    1
     4    79    82    1
     5    81    80    2
     6    83    82    1
     7    83    84    1
     8    70    71    1
     9    73    72    2
    10    72    71    1
    11    71    74    1
    12    30    29    1
    13    29    28    1
    14    74    75    1
    15    74    76    1
    16    75    77    1
    17    28    27    1
    18    27    26    1
    19    25    24    2
    20    20    19    1
    21    24    23    1
    22    26    23    1
    23    21    19    1
    24    18    17    2
    25    23    22    1
    26    19    16    1
    27    67    66    1
    28    67    68    1
    29    56    55    1
    30    56    57    1
    31    55    52    1
    32    16    17    1
    33    16    15    1
    34    69    68    2
    35    52    53    1
    36    52    51    1
    37    54    53    2
    38    57    51    1
    39    53    58   am
    40    15    11   am
    41    12    11    2
    42    11    10    1
    43     4     3    2
    44    49    50    1
    45    49    48    1
    46    14    13    1
    47    58    59    1
    48     8     6   am
    49     5     6    1
    50     5     2    1
    51     6     7    2
    52     3     2    1
    53    61    60    2
    54    59    60    1
    55    59    62    1
    56    13    10    1
    57    10     9    1
    58     2     1    1
    59    48    47    1
    60    63    62    1
    61    63    65    1
    62    47    46    1
    63    62    64    1
    64    40    41   ar
    65    40    38   ar
    66    41    39   ar
    67    45    44    2
    68    38    36   ar
    69    46    43    1
    70    44    43    1
    71    39    37   ar
    72    43    42    1
    73    36    37   ar
    74    36    35    1
    75    34    33    2
    76    32    35    1
    77    32    33    1
    78    32    31    1
