@<TRIPOS>MOLECULE
tmp/6fazB00.pdb
 99 95 0 0 0
SMALL
GASTEIGER

@<TRIPOS>ATOM
      1  N         11.5810   20.7020   62.2020 N.3    89  ILE89      -0.1245
      2  CA        11.5590   19.6900   61.1580 C.3    89  ILE89       0.1561
      3  C         10.3910   18.7530   61.4310 C.2    89  ILE89       0.2260
      4  O         10.2990   18.1550   62.5070 O.2    89  ILE89      -0.2867
      5  CB        12.8830   18.9150   61.1500 C.3    89  ILE89       0.0252
      6  CG1       14.0700   19.8370   60.8260 C.3    89  ILE89       0.0019
      7  CG2       12.8200   17.7240   60.1750 C.3    89  ILE89       0.0019
      8  CD1       15.4180   19.2770   61.3270 C.3    89  ILE89       0.0001
      9  N         20.1860   19.5290   58.0450 N.3   101  LYS101     -0.1231
     10  CA        20.3880   18.8660   59.3190 C.3   101  LYS101      0.1678
     11  C         20.0870   19.8480   60.4470 C.2   101  LYS101      0.2434
     12  O         20.2330   21.0720   60.2830 O.2   101  LYS101     -0.2733
     13  CB        21.8210   18.3320   59.4090 C.3   101  LYS101      0.0284
     14  CG        22.1140   17.1760   58.4440 C.3   101  LYS101      0.0035
     15  CD        21.2840   15.9580   58.7790 C.3   101  LYS101      0.0206
     16  CE        21.6880   14.7490   57.9420 C.3   101  LYS101      0.1093
     17  NZ        21.4770   14.9650   56.4900 N.3   101  LYS101     -0.1314
     18  N         19.6300   19.3670   61.5940 N.am  102  PRO102     -0.2718
     19  CA        19.1990   20.2980   62.6420 C.3   102  PRO102      0.1535
     20  C         20.3480   21.1260   63.1910 C.2   102  PRO102      0.2599
     21  O         21.4850   20.6660   63.3110 O.2   102  PRO102     -0.2715
     22  CB        18.5890   19.3880   63.7140 C.3   102  PRO102      0.0310
     23  CG        19.1170   18.0310   63.4260 C.3   102  PRO102      0.0237
     24  CD        19.3940   17.9630   61.9620 C.3   102  PRO102      0.0939
     25  N         20.0300   22.3720   63.5400 N.am  103  PHE103     -0.1960
     26  CA        20.9850   23.2210   64.2330 C.3   103  PHE103      0.1771
     27  C         20.7360   23.3120   65.7320 C.2   103  PHE103      0.2619
     28  O         21.6060   23.8100   66.4470 O.2   103  PHE103     -0.2715
     29  CB        21.0590   24.6250   63.5960 C.3   103  PHE103      0.0574
     30  CG        19.7890   25.4370   63.7050 C.ar  103  PHE103     -0.0200
     31  CD1       19.5120   26.1730   64.8430 C.ar  103  PHE103     -0.0042
     32  CD2       18.8970   25.5030   62.6520 C.ar  103  PHE103     -0.0042
     33  CE1       18.3500   26.9170   64.9410 C.ar  103  PHE103     -0.0003
     34  CE2       17.7510   26.2610   62.7400 C.ar  103  PHE103     -0.0003
     35  CZ        17.4850   26.9770   63.8760 C.ar  103  PHE103     -0.0000
     36  N         19.5880   22.8390   66.2170 N.am  104  MET104     -0.1963
     37  CA        19.2680   22.9080   67.6360 C.3   104  MET104      0.1736
     38  C         18.2280   21.8340   67.9610 C.2   104  MET104      0.2617
     39  O         17.3170   21.5740   67.1650 O.2   104  MET104     -0.2715
     40  CB        18.7480   24.3150   68.0140 C.3   104  MET104      0.0427
     41  CG        18.4820   24.5000   69.5050 C.3   104  MET104      0.0599
     42  SD        17.9450   26.1470   69.9640 S.3   104  MET104     -0.1393
     43  CE        19.3230   27.1290   69.4840 C.3   104  MET104      0.0692
     44  N         18.3760   21.2160   69.1340 N.am  105  SER105     -0.1950
     45  CA        17.4410   20.2120   69.6270 C.3   105  SER105      0.1924
     46  C         16.3330   20.8470   70.4610 C.2   105  SER105      0.2314
     47  O         16.5360   21.8590   71.1370 O.2   105  SER105     -0.2863
     48  CB        18.1750   19.2160   70.5190 C.3   105  SER105      0.2116
     49  OG        19.3570   18.7650   69.9040 O.3   105  SER105     -0.2180
     50  N         11.2120   14.3800   70.8200 N.3   214  SER214     -0.1202
     51  CA        12.5870   14.7830   70.5650 C.3   214  SER214      0.2020
     52  C         12.7180   15.1040   69.0850 C.2   214  SER214      0.2619
     53  O         12.4900   14.2390   68.2350 O.2   214  SER214     -0.2717
     54  CB        13.5390   13.6500   70.9530 C.3   214  SER214      0.2103
     55  OG        14.8640   14.0110   70.6510 O.3   214  SER214     -0.2182
     56  N         13.0820   16.3420   68.7790 N.am  215  LYS215     -0.1965
     57  CA        13.2090   16.7550   67.3930 C.3   215  LYS215      0.1728
     58  C         14.1970   17.9110   67.3130 C.2   215  LYS215      0.2616
     59  O         15.0110   18.1090   68.2200 O.2   215  LYS215     -0.2715
     60  CB        11.8260   17.0360   66.8140 C.3   215  LYS215      0.0311
     61  CG        11.0750   18.0460   67.5760 C.3   215  LYS215      0.0038
     62  CD         9.5820   17.9030   67.3270 C.3   215  LYS215      0.0206
     63  CE         8.8210   18.8990   68.1680 C.3   215  LYS215      0.1093
     64  NZ         7.3690   18.6950   68.0910 N.3   215  LYS215     -0.1314
     65  N         14.1470   18.6690   66.2230 N.am  216  GLY216     -0.1955
     66  CA        15.1080   19.7390   66.0180 C.3   216  GLY216      0.1869
     67  C         14.5500   20.8020   65.1080 C.2   216  GLY216      0.2309
     68  O         13.5570   20.5990   64.4070 O.2   216  GLY216     -0.2863
     69  N         25.8030   24.2020   58.4000 N.3   235  VAL235     -0.1231
     70  CA        25.2820   23.8590   59.7190 C.3   235  VAL235      0.1692
     71  C         26.1990   22.8550   60.3980 C.2   235  VAL235      0.2591
     72  O         26.5230   22.9880   61.5800 O.2   235  VAL235     -0.2718
     73  CB        23.8420   23.3150   59.6030 C.3   235  VAL235      0.0266
     74  CG1       23.3850   22.6710   60.9030 C.3   235  VAL235      0.0020
     75  CG2       22.8620   24.4350   59.2050 C.3   235  VAL235      0.0020
     76  N         26.6050   21.8130   59.6720 N.am  236  LEU236     -0.1980
     77  CA        27.4570   20.7980   60.2830 C.3   236  LEU236      0.1596
     78  C         28.8110   21.3700   60.6630 C.2   236  LEU236      0.2287
     79  O         29.3460   21.0500   61.7300 O.2   236  LEU236     -0.2864
     80  CB        27.6220   19.6040   59.3580 C.3   236  LEU236      0.0297
     81  CG        26.3360   18.8180   59.0700 C.3   236  LEU236      0.0022
     82  CD1       26.5980   17.7430   58.0450 C.3   236  LEU236      0.0001
     83  CD2       25.7370   18.2130   60.3310 C.3   236  LEU236      0.0001
     84  N         28.3830   23.4150   63.7830 N.3   239  ASN239     -0.1240
     85  CA        28.2250   22.5590   64.9550 C.3   239  ASN239      0.1653
     86  C         29.5640   22.0010   65.3890 C.2   239  ASN239      0.2266
     87  O         29.9170   22.0430   66.5700 O.2   239  ASN239     -0.2867
     88  CB        27.2440   21.4180   64.7020 C.3   239  ASN239      0.1155
     89  CG        26.8670   20.7260   65.9850 C.2   239  ASN239      0.2627
     90  OD1       26.5930   21.3900   66.9850 O.2   239  ASN239     -0.2716
     91  ND2       26.9050   19.4120   65.9910 N.am  239  ASN239     -0.0877
     92  N         27.6380   26.6250   67.3130 N.3   244  LEU244     -0.1245
     93  CA        26.2340   26.5540   67.7060 C.3   244  LEU244      0.1561
     94  C         26.0850   26.5270   69.2180 C.2   244  LEU244      0.2260
     95  O         25.1700   27.1560   69.7660 O.2   244  LEU244     -0.2867
     96  CB        25.5350   25.3560   67.0620 C.3   244  LEU244      0.0270
     97  CG        25.5490   25.3440   65.5310 C.3   244  LEU244      0.0019
     98  CD1       24.8200   24.1190   65.0180 C.3   244  LEU244      0.0001
     99  CD2       24.9590   26.6340   64.9340 C.3   244  LEU244      0.0001
@<TRIPOS>BOND
     1    17    16    1
     2    16    15    1
     3    82    81    1
     4     9    10    1
     5    69    70    1
     6    14    15    1
     7    14    13    1
     8    81    80    1
     9    81    83    1
    10    75    73    1
    11    10    13    1
    12    10    11    1
    13    80    77    1
    14    73    70    1
    15    73    74    1
    16    76    77    1
    17    76    71   am
    18    70    71    1
    19     7     5    1
    20    12    11    2
    21    77    78    1
    22    71    72    2
    23    11    18   am
    24    78    79    2
    25     6     5    1
    26     6     8    1
    27     5     2    1
    28     2     3    1
    29     2     1    1
    30     3     4    2
    31    18    24    1
    32    18    19    1
    33    24    23    1
    34    19    20    1
    35    19    22    1
    36    32    34   ar
    37    32    30   ar
    38    34    35   ar
    39    20    21    2
    40    20    25   am
    41    23    22    1
    42    25    26    1
    43    29    30    1
    44    29    26    1
    45    30    31   ar
    46    84    85    1
    47    35    33   ar
    48    26    27    1
    49    68    67    2
    50    88    85    1
    51    88    89    1
    52    31    33   ar
    53    99    97    1
    54    85    86    1
    55    98    97    1
    56    67    66    1
    57    86    87    2
    58    97    96    1
    59    27    36   am
    60    27    28    2
    61    89    91   am
    62    89    90    2
    63    66    65    1
    64    36    37    1
    65    65    58   am
    66    60    57    1
    67    60    61    1
    68    96    93    1
    69    39    38    2
    70    92    93    1
    71    58    57    1
    72    58    59    2
    73    62    61    1
    74    62    63    1
    75    57    56    1
    76    37    38    1
    77    37    40    1
    78    93    94    1
    79    38    44   am
    80    40    41    1
    81    64    63    1
    82    53    52    2
    83    56    52   am
    84    52    51    1
    85    44    45    1
    86    94    95    2
    87    43    42    1
    88    41    42    1
    89    45    46    1
    90    45    48    1
    91    49    48    1
    92    46    47    2
    93    51    50    1
    94    51    54    1
    95    55    54    1
