@<TRIPOS>MOLECULE
tmp/6fbaA01.pdb
 89 84 0 0 0
SMALL
GASTEIGER

@<TRIPOS>ATOM
      1  N         70.5830   35.6930 -126.8780 N.3    63  ARG63      -0.1231
      2  CA        70.5030   35.0400 -128.1790 C.3    63  ARG63       0.1694
      3  C         69.6160   35.6330 -129.2000 C.2    63  ARG63       0.2592
      4  O         69.9700   35.7190 -130.3700 O.2    63  ARG63      -0.2718
      5  CB        70.1620   33.5200 -128.0250 C.3    63  ARG63       0.0321
      6  CG        71.2390   32.8410 -127.2280 C.3    63  ARG63       0.0489
      7  CD        70.7860   31.4590 -126.7460 C.3    63  ARG63       0.2205
      8  NE        71.7780   30.7560 -125.9940 N.pl3  63  ARG63      -0.0865
      9  CZ        72.1840   31.0550 -124.7580 C.cat  63  ARG63       0.5346
     10  NH1       71.6440   32.0650 -124.1150 N.pl3  63  ARG63       0.1354
     11  NH2       73.1330   30.3030 -124.1600 N.pl3  63  ARG63       0.1354
     12  N         68.4140   36.0060 -128.7990 N.am   64  THR64      -0.1953
     13  CA        67.4680   36.5970 -129.7610 C.3    64  THR64       0.1897
     14  C         67.9450   38.0070 -130.1400 C.2    64  THR64       0.2313
     15  O         67.8910   38.4150 -131.2940 O.2    64  THR64      -0.2863
     16  CB        66.0300   36.6850 -129.1510 C.3    64  THR64       0.1794
     17  OG1       65.6790   35.4100 -128.5650 O.3    64  THR64      -0.2208
     18  CG2       65.0640   37.1240 -130.2270 C.3    64  THR64       0.0378
     19  N         70.6670   37.5660 -132.5320 N.3    67  SER67      -0.1217
     20  CA        70.1530   37.1750 -133.8670 C.3    67  SER67       0.1889
     21  C         69.7240   38.3410 -134.6980 C.2    67  SER67       0.2288
     22  O         70.0240   38.4140 -135.8960 O.2    67  SER67      -0.2866
     23  CB        68.9840   36.1800 -133.7570 C.3    67  SER67       0.2089
     24  OG        69.3810   35.1640 -132.7850 O.3    67  SER67      -0.2183
     25  N         55.3990   35.5040 -131.2990 N.3   141  HIS141     -0.1241
     26  CA        56.7810   35.5290 -131.6590 C.3   141  HIS141      0.1621
     27  C         56.8310   35.3180 -133.1430 C.2   141  HIS141      0.2264
     28  O         57.1950   34.2770 -133.6370 O.2   141  HIS141     -0.2867
     29  CB        57.5230   34.4450 -130.9150 C.3   141  HIS141      0.0745
     30  CG        59.0050   34.6440 -130.9290 C.ar  141  HIS141      0.0817
     31  ND1       59.5970   35.5390 -131.7820 N.ar  141  HIS141     -0.2268
     32  CD2       59.9920   34.0970 -130.1840 C.ar  141  HIS141      0.1154
     33  CE1       60.9010   35.5210 -131.5750 C.ar  141  HIS141      0.1986
     34  NE2       61.1550   34.6510 -130.6090 N.ar  141  HIS141     -0.2212
     35  N         60.1000   34.0620 -135.1940 N.3   144  GLN144     -0.1245
     36  CA        60.2700   32.6320 -134.9540 C.3   144  GLN144      0.1566
     37  C         59.3240   31.7490 -135.8070 C.2   144  GLN144      0.2260
     38  O         59.7860   30.8190 -136.4110 O.2   144  GLN144     -0.2867
     39  CB        60.1810   32.3110 -133.5050 C.3   144  GLN144      0.0367
     40  CG        60.6290   30.8920 -133.2300 C.3   144  GLN144      0.0905
     41  CD        62.1500   30.7120 -133.2810 C.2   144  GLN144      0.2608
     42  OE1       62.8920   31.5210 -132.6810 O.2   144  GLN144     -0.2717
     43  NE2       62.6180   29.6370 -133.9870 N.am  144  GLN144     -0.0878
     44  N         60.4660   31.7870 -139.4480 N.3   147  LEU147     -0.1245
     45  CA        61.6970   31.0230 -139.7510 C.3   147  LEU147      0.1561
     46  C         61.4320   29.5220 -139.6180 C.2   147  LEU147      0.2260
     47  O         61.9590   28.7670 -140.3400 O.2   147  LEU147     -0.2867
     48  CB        62.9550   31.5010 -138.9470 C.3   147  LEU147      0.0270
     49  CG        63.0750   31.0930 -137.5030 C.3   147  LEU147      0.0019
     50  CD1       63.7320   29.7270 -137.2860 C.3   147  LEU147      0.0001
     51  CD2       63.7530   32.1340 -136.6370 C.3   147  LEU147      0.0001
     52  N         63.5130   25.3290 -131.2690 N.3   281  PRO281     -0.2102
     53  CA        63.8050   26.7720 -131.4460 C.3   281  PRO281      0.1504
     54  C         65.1520   27.2320 -130.8480 C.2   281  PRO281      0.2576
     55  O         65.6650   28.2790 -131.2710 O.2   281  PRO281     -0.2718
     56  CB        62.5860   27.4470 -130.8050 C.3   281  PRO281      0.0282
     57  CG        62.2150   26.5290 -129.7020 C.3   281  PRO281      0.0208
     58  CD        62.3910   25.1450 -130.3040 C.3   281  PRO281      0.0893
     59  N         65.7200   26.4450 -129.9420 N.am  282  LEU282     -0.1967
     60  CA        67.0730   26.6100 -129.3510 C.3   282  LEU282      0.1713
     61  C         67.1230   27.7380 -128.3520 C.2   282  LEU282      0.2458
     62  O         66.2180   28.5810 -128.3420 O.2   282  LEU282     -0.2730
     63  CB        68.2130   26.8000 -130.3660 C.3   282  LEU282      0.0310
     64  CG        68.3720   25.6240 -131.3180 C.3   282  LEU282      0.0022
     65  CD1       69.4570   25.9580 -132.3290 C.3   282  LEU282      0.0001
     66  CD2       68.5880   24.2920 -130.6600 C.3   282  LEU282      0.0001
     67  N         68.0710   27.7380 -127.4480 N.am  283  PRO283     -0.2727
     68  CA        69.0030   26.6470 -127.1910 C.3   283  PRO283      0.1402
     69  C         68.3890   25.3580 -126.6320 C.2   283  PRO283      0.2269
     70  O         67.4270   25.4160 -125.9290 O.2   283  PRO283     -0.2865
     71  CB        69.9030   27.2460 -126.1140 C.3   283  PRO283      0.0296
     72  CG        68.9760   28.0940 -125.3330 C.3   283  PRO283      0.0237
     73  CD        68.0580   28.6930 -126.3330 C.3   283  PRO283      0.0939
     74  N         68.0400   27.3020 -137.1700 N.3   304  ALA304     -0.1245
     75  CA        68.5690   28.5110 -136.5420 C.3   304  ALA304      0.1562
     76  C         69.3660   29.3460 -137.5290 C.2   304  ALA304      0.2260
     77  O         69.2630   30.5320 -137.5660 O.2   304  ALA304     -0.2867
     78  CB        69.3700   28.2010 -135.3000 C.3   304  ALA304      0.0290
     79  N         65.0540   36.8780 -140.9100 N.3   311  ARG311     -0.1245
     80  CA        65.1140   38.1730 -140.2760 C.3   311  ARG311      0.1563
     81  C         65.6620   39.2850 -141.2460 C.2   311  ARG311      0.2260
     82  O         65.0980   40.3530 -141.3000 O.2   311  ARG311     -0.2867
     83  CB        66.0040   38.1250 -139.0790 C.3   311  ARG311      0.0307
     84  CG        65.4570   37.2320 -138.0170 C.3   311  ARG311      0.0489
     85  CD        66.1050   37.3850 -136.6970 C.3   311  ARG311      0.2205
     86  NE        66.4150   36.0650 -136.2330 N.pl3 311  ARG311     -0.0865
     87  CZ        65.6470   35.3040 -135.4290 C.cat 311  ARG311      0.5346
     88  NH1       66.1600   34.1080 -135.1810 N.pl3 311  ARG311      0.1354
     89  NH2       64.3530   35.6650 -134.9110 N.pl3 311  ARG311      0.1354
@<TRIPOS>BOND
     1    82    81    2
     2    81    80    1
     3    79    80    1
     4    47    46    2
     5    80    83    1
     6    45    46    1
     7    45    44    1
     8    45    48    1
     9    83    84    1
    10    48    49    1
    11    84    85    1
    12    77    76    2
    13    76    75    1
    14    49    50    1
    15    49    51    1
    16    74    75    1
    17    85    86    1
    18    75    78    1
    19    38    37    2
    20    86    87    2
    21    22    21    2
    22    37    36    1
    23    87    88    1
    24    87    89    1
    25    35    36    1
    26    36    39    1
    27    21    20    1
    28    43    41   am
    29    20    23    1
    30    20    19    1
    31    23    24    1
    32    28    27    2
    33    39    40    1
    34    41    40    1
    35    41    42    2
    36    27    26    1
    37    65    64    1
    38    31    33   ar
    39    31    30   ar
    40    26    25    1
    41    26    29    1
    42    33    34   ar
    43    53    52    1
    44    53    54    1
    45    53    56    1
    46    64    66    1
    47    64    63    1
    48    15    14    2
    49    55    54    2
    50    52    58    1
    51    30    29    1
    52    30    32   ar
    53    54    59   am
    54    56    57    1
    55    34    32   ar
    56     4     3    2
    57    63    60    1
    58    58    57    1
    59    18    16    1
    60    14    13    1
    61    59    60    1
    62    13    16    1
    63    13    12    1
    64    60    61    1
    65     3    12   am
    66     3     2    1
    67    16    17    1
    68    61    62    2
    69    61    67   am
    70     2     5    1
    71     2     1    1
    72     5     6    1
    73    67    68    1
    74    67    73    1
    75     6     7    1
    76    68    69    1
    77    68    71    1
    78     7     8    1
    79    69    70    2
    80    73    72    1
    81    71    72    1
    82     8     9    2
    83     9    11    1
    84     9    10    1
