@<TRIPOS>MOLECULE
tmp/6fbdA00.pdb
 191 185 0 0 0
SMALL
GASTEIGER

@<TRIPOS>ATOM
      1  N         24.2570  -30.1970  -11.1740 N.3   280  ARG280     -0.1245
      2  CA        24.9680  -28.9940  -11.5620 C.3   280  ARG280      0.1563
      3  C         26.4440  -29.2990  -11.7900 C.2   280  ARG280      0.2260
      4  O         26.9850  -30.2960  -11.3070 O.2   280  ARG280     -0.2867
      5  CB        24.8470  -27.9200  -10.4840 C.3   280  ARG280      0.0307
      6  CG        23.5450  -27.1520  -10.4770 C.3   280  ARG280      0.0489
      7  CD        23.6790  -25.9630   -9.5630 C.3   280  ARG280      0.2205
      8  NE        22.6260  -24.9790   -9.7470 N.pl3 280  ARG280     -0.0865
      9  CZ        22.5770  -23.8210   -9.0980 C.cat 280  ARG280      0.5346
     10  NH1       23.5260  -23.5070   -8.2240 N.pl3 280  ARG280      0.1354
     11  NH2       21.5800  -22.9750   -9.3220 N.pl3 280  ARG280      0.1354
     12  N         21.8430  -15.5560  -20.1920 N.3   317  ASP317     -0.1225
     13  CA        21.3760  -15.9980  -18.8840 C.3   317  ASP317      0.1805
     14  C         19.8870  -16.2980  -18.9600 C.2   317  ASP317      0.2598
     15  O         19.1140  -15.4760  -19.4580 O.2   317  ASP317     -0.2718
     16  CB        21.6560  -14.9290  -17.8210 C.3   317  ASP317      0.1424
     17  CG        21.3730  -15.4140  -16.4140 C.2   317  ASP317      0.3668
     18  OD1       20.2380  -15.8620  -16.1490 O.co2 317  ASP317     -0.2456
     19  OD2       22.2950  -15.3530  -15.5740 O.co2 317  ASP317     -0.2456
     20  N         19.4910  -17.4720  -18.4740 N.am  318  TYR318     -0.1962
     21  CA        18.0830  -17.8410  -18.4830 C.3   318  TYR318      0.1771
     22  C         17.3060  -16.9890  -17.4880 C.2   318  TYR318      0.2620
     23  O         17.7860  -16.6820  -16.3910 O.2   318  TYR318     -0.2715
     24  CB        17.9010  -19.3190  -18.1420 C.3   318  TYR318      0.0574
     25  CG        18.2190  -20.2950  -19.2620 C.ar  318  TYR318     -0.0198
     26  CD1       17.3450  -20.4790  -20.3270 C.ar  318  TYR318     -0.0009
     27  CD2       19.3780  -21.0600  -19.2320 C.ar  318  TYR318     -0.0009
     28  CE1       17.6280  -21.3830  -21.3380 C.ar  318  TYR318      0.0417
     29  CE2       19.6660  -21.9650  -20.2330 C.ar  318  TYR318      0.0417
     30  CZ        18.7900  -22.1230  -21.2820 C.ar  318  TYR318      0.1957
     31  OH        19.0860  -23.0260  -22.2740 O.3   318  TYR318     -0.2866
     32  N         16.0910  -16.6160  -17.8780 N.am  319  SER319     -0.1936
     33  CA        15.2280  -15.7890  -17.0480 C.3   319  SER319      0.2055
     34  C         14.4480  -16.6670  -16.0780 C.2   319  SER319      0.2643
     35  O         13.7990  -17.6340  -16.4930 O.2   319  SER319     -0.2714
     36  CB        14.2690  -14.9830  -17.9230 C.3   319  SER319      0.2130
     37  OG        13.4140  -14.1670  -17.1420 O.3   319  SER319     -0.2179
     38  N         14.5270  -16.3360  -14.7890 N.am  320  GLN320     -0.1963
     39  CA        13.7120  -16.9730  -13.7530 C.3   320  GLN320      0.1733
     40  C         13.6580  -18.4830  -13.9600 C.2   320  GLN320      0.2616
     41  O         12.5950  -19.1080  -13.9300 O.2   320  GLN320     -0.2715
     42  CB        12.3040  -16.3770  -13.7400 C.3   320  GLN320      0.0408
     43  CG        12.2640  -14.8660  -13.9440 C.3   320  GLN320      0.0908
     44  CD        10.8540  -14.3320  -14.0790 C.2   320  GLN320      0.2608
     45  OE1       10.5460  -13.5950  -15.0180 O.2   320  GLN320     -0.2717
     46  NE2        9.9880  -14.6990  -13.1430 N.am  320  GLN320     -0.0878
     47  N         14.8350  -19.0730  -14.1710 N.am  321  ILE321     -0.1963
     48  CA        14.8960  -20.3960  -14.7910 C.3   321  ILE321      0.1727
     49  C         14.1410  -21.4250  -13.9540 C.2   321  ILE321      0.2616
     50  O         13.2420  -22.1140  -14.4540 O.2   321  ILE321     -0.2715
     51  CB        16.3600  -20.8150  -15.0400 C.3   321  ILE321      0.0290
     52  CG1       16.4280  -22.2460  -15.5870 C.3   321  ILE321      0.0022
     53  CG2       17.2220  -20.6770  -13.7860 C.3   321  ILE321      0.0023
     54  CD1       15.6620  -22.4470  -16.8840 C.3   321  ILE321      0.0001
     55  N         14.4770  -21.5390  -12.6670 N.am  322  GLU322     -0.1977
     56  CA        13.8790  -22.5910  -11.8520 C.3   322  GLU322      0.1602
     57  C         12.3850  -22.3780  -11.6410 C.2   322  GLU322      0.2287
     58  O         11.6650  -23.3530  -11.4080 O.2   322  GLU322     -0.2864
     59  CB        14.6120  -22.6990  -10.5090 C.3   322  GLU322      0.0415
     60  CG        15.9960  -23.3340  -10.6430 C.3   322  GLU322      0.1163
     61  CD        16.6270  -23.7520   -9.3210 C.2   322  GLU322      0.3649
     62  OE1       15.9290  -23.7710   -8.2830 O.co2 322  GLU322     -0.2457
     63  OE2       17.8370  -24.0640   -9.3260 O.co2 322  GLU322     -0.2457
     64  N         10.5140  -11.7970   -9.8770 N.3   346  HIS346     -0.1241
     65  CA        11.5740  -11.1350   -9.1240 C.3   346  HIS346      0.1621
     66  C         11.2960   -9.6430   -8.9990 C.2   346  HIS346      0.2264
     67  O         11.3930   -9.0680   -7.9090 O.2   346  HIS346     -0.2867
     68  CB        12.9270  -11.3780   -9.7940 C.3   346  HIS346      0.0745
     69  CG        13.3630  -12.8100   -9.7730 C.ar  346  HIS346      0.0817
     70  ND1       12.7340  -13.7690   -9.0090 N.ar  346  HIS346     -0.2268
     71  CD2       14.3660  -13.4470  -10.4240 C.ar  346  HIS346      0.1154
     72  CE1       13.3310  -14.9340   -9.1880 C.ar  346  HIS346      0.1986
     73  NE2       14.3250  -14.7660  -10.0410 N.ar  346  HIS346     -0.2212
     74  N         16.3650   -5.9330   -7.2300 N.3   366  ARG366     -0.1231
     75  CA        15.8730   -7.1660   -7.8350 C.3   366  ARG366      0.1694
     76  C         16.6610   -8.3760   -7.3470 C.2   366  ARG366      0.2591
     77  O         16.0890   -9.4560   -7.1560 O.2   366  ARG366     -0.2718
     78  CB        15.9330   -7.0640   -9.3580 C.3   366  ARG366      0.0321
     79  CG        15.2390   -8.2110  -10.0670 C.3   366  ARG366      0.0489
     80  CD        15.0380   -7.9270  -11.5460 C.3   366  ARG366      0.2205
     81  NE        14.4150   -9.0590  -12.2260 N.pl3 366  ARG366     -0.0865
     82  CZ        15.0770  -10.1030  -12.7140 C.cat 366  ARG366      0.5346
     83  NH1       16.3970  -10.1720  -12.6090 N.pl3 366  ARG366      0.1354
     84  NH2       14.4170  -11.0850  -13.3110 N.pl3 366  ARG366      0.1354
     85  N         17.9730   -8.2230   -7.1510 N.am  367  ARG367     -0.1980
     86  CA        18.7590   -9.3020   -6.5610 C.3   367  ARG367      0.1597
     87  C         18.1910   -9.7060   -5.2080 C.2   367  ARG367      0.2287
     88  O         17.9130  -10.8850   -4.9620 O.2   367  ARG367     -0.2864
     89  CB        20.2180   -8.8770   -6.4070 C.3   367  ARG367      0.0334
     90  CG        20.9530   -8.6280   -7.7110 C.3   367  ARG367      0.0492
     91  CD        22.4410   -8.4530   -7.4640 C.3   367  ARG367      0.2205
     92  NE        23.0150   -9.6340   -6.8270 N.pl3 367  ARG367     -0.0865
     93  CZ        23.3560  -10.7440   -7.4730 C.cat 367  ARG367      0.5346
     94  NH1       23.1870  -10.8350   -8.7870 N.pl3 367  ARG367      0.1354
     95  NH2       23.8660  -11.7690   -6.8030 N.pl3 367  ARG367      0.1354
     96  N         15.2070  -11.6630   -5.5670 N.3   370  LYS370     -0.1231
     97  CA        15.4290  -13.0060   -6.0890 C.3   370  LYS370      0.1693
     98  C         15.7070  -13.9950   -4.9630 C.2   370  LYS370      0.2592
     99  O         15.1650  -15.1070   -4.9540 O.2   370  LYS370     -0.2718
    100  CB        16.5790  -12.9900   -7.0960 C.3   370  LYS370      0.0285
    101  CG        16.9680  -14.3650   -7.6000 C.3   370  LYS370      0.0035
    102  CD        18.1600  -14.9240   -6.8330 C.3   370  LYS370      0.0206
    103  CE        19.4720  -14.3720   -7.3680 C.3   370  LYS370      0.1093
    104  NZ        20.5740  -14.4760   -6.3630 N.3   370  LYS370     -0.1314
    105  N         16.5550  -13.6120   -4.0060 N.am  371  THR371     -0.1953
    106  CA        16.8260  -14.4840   -2.8680 C.3   371  THR371      0.1897
    107  C         15.5520  -14.7780   -2.0900 C.2   371  THR371      0.2313
    108  O         15.3310  -15.9120   -1.6480 O.2   371  THR371     -0.2863
    109  CB        17.8670  -13.8400   -1.9540 C.3   371  THR371      0.1794
    110  OG1       18.9810  -13.3990   -2.7420 O.3   371  THR371     -0.2208
    111  CG2       18.3480  -14.8310   -0.9000 C.3   371  THR371      0.0378
    112  N         13.2350  -17.4310   -3.9900 N.3   374  PHE374     -0.1227
    113  CA        13.7250  -18.8000   -3.8880 C.3   374  PHE374      0.1736
    114  C         13.8650  -19.2440   -2.4380 C.2   374  PHE374      0.2596
    115  O         13.6920  -20.4310   -2.1400 O.2   374  PHE374     -0.2718
    116  CB        15.0570  -18.9400   -4.6280 C.3   374  PHE374      0.0547
    117  CG        14.9380  -18.7540   -6.1160 C.ar  374  PHE374     -0.0202
    118  CD1       14.1780  -19.6310   -6.8770 C.ar  374  PHE374     -0.0042
    119  CD2       15.5790  -17.7040   -6.7550 C.ar  374  PHE374     -0.0042
    120  CE1       14.0580  -19.4640   -8.2470 C.ar  374  PHE374     -0.0003
    121  CE2       15.4630  -17.5340   -8.1270 C.ar  374  PHE374     -0.0003
    122  CZ        14.7020  -18.4150   -8.8700 C.ar  374  PHE374     -0.0000
    123  N         14.1640  -18.3190   -1.5270 N.am  375  GLY375     -0.1957
    124  CA        14.1520  -18.6670   -0.1160 C.3   375  GLY375      0.1869
    125  C         12.7960  -19.1750    0.3310 C.2   375  GLY375      0.2309
    126  O         12.6790  -20.2740    0.8790 O.2   375  GLY375     -0.2863
    127  N         11.7680  -22.7430   -1.2710 N.3   378  TYR378     -0.1241
    128  CA        12.4220  -23.9720   -0.8450 C.3   378  TYR378      0.1605
    129  C         12.4080  -24.1690    0.6670 C.2   378  TYR378      0.2264
    130  O         13.1880  -24.9800    1.1780 O.2   378  TYR378     -0.2867
    131  CB        13.8570  -24.0080   -1.3730 C.3   378  TYR378      0.0534
    132  CG        13.9320  -24.1190   -2.8800 C.ar  378  TYR378     -0.0201
    133  CD1       13.3960  -25.2180   -3.5390 C.ar  378  TYR378     -0.0009
    134  CD2       14.5400  -23.1310   -3.6440 C.ar  378  TYR378     -0.0009
    135  CE1       13.4580  -25.3280   -4.9150 C.ar  378  TYR378      0.0417
    136  CE2       14.6100  -23.2330   -5.0190 C.ar  378  TYR378      0.0417
    137  CZ        14.0670  -24.3340   -5.6500 C.ar  378  TYR378      0.1957
    138  OH        14.1310  -24.4410   -7.0220 O.3   378  TYR378     -0.2866
    139  N         13.9310  -29.8670   -3.8410 N.3   457  ASN457     -0.1240
    140  CA        14.7370  -28.8990   -4.5780 C.3   457  ASN457      0.1653
    141  C         15.4690  -29.5430   -5.7480 C.2   457  ASN457      0.2266
    142  O         15.6760  -28.8940   -6.7790 O.2   457  ASN457     -0.2867
    143  CB        15.7540  -28.2300   -3.6540 C.3   457  ASN457      0.1155
    144  CG        16.8380  -27.4840   -4.4230 C.2   457  ASN457      0.2627
    145  OD1       17.8350  -28.0740   -4.8450 O.2   457  ASN457     -0.2716
    146  ND2       16.6450  -26.1820   -4.6070 N.am  457  ASN457     -0.0877
    147  N         16.2620  -27.6540   -9.4050 N.3   461  GLN461     -0.1245
    148  CA        17.6420  -27.3000   -9.7180 C.3   461  GLN461      0.1566
    149  C         18.2530  -28.2950  -10.6950 C.2   461  GLN461      0.2260
    150  O         18.9880  -27.9070  -11.6100 O.2   461  GLN461     -0.2867
    151  CB        18.4700  -27.2330   -8.4350 C.3   461  GLN461      0.0367
    152  CG        19.9440  -26.9050   -8.6550 C.3   461  GLN461      0.0905
    153  CD        20.7280  -26.8410   -7.3580 C.2   461  GLN461      0.2608
    154  OE1       21.7790  -27.4670   -7.2260 O.2   461  GLN461     -0.2717
    155  NE2       20.2230  -26.0760   -6.3950 N.am  461  GLN461     -0.0878
    156  N         25.8960  -22.1340  -14.1320 N.3   491  HIS491     -0.1226
    157  CA        24.6450  -22.8030  -13.7920 C.3   491  HIS491      0.1752
    158  C         23.5240  -22.5130  -14.7830 C.2   491  HIS491      0.2596
    159  O         23.0580  -23.4290  -15.4670 O.2   491  HIS491     -0.2718
    160  CB        24.2520  -22.4220  -12.3680 C.3   491  HIS491      0.0759
    161  CG        25.3730  -22.6010  -11.3980 C.ar  491  HIS491      0.0818
    162  ND1       26.0740  -23.7830  -11.2970 N.ar  491  HIS491     -0.2268
    163  CD2       25.9540  -21.7420  -10.5280 C.ar  491  HIS491      0.1154
    164  CE1       27.0200  -23.6540  -10.3840 C.ar  491  HIS491      0.1986
    165  NE2       26.9700  -22.4250   -9.9040 N.ar  491  HIS491     -0.2212
    166  N         23.0790  -21.2590  -14.8750 N.am  492  ASP492     -0.1960
    167  CA        22.0060  -20.8920  -15.7930 C.3   492  ASP492      0.1840
    168  C         22.4560  -19.8310  -16.7870 C.2   492  ASP492      0.2621
    169  O         21.6200  -19.1240  -17.3610 O.2   492  ASP492     -0.2715
    170  CB        20.7840  -20.3960  -15.0220 C.3   492  ASP492      0.1450
    171  CG        20.8610  -18.9180  -14.7140 C.2   492  ASP492      0.3671
    172  OD1       21.9710  -18.4340  -14.4110 O.co2 492  ASP492     -0.2456
    173  OD2       19.8170  -18.2390  -14.7920 O.co2 492  ASP492     -0.2456
    174  N         23.7570  -19.7010  -17.0150 N.am  493  GLU493     -0.1977
    175  CA        24.2380  -18.6730  -17.9200 C.3   493  GLU493      0.1602
    176  C         25.5440  -19.1310  -18.5470 C.2   493  GLU493      0.2287
    177  O         26.2710  -19.9610  -17.9950 O.2   493  GLU493     -0.2864
    178  CB        24.4110  -17.3340  -17.1930 C.3   493  GLU493      0.0415
    179  CG        25.0730  -17.4680  -15.8450 C.3   493  GLU493      0.1163
    180  CD        25.2370  -16.1430  -15.1290 C.2   493  GLU493      0.3649
    181  OE1       24.3540  -15.7880  -14.3190 O.co2 493  GLU493     -0.2457
    182  OE2       26.2470  -15.4520  -15.3790 O.co2 493  GLU493     -0.2457
    183  N         26.6500   -8.1700  -19.5280 N.3   538  LYS538     -0.1245
    184  CA        25.4800   -8.6310  -18.7920 C.3   538  LYS538      0.1561
    185  C         24.5970   -7.4730  -18.3380 C.2   538  LYS538      0.2260
    186  O         23.7660   -7.6440  -17.4410 O.2   538  LYS538     -0.2867
    187  CB        25.9160   -9.4710  -17.5900 C.3   538  LYS538      0.0271
    188  CG        25.0210  -10.6700  -17.3170 C.3   538  LYS538      0.0035
    189  CD        25.4050  -11.3710  -16.0290 C.3   538  LYS538      0.0206
    190  CE        24.4560  -12.5160  -15.7230 C.3   538  LYS538      0.1093
    191  NZ        24.5840  -12.9860  -14.3170 N.3   538  LYS538     -0.1314
@<TRIPOS>BOND
     1    31    30    1
     2    28    30   ar
     3    28    26   ar
     4    30    29   ar
     5    26    25   ar
     6    29    27   ar
     7    12    13    1
     8   183   184    1
     9    15    14    2
    10    25    27   ar
    11    25    24    1
    12    14    13    1
    13    14    20   am
    14    13    16    1
    15   184   185    1
    16   184   187    1
    17   176   177    2
    18   176   175    1
    19    21    20    1
    20    21    24    1
    21    21    22    1
    22   185   186    2
    23    36    37    1
    24    36    33    1
    25   175   178    1
    26   175   174    1
    27    32    22   am
    28    32    33    1
    29    16    17    1
    30   187   188    1
    31    22    23    2
    32   169   168    2
    33   188   189    1
    34   178   179    1
    35    33    34    1
    36   174   168   am
    37    54    52    1
    38   168   167    1
    39    35    34    2
    40    17    18   ar
    41    17    19   ar
    42    34    38   am
    43   189   190    1
    44   179   180    1
    45   167   170    1
    46   167   166    1
    47   190   191    1
    48    52    51    1
    49   159   158    2
    50   182   180   ar
    51   180   181   ar
    52    51    48    1
    53    51    53    1
    54   170   171    1
    55    45    44    2
    56   166   158   am
    57   173   171   ar
    58    48    47    1
    59    48    49    1
    60    38    39    1
    61   158   157    1
    62   171   172   ar
    63    50    49    2
    64    47    40   am
    65   156   157    1
    66    44    43    1
    67    44    46   am
    68    40    41    2
    69    40    39    1
    70    49    55   am
    71    43    42    1
    72   157   160    1
    73    39    42    1
    74    84    82    1
    75    82    83    1
    76    82    81    2
    77    55    56    1
    78   160   161    1
    79    81    80    1
    80    56    57    1
    81    56    59    1
    82     3     2    1
    83     3     4    2
    84    57    58    2
    85   150   149    2
    86     2     1    1
    87     2     5    1
    88    80    79    1
    89   161   162   ar
    90   161   163   ar
    91   162   164   ar
    92   149   148    1
    93    60    59    1
    94    60    61    1
    95   163   165   ar
    96     5     6    1
    97     6     7    1
    98    71    73   ar
    99    71    69   ar
   100   164   165   ar
   101    79    78    1
   102    73    72   ar
   103    64    65    1
   104    68    69    1
   105    68    65    1
   106    69    70   ar
   107     8     7    1
   108     8     9    2
   109   148   147    1
   110   148   151    1
   111    78    75    1
   112    63    61   ar
   113    11     9    1
   114    61    62   ar
   115    72    70   ar
   116    65    66    1
   117     9    10    1
   118    66    67    2
   119   122   120   ar
   120   122   121   ar
   121    94    93    1
   122   152   151    1
   123   152   153    1
   124   120   118   ar
   125   121   119   ar
   126    75    76    1
   127    75    74    1
   128    90    91    1
   129    90    89    1
   130   101   100    1
   131   101   102    1
   132    93    92    2
   133    93    95    1
   134    91    92    1
   135   103   102    1
   136   103   104    1
   137   153   154    2
   138   153   155   am
   139    76    77    2
   140    76    85   am
   141    85    86    1
   142   100    97    1
   143   138   137    1
   144   118   117   ar
   145   142   141    2
   146   119   117   ar
   147    86    89    1
   148    86    87    1
   149   117   116    1
   150    97    96    1
   151    97    98    1
   152   141   140    1
   153   137   136   ar
   154   137   135   ar
   155    87    88    2
   156   136   134   ar
   157    98    99    2
   158    98   105   am
   159   135   133   ar
   160   145   144    2
   161   116   113    1
   162   146   144   am
   163   140   139    1
   164   140   143    1
   165   144   143    1
   166   105   106    1
   167   112   113    1
   168   113   114    1
   169   134   132   ar
   170   133   132   ar
   171   132   131    1
   172   106   107    1
   173   106   109    1
   174   110   109    1
   175   114   115    2
   176   114   123   am
   177   107   108    2
   178   109   111    1
   179   123   124    1
   180   131   128    1
   181   127   128    1
   182   128   129    1
   183   124   125    1
   184   125   126    2
   185   129   130    2
