@<TRIPOS>MOLECULE
tmp/6fbzA00.pdb
 128 125 0 0 0
SMALL
GASTEIGER

@<TRIPOS>ATOM
      1  N         77.9660   34.9940   12.4220 N.3    71  ASP71      -0.1239
      2  CA        77.9010   33.7030   13.1480 C.3    71  ASP71       0.1674
      3  C         77.1080   32.7010   12.3130 C.2    71  ASP71       0.2266
      4  O         76.2100   33.0780   11.5200 O.2    71  ASP71      -0.2867
      5  CB        77.0890   33.7810   14.4720 C.3    71  ASP71       0.1410
      6  CG        77.4790   34.9360   15.3340 C.2    71  ASP71       0.3668
      7  OD1       78.6120   35.0300   15.7870 O.co2  71  ASP71      -0.2456
      8  OD2       76.5780   35.7250   15.6420 O.co2  71  ASP71      -0.2456
      9  N         74.7750   29.2400   13.3610 N.3    73  HIS73      -0.1241
     10  CA        74.2460   28.4790   14.4780 C.3    73  HIS73       0.1621
     11  C         73.5060   27.2600   13.9280 C.2    73  HIS73       0.2264
     12  O         72.7290   27.3960   12.9910 O.2    73  HIS73      -0.2867
     13  CB        73.2250   29.3100   15.2520 C.3    73  HIS73       0.0745
     14  CG        73.4880   30.8040   15.3340 C.ar   73  HIS73       0.0817
     15  ND1       73.8410   31.4340   16.5060 N.ar   73  HIS73      -0.2268
     16  CD2       73.4430   31.7900   14.3830 C.ar   73  HIS73       0.1154
     17  CE1       73.9890   32.7410   16.2760 C.ar   73  HIS73       0.1986
     18  NE2       73.7490   32.9750   14.9950 N.ar   73  HIS73      -0.2212
     19  N         68.4480   30.3280   18.5250 N.3    81  PRO81      -0.2102
     20  CA        69.8220   30.3980   19.0690 C.3    81  PRO81       0.1504
     21  C         70.0660   31.6730   19.8470 C.2    81  PRO81       0.2576
     22  O         70.9410   32.4780   19.5220 O.2    81  PRO81      -0.2718
     23  CB        70.6940   30.2920   17.8210 C.3    81  PRO81       0.0282
     24  CG        69.9080   30.9340   16.8100 C.3    81  PRO81       0.0208
     25  CD        68.4610   30.4780   17.0850 C.3    81  PRO81       0.0893
     26  N         69.2030   31.9110   20.8040 N.am   82  GLU82      -0.1966
     27  CA        69.2410   33.1020   21.6340 C.3    82  GLU82       0.1733
     28  C         69.0150   32.6780   23.0680 C.2    82  GLU82       0.2616
     29  O         68.3050   31.7030   23.3590 O.2    82  GLU82      -0.2715
     30  CB        68.1010   34.0200   21.2800 C.3    82  GLU82       0.0429
     31  CG        68.0670   34.6020   19.9370 C.3    82  GLU82       0.1163
     32  CD        66.6300   35.1520   19.5910 C.2    82  GLU82       0.3649
     33  OE1       65.5660   34.5840   20.1150 O.co2  82  GLU82      -0.2457
     34  OE2       66.5820   36.1750   18.8500 O.co2  82  GLU82      -0.2457
     35  N         69.5830   33.4750   23.9520 N.am   83  TRP83      -0.1960
     36  CA        69.4600   33.2480   25.3890 C.3    83  TRP83       0.1771
     37  C         68.0230   33.3430   25.8710 C.2    83  TRP83       0.2619
     38  O         67.6500   32.6330   26.8000 O.2    83  TRP83      -0.2715
     39  CB        70.2650   34.3170   26.1510 C.3    83  TRP83       0.0590
     40  CG        71.7290   34.5780   25.6400 C.ar   83  TRP83       0.0006
     41  CD1       72.7060   33.6260   25.3830 C.ar   83  TRP83       0.0946
     42  CD2       72.3480   35.8560   25.3540 C.ar   83  TRP83       0.0152
     43  NE1       73.8870   34.2470   24.9750 N.ar   83  TRP83      -0.2442
     44  CE2       73.6900   35.5980   24.9260 C.ar   83  TRP83       0.0810
     45  CE3       71.9050   37.1900   25.4120 C.ar   83  TRP83       0.0012
     46  CZ2       74.5850   36.6260   24.5720 C.ar   83  TRP83       0.0191
     47  CZ3       72.8010   38.1990   25.0570 C.ar   83  TRP83       0.0001
     48  CH2       74.1210   37.9100   24.6480 C.ar   83  TRP83       0.0015
     49  N         67.1900   34.1420   25.2190 N.am   84  GLU84      -0.1977
     50  CA        65.8030   34.2960   25.6580 C.3    84  GLU84       0.1602
     51  C         64.9070   33.0920   25.3220 C.2    84  GLU84       0.2287
     52  O         63.8260   32.9600   25.9150 O.2    84  GLU84      -0.2864
     53  CB        65.2450   35.5580   25.0140 C.3    84  GLU84       0.0415
     54  CG        65.9940   36.7930   25.4060 C.3    84  GLU84       0.1163
     55  CD        67.1340   37.2670   24.4250 C.2    84  GLU84       0.3649
     56  OE1       67.7200   36.4760   23.6610 O.co2  84  GLU84      -0.2457
     57  OE2       67.4540   38.4950   24.4430 O.co2  84  GLU84      -0.2457
     58  N         76.8860   27.3230   27.7770 N.3    93  LYS93      -0.1245
     59  CA        77.6770   26.7670   26.6840 C.3    93  LYS93       0.1561
     60  C         79.0550   26.3100   27.1430 C.2    93  LYS93       0.2260
     61  O         79.6620   26.9140   28.0470 O.2    93  LYS93      -0.2867
     62  CB        77.8860   27.7510   25.5200 C.3    93  LYS93       0.0271
     63  CG        78.7390   29.0360   25.9310 C.3    93  LYS93       0.0035
     64  CD        78.8270   30.0190   24.8140 C.3    93  LYS93       0.0206
     65  CE        79.6420   31.2380   25.1690 C.3    93  LYS93       0.1093
     66  NZ        79.1570   32.0010   26.3860 N.3    93  LYS93      -0.1314
     67  N         77.4510   26.5870   17.7420 N.3   134  VAL134     -0.1245
     68  CA        77.6100   27.9610   17.2020 C.3   134  VAL134      0.1561
     69  C         79.0660   28.2450   16.8890 C.2   134  VAL134      0.2260
     70  O         79.9450   27.8750   17.6510 O.2   134  VAL134     -0.2867
     71  CB        77.1690   29.0090   18.2520 C.3   134  VAL134      0.0252
     72  CG1       77.2270   30.4210   17.6560 C.3   134  VAL134      0.0019
     73  CG2       75.9140   28.7790   18.8470 C.3   134  VAL134      0.0019
     74  N         81.3350   31.7030   16.0100 N.3   136  ASN136     -0.1240
     75  CA        81.3250   33.1640   16.0250 C.3   136  ASN136      0.1653
     76  C         82.5860   33.6350   15.3530 C.2   136  ASN136      0.2266
     77  O         83.6940   33.2400   15.7900 O.2   136  ASN136     -0.2867
     78  CB        81.3890   33.6950   17.5040 C.3   136  ASN136      0.1155
     79  CG        80.2610   33.1610   18.4160 C.2   136  ASN136      0.2627
     80  OD1       80.5130   32.4910   19.3960 O.2   136  ASN136     -0.2716
     81  ND2       79.0550   33.2590   17.9760 N.am  136  ASN136     -0.0877
     82  N         84.8990   36.7730   14.9440 N.3   138  ARG138     -0.1245
     83  CA        85.1430   38.0620   15.5540 C.3   138  ARG138      0.1563
     84  C         86.4910   38.6200   15.0850 C.2   138  ARG138      0.2260
     85  O         87.2690   37.9590   14.4100 O.2   138  ARG138     -0.2867
     86  CB        85.0940   37.8940   17.0900 C.3   138  ARG138      0.0307
     87  CG        83.7560   37.3010   17.6570 C.3   138  ARG138      0.0489
     88  CD        82.6790   38.3750   17.5030 C.3   138  ARG138      0.2205
     89  NE        81.4290   37.8860   18.0270 N.pl3 138  ARG138     -0.0865
     90  CZ        80.5020   37.2360   17.3090 C.cat 138  ARG138      0.5346
     91  NH1       80.6600   36.9920   16.0150 N.pl3 138  ARG138      0.1354
     92  NH2       79.4090   36.8140   17.9260 N.pl3 138  ARG138      0.1354
     93  N         89.4850   36.6150   16.6840 N.3   141  PHE141     -0.1241
     94  CA        89.3380   35.1870   17.0060 C.3   141  PHE141      0.1605
     95  C         88.0780   34.5900   16.3670 C.2   141  PHE141      0.2264
     96  O         87.1530   35.2800   15.9510 O.2   141  PHE141     -0.2867
     97  CB        89.3020   35.0130   18.5230 C.3   141  PHE141      0.0534
     98  CG        88.1290   35.6850   19.2420 C.ar  141  PHE141     -0.0203
     99  CD1       88.1990   36.9920   19.6330 C.ar  141  PHE141     -0.0042
    100  CD2       86.9470   34.9950   19.4830 C.ar  141  PHE141     -0.0042
    101  CE1       87.0830   37.6160   20.2060 C.ar  141  PHE141     -0.0003
    102  CE2       85.8690   35.5820   20.1370 C.ar  141  PHE141     -0.0003
    103  CZ        85.9560   36.8990   20.5130 C.ar  141  PHE141     -0.0000
    104  N         85.2040   31.6420   17.7140 N.3   143  ARG143     -0.1245
    105  CA        84.7620   30.8720   18.8950 C.3   143  ARG143      0.1563
    106  C         83.8320   29.7720   18.4360 C.2   143  ARG143      0.2260
    107  O         82.9860   30.0060   17.5510 O.2   143  ARG143     -0.2867
    108  CB        84.0250   31.7490   19.9350 C.3   143  ARG143      0.0307
    109  CG        83.5760   31.0180   21.2280 C.3   143  ARG143      0.0489
    110  CD        82.5830   31.8870   22.1120 C.3   143  ARG143      0.2205
    111  NE        83.1510   33.1250   22.5260 N.pl3 143  ARG143     -0.0865
    112  CZ        82.7860   34.3160   22.0930 C.cat 143  ARG143      0.5346
    113  NH1       81.8690   34.5130   21.1590 N.pl3 143  ARG143      0.1354
    114  NH2       83.3600   35.3460   22.6290 N.pl3 143  ARG143      0.1354
    115  N         75.8730   24.8280   22.9420 N.3   147  TRP147     -0.1241
    116  CA        74.8830   25.3520   23.8820 C.3   147  TRP147      0.1605
    117  C         74.1050   24.2230   24.5070 C.2   147  TRP147      0.2264
    118  O         73.6720   23.2790   23.8460 O.2   147  TRP147     -0.2867
    119  CB        73.9030   26.2900   23.1670 C.3   147  TRP147      0.0550
    120  CG        74.4270   27.6360   22.8500 C.ar  147  TRP147      0.0003
    121  CD1       75.7370   28.0080   22.5840 C.ar  147  TRP147      0.0946
    122  CD2       73.6770   28.8550   22.8200 C.ar  147  TRP147      0.0152
    123  NE1       75.8370   29.3810   22.4050 N.ar  147  TRP147     -0.2442
    124  CE2       74.6040   29.9250   22.5730 C.ar  147  TRP147      0.0810
    125  CE3       72.3200   29.1820   23.0200 C.ar  147  TRP147      0.0012
    126  CZ2       74.2200   31.2460   22.4700 C.ar  147  TRP147      0.0191
    127  CZ3       71.9590   30.5550   22.9290 C.ar  147  TRP147      0.0001
    128  CH2       72.9070   31.5310   22.6290 C.ar  147  TRP147      0.0015
@<TRIPOS>BOND
     1     4     3    2
     2     3     2    1
     3     1     2    1
     4    12    11    2
     5     2     5    1
     6     9    10    1
     7    11    10    1
     8    16    18   ar
     9    16    14   ar
    10    85    84    2
    11     5     6    1
    12    10    13    1
    13    82    83    1
    14    18    17   ar
    15    84    83    1
    16    13    14    1
    17    14    15   ar
    18     6     8   ar
    19     6     7   ar
    20    76    77    2
    21    76    75    1
    22    83    86    1
    23    96    95    2
    24    74    75    1
    25    91    90    1
    26    75    78    1
    27    17    15   ar
    28    95    94    1
    29    93    94    1
    30    24    25    1
    31    24    23    1
    32    69    68    1
    33    69    70    2
    34    94    97    1
    35    25    19    1
    36    86    87    1
    37    68    67    1
    38    68    71    1
    39    90    92    1
    40    90    89    2
    41    88    87    1
    42    88    89    1
    43    78    79    1
    44   107   106    2
    45    72    71    1
    46   104   105    1
    47    23    20    1
    48    81    79   am
    49    71    73    1
    50    79    80    2
    51   106   105    1
    52    97    98    1
    53    19    20    1
    54    34    32   ar
    55   105   108    1
    56    20    21    1
    57    98   100   ar
    58    98    99   ar
    59   100   102   ar
    60    22    21    2
    61    32    31    1
    62    32    33   ar
    63    99   101   ar
    64    21    26   am
    65   108   109    1
    66    31    30    1
    67   102   103   ar
    68   101   103   ar
    69    26    27    1
    70   113   112    1
    71   109   110    1
    72    30    27    1
    73    27    28    1
    74   112   111    2
    75   112   114    1
    76   110   111    1
    77   123   124   ar
    78   123   121   ar
    79   126   124   ar
    80   126   128   ar
    81   124   122   ar
    82   121   120   ar
    83   128   127   ar
    84   122   120   ar
    85   122   125   ar
    86   120   119    1
    87   127   125   ar
    88   115   116    1
    89    28    29    2
    90    28    35   am
    91   119   116    1
    92    56    55   ar
    93   118   117    2
    94   116   117    1
    95    35    36    1
    96    55    57   ar
    97    55    54    1
    98    46    48   ar
    99    46    44   ar
   100    48    47   ar
   101    64    65    1
   102    64    63    1
   103    44    43   ar
   104    44    42   ar
   105    43    41   ar
   106    53    54    1
   107    53    50    1
   108    47    45   ar
   109    65    66    1
   110    49    50    1
   111    49    37   am
   112    51    50    1
   113    51    52    2
   114    42    45   ar
   115    42    40   ar
   116    41    40   ar
   117    36    37    1
   118    36    39    1
   119    62    63    1
   120    62    59    1
   121    40    39    1
   122    37    38    2
   123    59    60    1
   124    59    58    1
   125    60    61    2
