@<TRIPOS>MOLECULE
tmp/6fc1A00.pdb
 129 127 0 0 0
SMALL
GASTEIGER

@<TRIPOS>ATOM
      1  N        -11.8800   60.9130   26.3770 N.3    33  TRP33      -0.1241
      2  CA       -11.9060   60.4200   27.7490 C.3    33  TRP33       0.1605
      3  C        -10.6010   60.7170   28.4640 C.2    33  TRP33       0.2264
      4  O        -10.6100   61.2000   29.6000 O.2    33  TRP33      -0.2867
      5  CB       -12.1960   58.9140   27.7270 C.3    33  TRP33       0.0550
      6  CG       -12.0200   58.2280   29.0550 C.ar   33  TRP33       0.0003
      7  CD1      -10.9460   57.5020   29.4370 C.ar   33  TRP33       0.0946
      8  CD2      -12.9100   58.2450   30.1740 C.ar   33  TRP33       0.0152
      9  NE1      -11.0950   57.0440   30.7050 N.ar   33  TRP33      -0.2442
     10  CE2      -12.3060   57.4730   31.1870 C.ar   33  TRP33       0.0810
     11  CE3      -14.1730   58.8050   30.4060 C.ar   33  TRP33       0.0012
     12  CZ2      -12.9170   57.2390   32.4270 C.ar   33  TRP33       0.0191
     13  CZ3      -14.7790   58.5940   31.6270 C.ar   33  TRP33       0.0001
     14  CH2      -14.1450   57.8150   32.6390 C.ar   33  TRP33       0.0015
     15  N        -22.9500   64.6270   32.0290 N.3    65  LYS65      -0.1245
     16  CA       -21.8450   63.8460   31.4980 C.3    65  LYS65       0.1561
     17  C        -20.5940   63.9260   32.3660 C.2    65  LYS65       0.2260
     18  O        -19.5490   63.3410   31.9920 O.2    65  LYS65      -0.2867
     19  CB       -21.5730   64.1580   30.0220 C.3    65  LYS65       0.0271
     20  CG       -22.5520   63.4550   29.1350 C.3    65  LYS65       0.0035
     21  CD       -22.2380   61.9550   29.0700 C.3    65  LYS65       0.0206
     22  CE       -21.0930   61.6500   28.0790 C.3    65  LYS65       0.1093
     23  NZ       -20.8670   60.1700   27.9690 N.3    65  LYS65      -0.1314
     24  N        -18.5930   62.8430   36.0170 N.3    67  ASP67      -0.1239
     25  CA       -18.5390   61.7410   36.9780 C.3    67  ASP67       0.1674
     26  C        -17.6650   62.1550   38.1480 C.2    67  ASP67       0.2266
     27  O        -16.6370   62.8200   37.9670 O.2    67  ASP67      -0.2867
     28  CB       -17.8980   60.4070   36.4370 C.3    67  ASP67       0.1410
     29  CG       -18.4630   59.8690   35.1290 C.2    67  ASP67       0.3668
     30  OD1      -19.6390   59.5030   35.0910 O.co2  67  ASP67      -0.2456
     31  OD2      -17.6180   59.6540   34.2160 O.co2  67  ASP67      -0.2456
     32  N        -15.3520   59.8730   40.8240 N.3    69  HIS69      -0.1241
     33  CA       -14.8650   58.5230   41.0760 C.3    69  HIS69       0.1621
     34  C        -14.0100   58.5620   42.3320 C.2    69  HIS69       0.2264
     35  O        -13.1680   59.4540   42.4870 O.2    69  HIS69      -0.2867
     36  CB       -13.9820   57.9970   39.9340 C.3    69  HIS69       0.0745
     37  CG       -14.3320   58.4700   38.5680 C.ar   69  HIS69       0.0817
     38  ND1      -14.7690   57.6220   37.5690 N.ar   69  HIS69      -0.2268
     39  CD2      -14.2270   59.7000   37.9950 C.ar   69  HIS69       0.1154
     40  CE1      -14.9250   58.3100   36.4540 C.ar   69  HIS69       0.1986
     41  NE2      -14.6150   59.5700   36.6960 N.ar   69  HIS69      -0.2212
     42  N         -9.6910   54.7910   37.5660 N.3    77  PRO77      -0.2102
     43  CA       -11.1170   54.4240   37.4290 C.3    77  PRO77       0.1504
     44  C        -11.4990   54.0490   35.9970 C.2    77  PRO77       0.2576
     45  O        -12.4140   54.6230   35.3960 O.2    77  PRO77      -0.2718
     46  CB       -11.8260   55.6960   37.9430 C.3    77  PRO77       0.0282
     47  CG       -10.9110   56.8000   37.4480 C.3    77  PRO77       0.0208
     48  CD        -9.5190   56.2560   37.6710 C.3    77  PRO77       0.0893
     49  N        -10.7870   53.0570   35.4490 N.am   78  GLU78      -0.1966
     50  CA       -10.8280   52.7030   34.0500 C.3    78  GLU78       0.1733
     51  C        -10.8530   51.1800   33.9490 C.2    78  GLU78       0.2616
     52  O        -10.1540   50.4880   34.7040 O.2    78  GLU78      -0.2715
     53  CB        -9.5640   53.2210   33.3380 C.3    78  GLU78       0.0429
     54  CG        -9.5630   54.6870   33.2570 C.3    78  GLU78       0.1163
     55  CD        -8.3620   55.2170   32.5270 C.2    78  GLU78       0.3649
     56  OE1       -7.2170   54.7120   32.7160 O.co2  78  GLU78      -0.2457
     57  OE2       -8.5870   56.0800   31.6860 O.co2  78  GLU78      -0.2457
     58  N        -11.6220   50.6720   32.9720 N.am   79  TRP79      -0.1960
     59  CA       -11.6940   49.2430   32.7260 C.3    79  TRP79       0.1771
     60  C        -10.3320   48.6630   32.3470 C.2    79  TRP79       0.2619
     61  O        -10.0910   47.4610   32.5670 O.2    79  TRP79      -0.2715
     62  CB       -12.6440   48.9830   31.5560 C.3    79  TRP79       0.0590
     63  CG       -13.9190   49.8030   31.4640 C.ar   79  TRP79       0.0006
     64  CD1      -14.8650   49.9350   32.4180 C.ar   79  TRP79       0.0946
     65  CD2      -14.3940   50.5430   30.3200 C.ar   79  TRP79       0.0152
     66  NE1      -15.8890   50.7370   31.9700 N.ar   79  TRP79      -0.2442
     67  CE2      -15.6270   51.1180   30.6810 C.ar   79  TRP79       0.0810
     68  CE3      -13.8870   50.7830   29.0520 C.ar   79  TRP79       0.0012
     69  CZ2      -16.3500   51.9420   29.8260 C.ar   79  TRP79       0.0191
     70  CZ3      -14.6160   51.5920   28.1920 C.ar   79  TRP79       0.0001
     71  CH2      -15.8410   52.1390   28.5780 C.ar   79  TRP79       0.0015
     72  N         -9.4440   49.4750   31.7510 N.am   80  GLU80      -0.1977
     73  CA        -8.1040   49.0360   31.3370 C.3    80  GLU80       0.1602
     74  C         -7.1290   48.8670   32.4960 C.2    80  GLU80       0.2287
     75  O         -6.0630   48.2670   32.3200 O.2    80  GLU80      -0.2864
     76  CB        -7.4890   50.0820   30.3950 C.3    80  GLU80       0.0415
     77  CG        -8.1750   50.2500   29.0950 C.3    80  GLU80       0.1163
     78  CD        -9.0230   51.4770   29.0910 C.2    80  GLU80       0.3649
     79  OE1       -9.6900   51.7400   30.1140 O.co2  80  GLU80      -0.2457
     80  OE2       -9.0050   52.1870   28.0640 O.co2  80  GLU80      -0.2457
     81  N        -18.9160   46.1520   37.3630 N.3    89  LYS89      -0.1245
     82  CA       -19.5570   47.1000   38.2710 C.3    89  LYS89       0.1561
     83  C        -20.9940   46.7240   38.5700 C.2    89  LYS89       0.2260
     84  O        -21.7430   46.3220   37.6800 O.2    89  LYS89      -0.2867
     85  CB       -19.5210   48.5760   37.7430 C.3    89  LYS89       0.0271
     86  CG       -20.2780   48.8090   36.4310 C.3    89  LYS89       0.0035
     87  CD       -20.1380   50.2760   35.9270 C.3    89  LYS89       0.0206
     88  CE       -21.0120   50.5020   34.7200 C.3    89  LYS89       0.1093
     89  NZ       -21.0030   51.9330   34.3090 N.3    89  LYS89      -0.1314
     90  N        -22.2810   58.9930   38.2660 N.3   130  SER130     -0.1217
     91  CA       -22.3610   59.4390   36.8810 C.3   130  SER130      0.1889
     92  C        -23.6140   60.2710   36.6910 C.2   130  SER130      0.2288
     93  O        -24.7320   59.8040   36.9480 O.2   130  SER130     -0.2866
     94  CB       -22.4330   58.2240   35.9510 C.3   130  SER130      0.2089
     95  OG       -21.2710   57.4430   36.0340 O.3   130  SER130     -0.2183
     96  N        -26.1960   61.8320   34.2570 N.3   132  ARG132     -0.1245
     97  CA       -26.6510   61.4700   32.9230 C.3   132  ARG132      0.1563
     98  C        -28.0920   61.9240   32.7300 C.2   132  ARG132      0.2260
     99  O        -28.8990   61.8870   33.6610 O.2   132  ARG132     -0.2867
    100  CB       -26.5680   59.9490   32.6760 C.3   132  ARG132      0.0307
    101  CG       -25.2000   59.3820   32.8030 C.3   132  ARG132      0.0489
    102  CD       -24.2660   59.8550   31.7240 C.3   132  ARG132      0.2205
    103  NE       -23.0250   59.0850   31.8360 N.pl3 132  ARG132     -0.0865
    104  CZ       -21.9760   59.4360   32.5570 C.cat 132  ARG132      0.5346
    105  NH1      -21.9680   60.5780   33.2320 N.pl3 132  ARG132      0.1354
    106  NH2      -20.9410   58.6200   32.6350 N.pl3 132  ARG132      0.1354
    107  N        -26.4460   57.7180   37.9980 N.3   137  LYS137     -0.1245
    108  CA       -26.0800   56.3480   38.3160 C.3   137  LYS137      0.1561
    109  C        -25.0570   56.3000   39.4380 C.2   137  LYS137      0.2260
    110  O        -24.1520   57.1420   39.5290 O.2   137  LYS137     -0.2867
    111  CB       -25.4950   55.6160   37.0800 C.3   137  LYS137      0.0271
    112  CG       -26.4080   55.6540   35.9160 C.3   137  LYS137      0.0035
    113  CD       -25.8930   54.8520   34.7460 C.3   137  LYS137      0.0206
    114  CE       -24.6510   55.4210   34.1540 C.3   137  LYS137      0.1093
    115  NZ       -24.2210   54.6270   32.9890 N.3   137  LYS137     -0.1314
    116  N        -17.3220   49.4170   41.6700 N.3   141  TRP141     -0.1241
    117  CA       -16.4130   48.7050   40.7780 C.3   141  TRP141      0.1605
    118  C        -15.6630   47.6300   41.5570 C.2   141  TRP141      0.2264
    119  O        -15.0450   47.9220   42.5830 O.2   141  TRP141     -0.2867
    120  CB       -15.4310   49.7040   40.1620 C.3   141  TRP141      0.0550
    121  CG       -15.9860   50.5250   39.0340 C.ar  141  TRP141      0.0003
    122  CD1      -17.2210   51.1620   38.9460 C.ar  141  TRP141      0.0946
    123  CD2      -15.3530   50.7230   37.7690 C.ar  141  TRP141      0.0152
    124  NE1      -17.3680   51.7160   37.6960 N.ar  141  TRP141     -0.2442
    125  CE2      -16.2150   51.5220   36.9830 C.ar  141  TRP141      0.0810
    126  CE3      -14.1000   50.3970   37.2630 C.ar  141  TRP141      0.0012
    127  CZ2      -15.8840   51.9080   35.6840 C.ar  141  TRP141      0.0191
    128  CZ3      -13.7670   50.8070   36.0010 C.ar  141  TRP141      0.0001
    129  CH2      -14.6510   51.5830   35.2320 C.ar  141  TRP141      0.0015
@<TRIPOS>BOND
     1     1     2    1
     2     5     2    1
     3     5     6    1
     4     2     3    1
     5    23    22    1
     6    80    78   ar
     7    22    21    1
     8    70    71   ar
     9    70    68   ar
    10     3     4    2
    11    71    69   ar
    12    68    65   ar
    13     6     7   ar
    14     6     8   ar
    15    21    20    1
    16    78    77    1
    17    78    79   ar
    18    77    76    1
    19    20    19    1
    20     7     9   ar
    21    69    67   ar
    22    19    16    1
    23     8    11   ar
    24     8    10   ar
    25    65    67   ar
    26    65    63   ar
    27    76    73    1
    28    11    13   ar
    29    67    66   ar
    30     9    10   ar
    31    10    12   ar
    32    73    72    1
    33    73    74    1
    34    63    62    1
    35    63    64   ar
    36    16    15    1
    37    16    17    1
    38    62    59    1
    39    13    14   ar
    40    57    55   ar
    41   102   103    1
    42   102   101    1
    43    72    60   am
    44   103   104    2
    45    66    64   ar
    46    18    17    2
    47    75    74    2
    48    60    61    2
    49    60    59    1
    50    12    14   ar
    51    55    56   ar
    52    55    54    1
    53   104   106    1
    54   104   105    1
    55   100   101    1
    56   100    97    1
    57    59    58    1
    58    98    97    1
    59    98    99    2
    60    97    96    1
    61    58    51   am
    62   115   114    1
    63    54    53    1
    64    53    50    1
    65    51    50    1
    66    51    52    2
    67    50    49    1
    68   114   113    1
    69    31    29   ar
    70    89    88    1
    71    88    87    1
    72   113   112    1
    73    30    29   ar
    74    29    28    1
    75   129   127   ar
    76   129   128   ar
    77    45    44    2
    78    49    44   am
    79   127   125   ar
    80   112   111    1
    81    87    86    1
    82    94    95    1
    83    94    91    1
    84    44    43    1
    85   128   126   ar
    86    24    25    1
    87    86    85    1
    88    28    25    1
    89    40    41   ar
    90    40    38   ar
    91    92    91    1
    92    92    93    2
    93    41    39   ar
    94    91    90    1
    95    25    26    1
    96   125   124   ar
    97   125   123   ar
    98   111   108    1
    99   126   123   ar
   100    81    82    1
   101    43    42    1
   102    43    46    1
   103    47    48    1
   104    47    46    1
   105    42    48    1
   106    38    37   ar
   107    84    83    2
   108   124   122   ar
   109    85    82    1
   110   123   121   ar
   111    27    26    2
   112    39    37   ar
   113   107   108    1
   114    82    83    1
   115   108   109    1
   116    37    36    1
   117   122   121   ar
   118   121   120    1
   119   109   110    2
   120    36    33    1
   121   120   117    1
   122   117   118    1
   123   117   116    1
   124    32    33    1
   125    33    34    1
   126   118   119    2
   127    34    35    2
