@<TRIPOS>MOLECULE
tmp/6fcfA00.pdb
 165 157 0 0 0
SMALL
GASTEIGER

@<TRIPOS>ATOM
      1  N         15.5320   -7.6570   11.6650 N.3     7  LEU7       -0.1231
      2  CA        15.0520   -6.8270   12.7700 C.3     7  LEU7        0.1693
      3  C         14.0360   -7.6060   13.6120 C.2     7  LEU7        0.2592
      4  O         13.9460   -7.3780   14.8120 O.2     7  LEU7       -0.2718
      5  CB        14.4490   -5.5030   12.2780 C.3     7  LEU7        0.0284
      6  CG        15.4430   -4.4840   11.6840 C.3     7  LEU7        0.0019
      7  CD1       14.7000   -3.3470   11.0040 C.3     7  LEU7        0.0001
      8  CD2       16.3950   -3.9260   12.7530 C.3     7  LEU7        0.0001
      9  N         13.3250   -8.5340   12.9690 N.am    8  GLY8       -0.1957
     10  CA        12.3110   -9.4020   13.5640 C.3     8  GLY8        0.1869
     11  C         11.9740  -10.5630   12.6460 C.2     8  GLY8        0.2309
     12  O         12.0710  -10.4250   11.4260 O.2     8  GLY8       -0.2863
     13  N          4.3740  -14.7560   10.7370 N.3    12  TYR12      -0.1241
     14  CA         3.8940  -13.6810    9.8650 C.3    12  TYR12       0.1605
     15  C          4.8530  -13.4400    8.6640 C.2    12  TYR12       0.2264
     16  O          4.4120  -13.0260    7.5990 O.2    12  TYR12      -0.2867
     17  CB         3.7350  -12.3780   10.6910 C.3    12  TYR12       0.0534
     18  CG         5.0490  -11.7820   11.1600 C.ar   12  TYR12      -0.0201
     19  CD1        5.7050  -10.8080   10.4100 C.ar   12  TYR12      -0.0009
     20  CD2        5.6560  -12.2180   12.3360 C.ar   12  TYR12      -0.0009
     21  CE1        6.9430  -10.3010   10.8040 C.ar   12  TYR12       0.0417
     22  CE2        6.8790  -11.6960   12.7560 C.ar   12  TYR12       0.0417
     23  CZ         7.5220  -10.7420   11.9830 C.ar   12  TYR12       0.1957
     24  OH         8.7310  -10.2290   12.3880 O.3    12  TYR12      -0.2866
     25  N         11.1200   -8.9350    9.2300 N.3    15  VAL15      -0.1245
     26  CA        11.3800   -7.5060    9.0620 C.3    15  VAL15       0.1561
     27  C         12.8880   -7.3730    8.8910 C.2    15  VAL15       0.2260
     28  O         13.6420   -7.8770    9.7190 O.2    15  VAL15      -0.2867
     29  CB        10.8380   -6.5930   10.2060 C.3    15  VAL15       0.0252
     30  CG1       11.1720   -5.1220    9.9350 C.3    15  VAL15       0.0019
     31  CG2        9.3300   -6.7670   10.4030 C.3    15  VAL15       0.0019
     32  N         13.0750    0.1700    7.2850 N.3    28  ALA28      -0.1245
     33  CA        12.7270   -1.1930    7.6650 C.3    28  ALA28       0.1562
     34  C         11.8240   -1.7460    6.5520 C.2    28  ALA28       0.2260
     35  O         10.9740   -1.0180    6.0120 O.2    28  ALA28      -0.2867
     36  CB        11.9950   -1.2130    8.9890 C.3    28  ALA28       0.0290
     37  N          9.2080   -4.9310    5.7440 N.3    30  LYS30      -0.1245
     38  CA         8.4420   -6.0890    6.2030 C.3    30  LYS30       0.1561
     39  C          8.1530   -6.9450    4.9770 C.2    30  LYS30       0.2260
     40  O          7.5200   -6.4790    4.0240 O.2    30  LYS30      -0.2867
     41  CB         7.1580   -5.6780    6.9380 C.3    30  LYS30       0.0271
     42  CG         6.3820   -6.8350    7.5640 C.3    30  LYS30       0.0035
     43  CD         5.2270   -6.2820    8.3950 C.3    30  LYS30       0.0206
     44  CE         4.6270   -7.3100    9.3070 C.3    30  LYS30       0.1093
     45  NZ         3.6070   -6.7170   10.2080 N.3    30  LYS30      -0.1314
     46  N          4.1500    4.1690   13.2390 N.3    51  VAL51      -0.1245
     47  CA         5.2970    3.8530   12.3700 C.3    51  VAL51       0.1561
     48  C          4.9360    4.3370   10.9590 C.2    51  VAL51       0.2260
     49  O          3.9190    3.9080   10.4130 O.2    51  VAL51      -0.2867
     50  CB         5.6930    2.3430   12.3860 C.3    51  VAL51       0.0252
     51  CG1        6.7680    2.0430   11.3250 C.3    51  VAL51       0.0019
     52  CG2        6.1550    1.9020   13.7720 C.3    51  VAL51       0.0019
     53  N          8.7760    0.8160    5.6520 N.3    67  LEU67      -0.1231
     54  CA         8.4380    1.5130    6.8910 C.3    67  LEU67       0.1693
     55  C          9.6080    2.2970    7.4570 C.2    67  LEU67       0.2592
     56  O         10.7700    1.9540    7.2040 O.2    67  LEU67      -0.2718
     57  CB         7.9790    0.4720    7.9370 C.3    67  LEU67       0.0284
     58  CG         6.7460   -0.3820    7.5670 C.3    67  LEU67       0.0019
     59  CD1        6.8060   -1.7370    8.2360 C.3    67  LEU67       0.0001
     60  CD2        5.4460    0.3380    7.9000 C.3    67  LEU67       0.0001
     61  N          9.3060    3.3280    8.2660 N.am   68  GLU68      -0.1966
     62  CA        10.3550    4.0980    8.9210 C.3    68  GLU68       0.1733
     63  C         11.0890    3.2050    9.9270 C.2    68  GLU68       0.2616
     64  O         10.4550    2.4380   10.6810 O.2    68  GLU68      -0.2715
     65  CB         9.8000    5.3870    9.5660 C.3    68  GLU68       0.0429
     66  CG         9.1130    5.2060   10.9060 C.3    68  GLU68       0.1163
     67  CD         8.7820    6.5000   11.6210 C.2    68  GLU68       0.3649
     68  OE1        9.7050    7.3100   11.8680 O.co2  68  GLU68      -0.2457
     69  OE2        7.5960    6.6840   11.9690 O.co2  68  GLU68      -0.2457
     70  N         12.4250    3.2630    9.8900 N.am   69  TYR69      -0.1960
     71  CA        13.2640    2.4810   10.7770 C.3    69  TYR69       0.1771
     72  C         13.2910    3.1080   12.1840 C.2    69  TYR69       0.2620
     73  O         13.6200    4.2970   12.3340 O.2    69  TYR69      -0.2715
     74  CB        14.6900    2.2790   10.1860 C.3    69  TYR69       0.0574
     75  CG        15.6420    1.5790   11.1380 C.ar   69  TYR69      -0.0198
     76  CD1       15.2860    0.3800   11.7560 C.ar   69  TYR69      -0.0009
     77  CD2       16.8820    2.1320   11.4490 C.ar   69  TYR69      -0.0009
     78  CE1       16.1350   -0.2480   12.6600 C.ar   69  TYR69       0.0417
     79  CE2       17.7490    1.5050   12.3440 C.ar   69  TYR69       0.0417
     80  CZ        17.3750    0.3050   12.9370 C.ar   69  TYR69       0.1957
     81  OH        18.1890   -0.3250   13.8380 O.3    69  TYR69      -0.2866
     82  N         12.9150    2.3040   13.1900 N.am   70  CYS70      -0.1954
     83  CA        12.8510    2.6740   14.6040 C.3    70  CYS70       0.1843
     84  C         14.0120    2.0250   15.3680 C.2    70  CYS70       0.2626
     85  O         13.8760    0.9220   15.9180 O.2    70  CYS70      -0.2714
     86  CB        11.4930    2.3130   15.2020 C.3    70  CYS70       0.0997
     87  SG        10.0940    3.1530   14.4170 S.3    70  CYS70      -0.0797
     88  N         15.1610    2.7460   15.4080 N.am   71  SER71      -0.1936
     89  CA        16.4280    2.2730   15.9790 C.3    71  SER71       0.2055
     90  C         16.4160    1.9640   17.5010 C.2    71  SER71       0.2644
     91  O         17.2950    1.2340   17.9640 O.2    71  SER71      -0.2714
     92  CB        17.5650    3.2360   15.6360 C.3    71  SER71       0.2130
     93  OG        17.4430    4.4860   16.2940 O.3    71  SER71      -0.2179
     94  N         15.4240    2.4780   18.2430 N.am   72  GLY72      -0.1939
     95  CA        15.2910    2.2280   19.6750 C.3    72  GLY72       0.2014
     96  C         14.7110    0.8660   20.0440 C.2    72  GLY72       0.2639
     97  O         14.6940    0.5040   21.2250 O.2    72  GLY72      -0.2714
     98  N         14.2370    0.1100   19.0450 N.am   73  GLY73      -0.1939
     99  CA        13.6770   -1.2260   19.2480 C.3    73  GLY73       0.2014
    100  C         12.3180   -1.2740   19.9370 C.2    73  GLY73       0.2638
    101  O         11.6510   -0.2430   20.0870 O.2    73  GLY73      -0.2714
    102  N         11.8950   -2.4940   20.3420 N.am   74  GLU74      -0.1977
    103  CA        10.6090   -2.7330   21.0130 C.3    74  GLU74       0.1602
    104  C         10.5770   -2.1750   22.4200 C.2    74  GLU74       0.2287
    105  O         11.5540   -2.3400   23.1620 O.2    74  GLU74      -0.2864
    106  CB        10.2940   -4.2330   21.1110 C.3    74  GLU74       0.0415
    107  CG        10.1070   -4.9310   19.7780 C.3    74  GLU74       0.1163
    108  CD         9.7390   -6.3980   19.8670 C.2    74  GLU74       0.3649
    109  OE1        9.6350   -7.0270   18.7930 O.co2  74  GLU74      -0.2457
    110  OE2        9.5330   -6.9170   20.9910 O.co2  74  GLU74      -0.2457
    111  N         11.6350   -4.6330   25.2460 N.3    77  ASP77      -0.1239
    112  CA        13.0260   -4.7180   25.6810 C.3    77  ASP77       0.1674
    113  C         13.4470   -3.6060   26.6650 C.2    77  ASP77       0.2266
    114  O         14.5290   -3.7050   27.2550 O.2    77  ASP77      -0.2867
    115  CB        13.9550   -4.8130   24.4660 C.3    77  ASP77       0.1410
    116  CG        13.7590   -6.1240   23.7160 C.2    77  ASP77       0.3668
    117  OD1       13.5020   -6.0750   22.5040 O.co2  77  ASP77      -0.2456
    118  OD2       13.7700   -7.1950   24.3700 O.co2  77  ASP77      -0.2456
    119  N          5.5210   -5.5760   22.4930 N.3   117  GLU117     -0.1231
    120  CA         6.1980   -6.1210   21.3080 C.3   117  GLU117      0.1699
    121  C          5.7500   -5.4030   20.0150 C.2   117  GLU117      0.2592
    122  O          6.4830   -5.4770   19.0310 O.2   117  GLU117     -0.2718
    123  CB         5.9830   -7.6440   21.1720 C.3   117  GLU117      0.0402
    124  CG         6.4100   -8.4510   22.3940 C.3   117  GLU117      0.1161
    125  CD         5.3190   -8.7830   23.4020 C.2   117  GLU117      0.3649
    126  OE1        4.4950   -7.8960   23.7230 O.co2 117  GLU117     -0.2457
    127  OE2        5.3140   -9.9300   23.9030 O.co2 117  GLU117     -0.2457
    128  N          4.5660   -4.6990   20.0260 N.am  118  ASN118     -0.1960
    129  CA         4.0170   -3.9540   18.8740 C.3   118  ASN118      0.1819
    130  C          4.1500   -2.4200   19.0030 C.2   118  ASN118      0.2621
    131  O          3.4960   -1.6530   18.2800 O.2   118  ASN118     -0.2715
    132  CB         2.5690   -4.3700   18.6070 C.3   118  ASN118      0.1195
    133  CG         2.4640   -5.7960   18.1180 C.2   118  ASN118      0.2630
    134  OD1        3.4130   -6.3700   17.5750 O.2   118  ASN118     -0.2716
    135  ND2        1.3170   -6.4000   18.3070 N.am  118  ASN118     -0.0877
    136  N          5.0040   -1.9910   19.9360 N.am  119  LEU119     -0.1963
    137  CA         5.2880   -0.5920   20.2160 C.3   119  LEU119      0.1728
    138  C          6.7990   -0.3620   20.0460 C.2   119  LEU119      0.2616
    139  O          7.6080   -0.9560   20.7720 O.2   119  LEU119     -0.2715
    140  CB         4.8090   -0.2090   21.6380 C.3   119  LEU119      0.0311
    141  CG         3.2790   -0.3500   21.8930 C.3   119  LEU119      0.0022
    142  CD1        2.9460   -0.1670   23.3610 C.3   119  LEU119      0.0001
    143  CD2        2.4700    0.6010   21.0010 C.3   119  LEU119      0.0001
    144  N          7.1610    0.4460   19.0340 N.am  120  LEU120     -0.1977
    145  CA         8.5530    0.7550   18.7090 C.3   120  LEU120      0.1596
    146  C          8.9930    2.1160   19.2140 C.2   120  LEU120      0.2287
    147  O          8.1750    3.0270   19.3830 O.2   120  LEU120     -0.2864
    148  CB         8.8120    0.6670   17.1920 C.3   120  LEU120      0.0297
    149  CG         8.8850   -0.7400   16.6070 C.3   120  LEU120      0.0022
    150  CD1        8.6140   -0.7040   15.1010 C.3   120  LEU120      0.0001
    151  CD2       10.2330   -1.4360   16.9540 C.3   120  LEU120      0.0001
    152  N          2.9460    0.1040   16.0460 N.3   130  SER130     -0.1202
    153  CA         3.3900   -0.7220   14.9340 C.3   130  SER130      0.2020
    154  C          2.4960   -1.9380   14.7140 C.2   130  SER130      0.2618
    155  O          1.7270   -2.3100   15.6030 O.2   130  SER130     -0.2717
    156  CB         4.8250   -1.1770   15.2240 C.3   130  SER130      0.2103
    157  OG         5.4200   -1.9200   14.1760 O.3   130  SER130     -0.2182
    158  N          2.6100   -2.5430   13.5100 N.am  131  ASP131     -0.1973
    159  CA         1.9910   -3.7990   13.0540 C.3   131  ASP131      0.1709
    160  C          0.4490   -3.7700   13.0620 C.2   131  ASP131      0.2293
    161  O         -0.1940   -4.2000   14.0170 O.2   131  ASP131     -0.2864
    162  CB         2.5710   -4.9850   13.8600 C.3   131  ASP131      0.1436
    163  CG         4.0810   -5.1000   13.6660 C.2   131  ASP131      0.3671
    164  OD1        4.5100   -5.5090   12.5640 O.co2 131  ASP131     -0.2456
    165  OD2        4.8220   -4.6300   14.5390 O.co2 131  ASP131     -0.2456
@<TRIPOS>BOND
     1    40    39    2
     2    39    38    1
     3    53    54    1
     4    37    38    1
     5    35    34    2
     6    38    41    1
     7    34    33    1
     8    54    55    1
     9    54    57    1
    10    41    42    1
    11    56    55    2
    12    32    33    1
    13    55    61   am
    14    42    43    1
    15    58    60    1
    16    58    57    1
    17    58    59    1
    18    16    15    2
    19    33    36    1
    20    61    62    1
    21    43    44    1
    22    15    14    1
    23    27    26    1
    24    27    28    2
    25    62    65    1
    26    62    63    1
    27    26    25    1
    28    26    29    1
    29    44    45    1
    30    65    66    1
    31    14    17    1
    32    14    13    1
    33    70    63   am
    34    70    71    1
    35    63    64    2
    36    30    29    1
    37    74    71    1
    38    74    75    1
    39    29    31    1
    40    19    21   ar
    41    19    18   ar
    42    49    48    2
    43    17    18    1
    44    71    72    1
    45    21    23   ar
    46    66    67    1
    47    48    47    1
    48     7     6    1
    49    75    77   ar
    50    75    76   ar
    51    18    20   ar
    52    51    50    1
    53    12    11    2
    54    77    79   ar
    55    67    68   ar
    56    67    69   ar
    57     1     2    1
    58     6     5    1
    59     6     8    1
    60    76    78   ar
    61    23    24    1
    62    23    22   ar
    63    72    73    2
    64    72    82   am
    65     5     2    1
    66    20    22   ar
    67    79    80   ar
    68    47    50    1
    69    47    46    1
    70    50    52    1
    71   164   163   ar
    72    11    10    1
    73    78    80   ar
    74     2     3    1
    75    80    81    1
    76     9    10    1
    77     9     3   am
    78   159   160    1
    79   159   158    1
    80   159   162    1
    81   160   161    2
    82    82    83    1
    83   158   154   am
    84     3     4    2
    85   163   162    1
    86   163   165   ar
    87   157   156    1
    88    87    86    1
    89    83    86    1
    90    83    84    1
    91   154   153    1
    92   154   155    2
    93   153   156    1
    94   153   152    1
    95   150   149    1
    96    84    88   am
    97    84    85    2
    98    88    89    1
    99    92    89    1
   100    92    93    1
   101    89    90    1
   102   149   151    1
   103   149   148    1
   104   148   145    1
   105    90    91    2
   106    90    94   am
   107   134   133    2
   108   133   135   am
   109   133   132    1
   110    94    95    1
   111   131   130    2
   112   132   129    1
   113   145   144    1
   114   145   146    1
   115   109   108   ar
   116   129   130    1
   117   129   128    1
   118   130   136   am
   119   122   121    2
   120   144   138   am
   121    98    99    1
   122    98    96   am
   123   146   147    2
   124    99   100    1
   125    95    96    1
   126   107   108    1
   127   107   106    1
   128   108   110   ar
   129   136   137    1
   130   100   101    2
   131   100   102   am
   132   121   128   am
   133   121   120    1
   134    96    97    2
   135   138   137    1
   136   138   139    2
   137   137   140    1
   138   102   103    1
   139   143   141    1
   140   103   106    1
   141   103   104    1
   142   123   120    1
   143   123   124    1
   144   120   119    1
   145   140   141    1
   146   141   142    1
   147   124   125    1
   148   104   105    2
   149   117   116   ar
   150   125   126   ar
   151   125   127   ar
   152   116   118   ar
   153   116   115    1
   154   115   112    1
   155   111   112    1
   156   112   113    1
   157   113   114    2
