@<TRIPOS>MOLECULE
tmp/6fciB00.pdb
 139 135 0 0 0
SMALL
GASTEIGER

@<TRIPOS>ATOM
      1  N        -15.0830   34.6010  -35.1540 N.3    62  ASP62      -0.1225
      2  CA       -14.8040   33.8740  -36.3990 C.3    62  ASP62       0.1805
      3  C        -13.5410   34.4260  -37.0680 C.2    62  ASP62       0.2598
      4  O        -13.4820   35.6160  -37.3640 O.2    62  ASP62      -0.2718
      5  CB       -16.0010   34.0710  -37.3370 C.3    62  ASP62       0.1424
      6  CG       -16.1110   33.0000  -38.4080 C.2    62  ASP62       0.3668
      7  OD1      -15.1410   32.2460  -38.6300 O.co2  62  ASP62      -0.2456
      8  OD2      -17.1770   32.9430  -39.0550 O.co2  62  ASP62      -0.2456
      9  N        -12.5450   33.5830  -37.3470 N.am   63  SER63      -0.1938
     10  CA       -12.6330   32.1410  -37.1230 C.3    63  SER63       0.2055
     11  C        -11.7070   31.7020  -35.9940 C.2    63  SER63       0.2642
     12  O        -12.0550   30.8330  -35.1930 O.2    63  SER63      -0.2714
     13  CB       -12.2600   31.3820  -38.3990 C.3    63  SER63       0.2130
     14  OG       -13.3100   31.4250  -39.3480 O.3    63  SER63      -0.2179
     15  N        -10.5090   32.2700  -35.9600 N.am   64  ARG64      -0.1977
     16  CA        -9.4850   31.8150  -35.0230 C.3    64  ARG64       0.1597
     17  C         -9.8470   32.1030  -33.5660 C.2    64  ARG64       0.2287
     18  O         -9.4040   31.3950  -32.6600 O.2    64  ARG64      -0.2864
     19  CB        -8.1220   32.4100  -35.3790 C.3    64  ARG64       0.0334
     20  CG        -7.3530   31.5520  -36.3710 C.3    64  ARG64       0.0492
     21  CD        -6.0110   32.1590  -36.7320 C.3    64  ARG64       0.2205
     22  NE        -6.1260   33.1570  -37.7920 N.pl3  64  ARG64      -0.0865
     23  CZ        -5.3340   34.2160  -37.9070 C.cat  64  ARG64       0.5346
     24  NH1       -4.4020   34.4460  -36.9940 N.pl3  64  ARG64       0.1354
     25  NH2       -5.4850   35.0550  -38.9240 N.pl3  64  ARG64       0.1354
     26  N        -18.2440   35.7780  -39.5880 N.3    85  LYS85      -0.1245
     27  CA       -18.0770   36.4560  -40.8650 C.3    85  LYS85       0.1561
     28  C        -19.4410   36.5580  -41.5340 C.2    85  LYS85       0.2260
     29  O        -20.2880   35.6820  -41.3710 O.2    85  LYS85      -0.2867
     30  CB       -17.0950   35.6980  -41.7590 C.3    85  LYS85       0.0271
     31  CG       -15.6370   35.8330  -41.3380 C.3    85  LYS85       0.0035
     32  CD       -15.3450   37.2150  -40.7720 C.3    85  LYS85       0.0206
     33  CE       -13.9300   37.6870  -41.0730 C.3    85  LYS85       0.1093
     34  NZ       -12.9280   36.5870  -41.1070 N.3    85  LYS85      -0.1314
     35  N        -15.3110   46.3490  -41.9550 N.3    98  TYR98      -0.1241
     36  CA       -14.0740   46.8700  -41.3860 C.3    98  TYR98       0.1605
     37  C        -12.8590   46.4860  -42.2150 C.2    98  TYR98       0.2264
     38  O        -12.9440   45.6620  -43.1260 O.2    98  TYR98      -0.2867
     39  CB       -13.8880   46.3450  -39.9670 C.3    98  TYR98       0.0534
     40  CG       -13.7610   44.8430  -39.9030 C.ar   98  TYR98      -0.0201
     41  CD1      -14.8910   44.0370  -39.9000 C.ar   98  TYR98      -0.0009
     42  CD2      -12.5140   44.2270  -39.8920 C.ar   98  TYR98      -0.0009
     43  CE1      -14.7840   42.6600  -39.8510 C.ar   98  TYR98       0.0417
     44  CE2      -12.3980   42.8510  -39.8390 C.ar   98  TYR98       0.0417
     45  CZ       -13.5390   42.0730  -39.8180 C.ar   98  TYR98       0.1957
     46  OH       -13.4450   40.7000  -39.7820 O.3    98  TYR98      -0.2866
     47  N         -8.8900   44.9720  -41.5760 N.3   100  LEU100     -0.1231
     48  CA        -7.9160   44.3810  -40.6730 C.3   100  LEU100      0.1693
     49  C         -6.5480   44.6040  -41.3060 C.2   100  LEU100      0.2592
     50  O         -6.4330   45.3680  -42.2650 O.2   100  LEU100     -0.2718
     51  CB        -8.2050   42.8930  -40.4930 C.3   100  LEU100      0.0284
     52  CG        -8.1860   42.0900  -41.7950 C.3   100  LEU100      0.0019
     53  CD1       -7.4930   40.7530  -41.5780 C.3   100  LEU100      0.0001
     54  CD2       -9.5890   41.9020  -42.3590 C.3   100  LEU100      0.0001
     55  N         -5.5110   43.9640  -40.7780 N.am  101  GLU101     -0.1966
     56  CA        -4.1510   44.2740  -41.2130 C.3   101  GLU101      0.1733
     57  C         -3.9650   44.0520  -42.7140 C.2   101  GLU101      0.2616
     58  O         -3.3730   44.8840  -43.3980 O.2   101  GLU101     -0.2715
     59  CB        -3.1100   43.4660  -40.4380 C.3   101  GLU101      0.0429
     60  CG        -1.6840   43.8130  -40.8430 C.3   101  GLU101      0.1163
     61  CD        -0.6370   42.9900  -40.1200 C.2   101  GLU101      0.3649
     62  OE1       -1.0110   42.0410  -39.3940 O.co2 101  GLU101     -0.2457
     63  OE2        0.5660   43.2920  -40.2880 O.co2 101  GLU101     -0.2457
     64  N         -4.4570   42.9250  -43.2230 N.am  102  TYR102     -0.1974
     65  CA        -4.1750   42.5430  -44.6090 C.3   102  TYR102      0.1639
     66  C         -5.4280   42.3990  -45.4740 C.2   102  TYR102      0.2290
     67  O         -5.4380   41.6290  -46.4340 O.2   102  TYR102     -0.2864
     68  CB        -3.3420   41.2570  -44.6660 C.3   102  TYR102      0.0560
     69  CG        -3.8240   40.1530  -43.7550 C.ar  102  TYR102     -0.0198
     70  CD1       -4.9770   39.4350  -44.0460 C.ar  102  TYR102     -0.0009
     71  CD2       -3.0990   39.7970  -42.6240 C.ar  102  TYR102     -0.0009
     72  CE1       -5.4190   38.4220  -43.2130 C.ar  102  TYR102      0.0417
     73  CE2       -3.5270   38.7810  -41.7910 C.ar  102  TYR102      0.0417
     74  CZ        -4.6850   38.0960  -42.0900 C.ar  102  TYR102      0.1957
     75  OH        -5.1070   37.0770  -41.2670 O.3   102  TYR102     -0.2866
     76  N        -13.1420   43.0140  -44.3260 N.3   105  ALA105     -0.1245
     77  CA       -14.0990   41.9610  -44.0430 C.3   105  ALA105      0.1562
     78  C        -15.3500   42.5360  -43.4090 C.2   105  ALA105      0.2260
     79  O        -15.4690   43.7480  -43.2130 O.2   105  ALA105     -0.2867
     80  CB       -13.4790   40.9120  -43.1340 C.3   105  ALA105      0.0290
     81  N        -10.3660   37.1780  -29.1650 N.3   124  ASP124     -0.1225
     82  CA        -9.8190   36.7820  -30.4540 C.3   124  ASP124      0.1805
     83  C         -8.4230   36.2050  -30.2480 C.2   124  ASP124      0.2598
     84  O         -7.8560   36.3120  -29.1620 O.2   124  ASP124     -0.2718
     85  CB        -9.7640   37.9790  -31.4070 C.3   124  ASP124      0.1424
     86  CG        -9.8650   37.5700  -32.8670 C.2   124  ASP124      0.3668
     87  OD1       -9.8110   36.3560  -33.1510 O.co2 124  ASP124     -0.2456
     88  OD2      -10.0070   38.4620  -33.7320 O.co2 124  ASP124     -0.2456
     89  N         -7.9060   35.5300  -31.2670 N.am  125  ASP125     -0.1960
     90  CA        -6.5820   34.9200  -31.1810 C.3   125  ASP125      0.1840
     91  C         -5.4790   35.9740  -31.1790 C.2   125  ASP125      0.2622
     92  O         -4.4970   35.8550  -30.4460 O.2   125  ASP125     -0.2715
     93  CB        -6.3640   33.9150  -32.3190 C.3   125  ASP125      0.1450
     94  CG        -6.2030   34.5810  -33.6720 C.2   125  ASP125      0.3671
     95  OD1       -7.0310   35.4520  -34.0160 O.co2 125  ASP125     -0.2456
     96  OD2       -5.2840   34.1830  -34.4220 O.co2 125  ASP125     -0.2456
     97  N         -5.6640   37.0310  -31.9630 N.am  126  LEU126     -0.1963
     98  CA        -4.5870   37.9810  -32.1990 C.3   126  LEU126      0.1728
     99  C         -5.1100   39.3810  -32.5100 C.2   126  LEU126      0.2616
    100  O         -6.0300   39.5510  -33.3090 O.2   126  LEU126     -0.2715
    101  CB        -3.6920   37.4850  -33.3330 C.3   126  LEU126      0.0311
    102  CG        -2.5020   38.3840  -33.6740 C.3   126  LEU126      0.0022
    103  CD1       -1.4260   37.5930  -34.4030 C.3   126  LEU126      0.0001
    104  CD2       -2.9640   39.5680  -34.5060 C.3   126  LEU126      0.0001
    105  N         -4.5020   40.3790  -31.8760 N.am  127  LEU127     -0.1963
    106  CA        -4.8450   41.7790  -32.1170 C.3   127  LEU127      0.1728
    107  C         -3.7860   42.4610  -32.9680 C.2   127  LEU127      0.2616
    108  O         -2.6440   42.6180  -32.5390 O.2   127  LEU127     -0.2715
    109  CB        -4.9790   42.5410  -30.7980 C.3   127  LEU127      0.0311
    110  CG        -5.4340   43.9910  -30.9860 C.3   127  LEU127      0.0022
    111  CD1       -6.8900   44.0150  -31.4170 C.3   127  LEU127      0.0001
    112  CD2       -5.2320   44.8170  -29.7240 C.3   127  LEU127      0.0001
    113  N         -4.1810   42.9170  -34.1500 N.am  128  ALA128     -0.1963
    114  CA        -3.2780   43.6810  -35.0010 C.3   128  ALA128      0.1728
    115  C         -3.7090   45.1460  -35.0560 C.2   128  ALA128      0.2617
    116  O         -3.4150   45.9140  -34.1400 O.2   128  ALA128     -0.2715
    117  CB        -3.2160   43.0720  -36.3950 C.3   128  ALA128      0.0334
    118  N         -4.4380   45.5290  -36.0990 N.am  129  THR129     -0.1937
    119  CA        -4.8690   46.9250  -36.2320 C.3   129  THR129      0.2028
    120  C         -6.0040   47.2240  -35.2620 C.2   129  THR129      0.2643
    121  O         -6.2850   48.3800  -34.9550 O.2   129  THR129     -0.2714
    122  CB        -5.3410   47.2740  -37.6580 C.3   129  THR129      0.1808
    123  OG1       -6.5620   46.5820  -37.9480 O.3   129  THR129     -0.2208
    124  CG2       -4.2850   46.9150  -38.6860 C.3   129  THR129      0.0379
    125  N         -6.6590   46.1700  -34.7880 N.am  130  GLY130     -0.1939
    126  CA        -7.8130   46.3150  -33.9080 C.3   130  GLY130      0.2014
    127  C         -9.1240   46.4210  -34.6630 C.2   130  GLY130      0.2639
    128  O        -10.1970   46.4610  -34.0610 O.2   130  GLY130     -0.2714
    129  N         -9.0390   46.4690  -35.9870 N.am  131  GLY131     -0.1939
    130  CA       -10.2240   46.6350  -36.8310 C.3   131  GLY131      0.2014
    131  C        -11.2780   45.5690  -36.5840 C.2   131  GLY131      0.2639
    132  O        -12.4700   45.8690  -36.4730 O.2   131  GLY131     -0.2714
    133  N        -10.8320   44.3220  -36.4700 N.am  132  THR132     -0.1950
    134  CA       -11.7370   43.1990  -36.2340 C.3   132  THR132      0.1897
    135  C        -12.4030   43.3160  -34.8700 C.2   132  THR132      0.2313
    136  O        -13.6280   43.2250  -34.7430 O.2   132  THR132     -0.2863
    137  CB       -10.9880   41.8560  -36.2970 C.3   132  THR132      0.1794
    138  OG1      -10.4320   41.6780  -37.6040 O.3   132  THR132     -0.2208
    139  CG2      -11.9250   40.7000  -35.9900 C.3   132  THR132      0.0378
@<TRIPOS>BOND
     1    67    66    2
     2    66    65    1
     3    68    65    1
     4    68    69    1
     5    65    64    1
     6    76    77    1
     7    70    69   ar
     8    70    72   ar
     9    77    78    1
    10    77    80    1
    11    69    71   ar
    12    78    79    2
    13    58    57    2
    14    64    57   am
    15    72    74   ar
    16    38    37    2
    17    57    56    1
    18    71    73   ar
    19    54    52    1
    20    50    49    2
    21    37    36    1
    22    74    73   ar
    23    74    75    1
    24    35    36    1
    25    52    53    1
    26    52    51    1
    27    30    31    1
    28    30    27    1
    29    47    48    1
    30    28    29    2
    31    28    27    1
    32    36    39    1
    33    31    32    1
    34    49    55   am
    35    49    48    1
    36    56    55    1
    37    56    59    1
    38    34    33    1
    39    33    32    1
    40    27    26    1
    41    60    59    1
    42    60    61    1
    43    48    51    1
    44    63    61   ar
    45    61    62   ar
    46    39    40    1
    47    40    41   ar
    48    40    42   ar
    49    41    43   ar
    50    42    44   ar
    51    43    45   ar
    52    44    45   ar
    53    45    46    1
    54    14    13    1
    55     8     6   ar
    56    25    23    1
    57   124   122    1
    58     7     6   ar
    59     6     5    1
    60    13    10    1
    61   123   122    1
    62    23    22    2
    63    23    24    1
    64    22    21    1
    65   122   119    1
    66   138   137    1
    67     4     3    2
    68     9    10    1
    69     9     3   am
    70     5     2    1
    71    10    11    1
    72     3     2    1
    73   130   131    1
    74   130   129    1
    75    21    20    1
    76   131   132    2
    77   131   133   am
    78   133   134    1
    79     2     1    1
    80   117   114    1
    81    20    19    1
    82   137   134    1
    83   137   139    1
    84   134   135    1
    85   119   118    1
    86   119   120    1
    87   118   115   am
    88    11    15   am
    89    11    12    2
    90   129   127   am
    91    15    16    1
    92    19    16    1
    93   120   121    2
    94   120   125   am
    95   115   114    1
    96   115   116    2
    97    16    17    1
    98   114   113    1
    99   135   136    2
   100   125   126    1
   101   127   128    2
   102   127   126    1
   103   104   102    1
   104    96    94   ar
   105   103   102    1
   106   113   107   am
   107    95    94   ar
   108    88    86   ar
   109   102   101    1
   110    94    93    1
   111    17    18    2
   112   101    98    1
   113   100    99    2
   114    87    86   ar
   115   107   108    2
   116   107   106    1
   117    86    85    1
   118    99    98    1
   119    99   105   am
   120    93    90    1
   121    98    97    1
   122   106   105    1
   123   106   109    1
   124    97    91   am
   125   111   110    1
   126    85    82    1
   127    89    90    1
   128    89    83   am
   129    90    91    1
   130    91    92    2
   131   110   109    1
   132   110   112    1
   133    82    83    1
   134    82    81    1
   135    83    84    2
