@<TRIPOS>MOLECULE
tmp/6fciB01.pdb
 105 101 0 0 0
SMALL
GASTEIGER

@<TRIPOS>ATOM
      1  N          3.5310   41.6560  -44.4090 N.3    21  VAL21      -0.1231
      2  CA         2.9800   41.0910  -43.1780 C.3    21  VAL21       0.1692
      3  C          3.9350   40.0520  -42.6030 C.2    21  VAL21       0.2592
      4  O          4.4340   39.1900  -43.3270 O.2    21  VAL21      -0.2718
      5  CB         1.6160   40.4180  -43.4230 C.3    21  VAL21       0.0266
      6  CG1        1.0040   39.9620  -42.1050 C.3    21  VAL21       0.0020
      7  CG2        0.6770   41.3680  -44.1490 C.3    21  VAL21       0.0020
      8  N          4.2110   40.1540  -41.3080 N.am   22  VAL22      -0.1966
      9  CA         4.8350   39.0530  -40.5780 C.3    22  VAL22       0.1727
     10  C          3.7760   38.2510  -39.8290 C.2    22  VAL22       0.2616
     11  O          3.2580   38.6900  -38.8000 O.2    22  VAL22      -0.2715
     12  CB         5.8940   39.5540  -39.5780 C.3    22  VAL22       0.0290
     13  CG1        6.3820   38.4060  -38.7060 C.3    22  VAL22       0.0023
     14  CG2        7.0570   40.1960  -40.3200 C.3    22  VAL22       0.0023
     15  N          3.4530   37.0770  -40.3610 N.am   23  PHE23      -0.1960
     16  CA         2.3240   36.2970  -39.8670 C.3    23  PHE23       0.1771
     17  C          2.7170   35.4510  -38.6590 C.2    23  PHE23       0.2619
     18  O          3.6420   34.6450  -38.7290 O.2    23  PHE23      -0.2715
     19  CB         1.7760   35.3950  -40.9720 C.3    23  PHE23       0.0574
     20  CG         0.4200   34.8250  -40.6700 C.ar   23  PHE23      -0.0200
     21  CD1        0.2930   33.6240  -39.9910 C.ar   23  PHE23      -0.0042
     22  CD2       -0.7290   35.4910  -41.0640 C.ar   23  PHE23      -0.0042
     23  CE1       -0.9530   33.0940  -39.7170 C.ar   23  PHE23      -0.0003
     24  CE2       -1.9790   34.9680  -40.7910 C.ar   23  PHE23      -0.0003
     25  CZ        -2.0910   33.7680  -40.1180 C.ar   23  PHE23      -0.0000
     26  N          2.0100   35.6470  -37.5530 N.am   24  ARG24      -0.1977
     27  CA         2.2330   34.8590  -36.3460 C.3    24  ARG24       0.1597
     28  C          1.2970   33.6560  -36.3200 C.2    24  ARG24       0.2287
     29  O          0.0880   33.8040  -36.1410 O.2    24  ARG24      -0.2864
     30  CB         2.0060   35.7140  -35.0970 C.3    24  ARG24       0.0334
     31  CG         2.6880   37.0720  -35.1370 C.3    24  ARG24       0.0492
     32  CD         4.2000   36.9540  -35.2450 C.3    24  ARG24       0.2205
     33  NE         4.8290   38.2680  -35.3450 N.pl3  24  ARG24      -0.0865
     34  CZ         6.1130   38.5120  -35.0960 C.cat  24  ARG24       0.5346
     35  NH1        6.9200   37.5300  -34.7160 N.pl3  24  ARG24       0.1354
     36  NH2        6.5850   39.7470  -35.2080 N.pl3  24  ARG24       0.1354
     37  N        -10.5090   32.2700  -35.9600 N.3    64  ARG64      -0.1245
     38  CA        -9.4850   31.8150  -35.0230 C.3    64  ARG64       0.1563
     39  C         -9.8470   32.1030  -33.5660 C.2    64  ARG64       0.2260
     40  O         -9.4040   31.3950  -32.6600 O.2    64  ARG64      -0.2867
     41  CB        -8.1220   32.4100  -35.3790 C.3    64  ARG64       0.0307
     42  CG        -7.3530   31.5520  -36.3710 C.3    64  ARG64       0.0489
     43  CD        -6.0110   32.1590  -36.7320 C.3    64  ARG64       0.2205
     44  NE        -6.1260   33.1570  -37.7920 N.pl3  64  ARG64      -0.0865
     45  CZ        -5.3340   34.2160  -37.9070 C.cat  64  ARG64       0.5346
     46  NH1       -4.4020   34.4460  -36.9940 N.pl3  64  ARG64       0.1354
     47  NH2       -5.4850   35.0550  -38.9240 N.pl3  64  ARG64       0.1354
     48  N         -8.8900   44.9720  -41.5760 N.3   100  LEU100     -0.1231
     49  CA        -7.9160   44.3810  -40.6730 C.3   100  LEU100      0.1693
     50  C         -6.5480   44.6040  -41.3060 C.2   100  LEU100      0.2592
     51  O         -6.4330   45.3680  -42.2650 O.2   100  LEU100     -0.2718
     52  CB        -8.2050   42.8930  -40.4930 C.3   100  LEU100      0.0284
     53  CG        -8.1860   42.0900  -41.7950 C.3   100  LEU100      0.0019
     54  CD1       -7.4930   40.7530  -41.5780 C.3   100  LEU100      0.0001
     55  CD2       -9.5890   41.9020  -42.3590 C.3   100  LEU100      0.0001
     56  N         -5.5110   43.9640  -40.7780 N.am  101  GLU101     -0.1966
     57  CA        -4.1510   44.2740  -41.2130 C.3   101  GLU101      0.1733
     58  C         -3.9650   44.0520  -42.7140 C.2   101  GLU101      0.2616
     59  O         -3.3730   44.8840  -43.3980 O.2   101  GLU101     -0.2715
     60  CB        -3.1100   43.4660  -40.4380 C.3   101  GLU101      0.0429
     61  CG        -1.6840   43.8130  -40.8430 C.3   101  GLU101      0.1163
     62  CD        -0.6370   42.9900  -40.1200 C.2   101  GLU101      0.3649
     63  OE1       -1.0110   42.0410  -39.3940 O.co2 101  GLU101     -0.2457
     64  OE2        0.5660   43.2920  -40.2880 O.co2 101  GLU101     -0.2457
     65  N         -4.4570   42.9250  -43.2230 N.am  102  TYR102     -0.1974
     66  CA        -4.1750   42.5430  -44.6090 C.3   102  TYR102      0.1639
     67  C         -5.4280   42.3990  -45.4740 C.2   102  TYR102      0.2290
     68  O         -5.4380   41.6290  -46.4340 O.2   102  TYR102     -0.2864
     69  CB        -3.3420   41.2570  -44.6660 C.3   102  TYR102      0.0560
     70  CG        -3.8240   40.1530  -43.7550 C.ar  102  TYR102     -0.0198
     71  CD1       -4.9770   39.4350  -44.0460 C.ar  102  TYR102     -0.0009
     72  CD2       -3.0990   39.7970  -42.6240 C.ar  102  TYR102     -0.0009
     73  CE1       -5.4190   38.4220  -43.2130 C.ar  102  TYR102      0.0417
     74  CE2       -3.5270   38.7810  -41.7910 C.ar  102  TYR102      0.0417
     75  CZ        -4.6850   38.0960  -42.0900 C.ar  102  TYR102      0.1957
     76  OH        -5.1070   37.0770  -41.2670 O.3   102  TYR102     -0.2866
     77  N         -7.9060   35.5300  -31.2670 N.3   125  ASP125     -0.1225
     78  CA        -6.5820   34.9200  -31.1810 C.3   125  ASP125      0.1805
     79  C         -5.4790   35.9740  -31.1790 C.2   125  ASP125      0.2597
     80  O         -4.4970   35.8550  -30.4460 O.2   125  ASP125     -0.2718
     81  CB        -6.3640   33.9150  -32.3190 C.3   125  ASP125      0.1424
     82  CG        -6.2030   34.5810  -33.6720 C.2   125  ASP125      0.3668
     83  OD1       -7.0310   35.4520  -34.0160 O.co2 125  ASP125     -0.2456
     84  OD2       -5.2840   34.1830  -34.4220 O.co2 125  ASP125     -0.2456
     85  N         -5.6640   37.0310  -31.9630 N.am  126  LEU126     -0.1979
     86  CA        -4.5870   37.9810  -32.1990 C.3   126  LEU126      0.1596
     87  C         -5.1100   39.3810  -32.5100 C.2   126  LEU126      0.2287
     88  O         -6.0300   39.5510  -33.3090 O.2   126  LEU126     -0.2864
     89  CB        -3.6920   37.4850  -33.3330 C.3   126  LEU126      0.0297
     90  CG        -2.5020   38.3840  -33.6740 C.3   126  LEU126      0.0022
     91  CD1       -1.4260   37.5930  -34.4030 C.3   126  LEU126      0.0001
     92  CD2       -2.9640   39.5680  -34.5060 C.3   126  LEU126      0.0001
     93  N         -4.1810   42.9170  -34.1500 N.3   128  ALA128     -0.1245
     94  CA        -3.2780   43.6810  -35.0010 C.3   128  ALA128      0.1562
     95  C         -3.7090   45.1460  -35.0560 C.2   128  ALA128      0.2260
     96  O         -3.4150   45.9140  -34.1400 O.2   128  ALA128     -0.2867
     97  CB        -3.2160   43.0720  -36.3950 C.3   128  ALA128      0.0290
     98  N          0.1080   42.7070  -31.5060 N.3   156  LEU156     -0.1245
     99  CA         1.1500   43.2950  -32.3500 C.3   156  LEU156      0.1561
    100  C          1.2070   44.8060  -32.1380 C.2   156  LEU156      0.2260
    101  O          0.4650   45.5630  -32.7660 O.2   156  LEU156     -0.2867
    102  CB         0.8970   42.9620  -33.8250 C.3   156  LEU156      0.0270
    103  CG         0.6590   41.4720  -34.1000 C.3   156  LEU156      0.0019
    104  CD1        0.3690   41.2060  -35.5710 C.3   156  LEU156      0.0001
    105  CD2        1.8410   40.6380  -33.6210 C.3   156  LEU156      0.0001
@<TRIPOS>BOND
     1    68    67    2
     2    67    66    1
     3    69    66    1
     4    69    70    1
     5    66    65    1
     6     1     2    1
     7     7     5    1
     8    71    70   ar
     9    71    73   ar
    10    70    72   ar
    11     5     2    1
    12     5     6    1
    13    59    58    2
    14     4     3    2
    15    65    58   am
    16    73    75   ar
    17     2     3    1
    18    58    57    1
    19    72    74   ar
    20     3     8   am
    21    55    53    1
    22    51    50    2
    23    75    74   ar
    24    75    76    1
    25    53    54    1
    26    53    52    1
    27    48    49    1
    28     8     9    1
    29    50    56   am
    30    50    49    1
    31    57    56    1
    32    57    60    1
    33    22    24   ar
    34    22    20   ar
    35    19    20    1
    36    19    16    1
    37    61    60    1
    38    61    62    1
    39    24    25   ar
    40    49    52    1
    41    20    21   ar
    42     9    10    1
    43     9    12    1
    44    15    16    1
    45    15    10   am
    46    14    12    1
    47    64    62   ar
    48    62    63   ar
    49    25    23   ar
    50    21    23   ar
    51    16    17    1
    52    10    11    2
    53    12    13    1
    54    47    45    1
    55    18    17    2
    56    17    26   am
    57    45    44    2
    58    45    46    1
    59    44    43    1
    60    26    27    1
    61    43    42    1
    62    97    94    1
    63    42    41    1
    64    27    28    1
    65    27    30    1
    66    28    29    2
    67    37    38    1
    68   104   103    1
    69    41    38    1
    70    33    32    1
    71    33    34    2
    72    32    31    1
    73    36    34    1
    74    31    30    1
    75    34    35    1
    76    95    94    1
    77    95    96    2
    78    38    39    1
    79    94    93    1
    80    92    90    1
    81    84    82   ar
    82    91    90    1
    83   103   102    1
    84   103   105    1
    85    83    82   ar
    86   102    99    1
    87    90    89    1
    88    82    81    1
    89    39    40    2
    90    89    86    1
    91    88    87    2
    92   101   100    2
    93    87    86    1
    94    99   100    1
    95    99    98    1
    96    81    78    1
    97    86    85    1
    98    85    79   am
    99    77    78    1
   100    78    79    1
   101    79    80    2
