@<TRIPOS>MOLECULE
tmp/6fciA01.pdb
 105 101 0 0 0
SMALL
GASTEIGER

@<TRIPOS>ATOM
      1  N         -3.4900    5.6970  -10.3900 N.3    23  VAL23      -0.1231
      2  CA        -4.4680    6.0350   -9.3600 C.3    23  VAL23       0.1692
      3  C         -3.9390    5.7090   -7.9660 C.2    23  VAL23       0.2592
      4  O         -3.4680    4.5980   -7.7100 O.2    23  VAL23      -0.2718
      5  CB        -5.8000    5.2920   -9.5690 C.3    23  VAL23       0.0266
      6  CG1       -6.7480    5.5720   -8.4120 C.3    23  VAL23       0.0020
      7  CG2       -6.4320    5.6970  -10.8910 C.3    23  VAL23       0.0020
      8  N         -4.0170    6.6940   -7.0750 N.am   24  VAL24      -0.1966
      9  CA        -3.7660    6.4820   -5.6530 C.3    24  VAL24       0.1727
     10  C         -5.0880    6.3160   -4.9130 C.2    24  VAL24       0.2616
     11  O         -5.7910    7.2900   -4.6410 O.2    24  VAL24      -0.2715
     12  CB        -2.9920    7.6570   -5.0300 C.3    24  VAL24       0.0290
     13  CG1       -2.8450    7.4620   -3.5290 C.3    24  VAL24       0.0023
     14  CG2       -1.6280    7.8000   -5.6860 C.3    24  VAL24       0.0023
     15  N         -5.4160    5.0730   -4.5860 N.am   25  PHE25      -0.1960
     16  CA        -6.7530    4.7400   -4.1220 C.3    25  PHE25       0.1771
     17  C         -6.8620    4.9810   -2.6210 C.2    25  PHE25       0.2619
     18  O         -6.0560    4.4720   -1.8440 O.2    25  PHE25      -0.2715
     19  CB        -7.0860    3.2830   -4.4460 C.3    25  PHE25       0.0574
     20  CG        -8.5430    2.9480   -4.2940 C.ar   25  PHE25      -0.0200
     21  CD1       -9.4310    3.1810   -5.3280 C.ar   25  PHE25      -0.0042
     22  CD2       -9.0270    2.4220   -3.1090 C.ar   25  PHE25      -0.0042
     23  CE1      -10.7730    2.8850   -5.1880 C.ar   25  PHE25      -0.0003
     24  CE2      -10.3670    2.1190   -2.9620 C.ar   25  PHE25      -0.0003
     25  CZ       -11.2410    2.3500   -4.0050 C.ar   25  PHE25      -0.0000
     26  N         -7.8390    5.7900   -2.2240 N.am   26  ARG26      -0.1977
     27  CA        -8.1020    6.0300   -0.8070 C.3    26  ARG26       0.1597
     28  C         -9.1620    5.0660   -0.2830 C.2    26  ARG26       0.2287
     29  O        -10.3190    5.1080   -0.7050 O.2    26  ARG26      -0.2864
     30  CB        -8.5440    7.4750   -0.5710 C.3    26  ARG26       0.0334
     31  CG        -7.6730    8.5130   -1.2590 C.3    26  ARG26       0.0492
     32  CD        -6.2500    8.5050   -0.7300 C.3    26  ARG26       0.2205
     33  NE        -5.4120    9.4730   -1.4320 N.pl3  26  ARG26      -0.0865
     34  CZ        -4.1740    9.7970   -1.0690 C.cat  26  ARG26       0.5346
     35  NH1       -3.6200    9.2290   -0.0080 N.pl3  26  ARG26       0.1354
     36  NH2       -3.4900   10.6910   -1.7690 N.pl3  26  ARG26       0.1354
     37  N        -20.6390    3.4790   -2.5070 N.3    66  ARG66      -0.1245
     38  CA       -19.9180    3.8420   -1.2940 C.3    66  ARG66       0.1563
     39  C        -20.5720    5.0210   -0.5820 C.2    66  ARG66       0.2260
     40  O        -20.4470    5.1650    0.6300 O.2    66  ARG66      -0.2867
     41  CB       -18.4520    4.1440   -1.6040 C.3    66  ARG66       0.0307
     42  CG       -17.6140    2.8890   -1.7580 C.3    66  ARG66       0.0489
     43  CD       -16.1450    3.2160   -1.9190 C.3    66  ARG66       0.2205
     44  NE       -15.7550    3.2780   -3.3220 N.pl3  66  ARG66      -0.0865
     45  CZ       -14.7460    4.0090   -3.7840 C.cat  66  ARG66       0.5346
     46  NH1      -14.0450    4.7740   -2.9590 N.pl3  66  ARG66       0.1354
     47  NH2      -14.4460    3.9800   -5.0720 N.pl3  66  ARG66       0.1354
     48  N        -15.7720    9.0980  -14.2190 N.3   102  LEU102     -0.1231
     49  CA       -15.1370    9.2980  -12.9310 C.3   102  LEU102      0.1693
     50  C        -13.6370    9.1590  -13.1450 C.2   102  LEU102      0.2592
     51  O        -13.1810    9.0170  -14.2820 O.2   102  LEU102     -0.2718
     52  CB       -15.6380    8.2590  -11.9250 C.3   102  LEU102      0.0284
     53  CG       -15.4170    6.8000  -12.3360 C.3   102  LEU102      0.0019
     54  CD1      -15.1820    5.9350  -11.1080 C.3   102  LEU102      0.0001
     55  CD2      -16.5910    6.2760  -13.1500 C.3   102  LEU102      0.0001
     56  N        -12.8730    9.1690  -12.0610 N.am  103  GLU103     -0.1966
     57  CA       -11.4160    9.2200  -12.1750 C.3   103  GLU103      0.1733
     58  C        -10.8630    8.0800  -13.0290 C.2   103  GLU103      0.2616
     59  O         -9.9350    8.2830  -13.8100 O.2   103  GLU103     -0.2715
     60  CB       -10.7460    9.1980  -10.8010 C.3   103  GLU103      0.0429
     61  CG        -9.2340    9.3560  -10.8890 C.3   103  GLU103      0.1163
     62  CD        -8.5380    9.2580   -9.5470 C.2   103  GLU103      0.3649
     63  OE1       -9.2250    9.0780   -8.5210 O.co2 103  GLU103     -0.2457
     64  OE2       -7.2930    9.3580   -9.5250 O.co2 103  GLU103     -0.2457
     65  N        -11.3980    6.8760  -12.8500 N.am  104  TYR104     -0.1974
     66  CA       -10.7950    5.6860  -13.4590 C.3   104  TYR104      0.1639
     67  C        -11.7680    4.8800  -14.3150 C.2   104  TYR104      0.2290
     68  O        -11.5970    3.6750  -14.4990 O.2   104  TYR104     -0.2864
     69  CB       -10.1610    4.7830  -12.3940 C.3   104  TYR104      0.0560
     70  CG       -11.0160    4.5440  -11.1680 C.ar  104  TYR104     -0.0198
     71  CD1      -12.1640    3.7640  -11.2360 C.ar  104  TYR104     -0.0009
     72  CD2      -10.6400    5.0490   -9.9290 C.ar  104  TYR104     -0.0009
     73  CE1      -12.9390    3.5330  -10.1150 C.ar  104  TYR104      0.0417
     74  CE2      -11.4000    4.8090   -8.7990 C.ar  104  TYR104      0.0417
     75  CZ       -12.5530    4.0590   -8.8990 C.ar  104  TYR104      0.1957
     76  OH       -13.3130    3.8180   -7.7800 O.3   104  TYR104     -0.2866
     77  N        -18.7780    9.2370   -0.6720 N.3   127  ASP127     -0.1225
     78  CA       -17.6070    8.9500    0.1500 C.3   127  ASP127      0.1805
     79  C        -16.4170    9.8170   -0.2580 C.2   127  ASP127      0.2597
     80  O        -15.7130   10.3630    0.5930 O.2   127  ASP127     -0.2718
     81  CB       -17.2450    7.4620    0.0930 C.3   127  ASP127      0.1424
     82  CG       -16.6810    7.0390   -1.2510 C.2   127  ASP127      0.3668
     83  OD1      -17.2640    7.4040   -2.2930 O.co2 127  ASP127     -0.2456
     84  OD2      -15.6720    6.3010   -1.2610 O.co2 127  ASP127     -0.2456
     85  N        -16.2180    9.9720   -1.5610 N.am  128  LEU128     -0.1979
     86  CA       -15.0400   10.6750   -2.0660 C.3   128  LEU128      0.1596
     87  C        -15.3930   11.4970   -3.3010 C.2   128  LEU128      0.2287
     88  O        -16.1570   11.0480   -4.1580 O.2   128  LEU128     -0.2864
     89  CB       -13.9250    9.6700   -2.3810 C.3   128  LEU128      0.0297
     90  CG       -12.5470   10.2090   -2.7850 C.3   128  LEU128      0.0022
     91  CD1      -11.4470    9.3420   -2.1910 C.3   128  LEU128      0.0001
     92  CD2      -12.4160   10.2610   -4.2980 C.3   128  LEU128      0.0001
     93  N        -13.5110   13.0900   -6.5610 N.3   130  ALA130     -0.1245
     94  CA       -12.2990   13.1470   -7.3730 C.3   130  ALA130      0.1562
     95  C        -12.4660   14.1290   -8.5340 C.2   130  ALA130      0.2260
     96  O        -12.2970   15.3330   -8.3500 O.2   130  ALA130     -0.2867
     97  CB       -11.9250   11.7610   -7.8800 C.3   130  ALA130      0.0290
     98  N        -10.0340   14.9480   -3.4210 N.3   158  LEU158     -0.1245
     99  CA        -8.7340   14.9390   -4.0930 C.3   158  LEU158      0.1561
    100  C         -8.5540   16.2100   -4.9170 C.2   158  LEU158      0.2260
    101  O         -8.9690   16.2810   -6.0730 O.2   158  LEU158     -0.2867
    102  CB        -8.5970   13.7030   -4.9880 C.3   158  LEU158      0.0270
    103  CG        -8.9210   12.3610   -4.3220 C.3   158  LEU158      0.0019
    104  CD1       -8.7590   11.2150   -5.3080 C.3   158  LEU158      0.0001
    105  CD2       -8.0540   12.1370   -3.0920 C.3   158  LEU158      0.0001
@<TRIPOS>BOND
     1    68    67    2
     2    67    66    1
     3    51    50    2
     4    48    49    1
     5    59    58    2
     6    66    65    1
     7    66    69    1
     8    55    53    1
     9    50    49    1
    10    50    56   am
    11    58    65   am
    12    58    57    1
    13    49    52    1
    14    69    70    1
    15    53    52    1
    16    53    54    1
    17    57    56    1
    18    57    60    1
    19    71    70   ar
    20    71    73   ar
    21    70    72   ar
    22     7     5    1
    23    61    60    1
    24    61    62    1
    25     1     2    1
    26    73    75   ar
    27    72    74   ar
    28     5     2    1
    29     5     6    1
    30    62    64   ar
    31    62    63   ar
    32     2     3    1
    33    75    74   ar
    34    75    76    1
    35    95    96    2
    36    95    94    1
    37     3     4    2
    38     3     8   am
    39    97    94    1
    40    94    93    1
    41     8     9    1
    42   101   100    2
    43    14    12    1
    44     9    12    1
    45     9    10    1
    46    21    23   ar
    47    21    20   ar
    48   104   103    1
    49    23    25   ar
    50    47    45    1
    51    12    13    1
    52   102   103    1
    53   102    99    1
    54   100    99    1
    55    10    11    2
    56    10    15   am
    57    15    16    1
    58    19    20    1
    59    19    16    1
    60   103   105    1
    61    92    90    1
    62    20    22   ar
    63    88    87    2
    64    16    17    1
    65    99    98    1
    66    25    24   ar
    67    45    44    2
    68    45    46    1
    69    44    43    1
    70    87    86    1
    71    22    24   ar
    72    90    89    1
    73    90    91    1
    74    17    26   am
    75    17    18    2
    76    37    38    1
    77    89    86    1
    78    83    82   ar
    79    26    27    1
    80    86    85    1
    81    43    42    1
    82    36    34    1
    83    42    41    1
    84    41    38    1
    85    85    79   am
    86    33    34    2
    87    33    32    1
    88    38    39    1
    89    84    82   ar
    90    31    32    1
    91    31    30    1
    92    82    81    1
    93    34    35    1
    94    27    30    1
    95    27    28    1
    96    29    28    2
    97    77    78    1
    98    39    40    2
    99    79    78    1
   100    79    80    2
   101    81    78    1
