@<TRIPOS>MOLECULE
tmp/6fcjA00.pdb
 135 123 0 0 0
SMALL
GASTEIGER

@<TRIPOS>ATOM
      1  N         64.4140   33.3840   33.0200 N.3    33  LEU33      -0.1245
      2  CA        63.7600   32.7870   31.8680 C.3    33  LEU33       0.1561
      3  C         62.4760   33.5110   31.5010 C.2    33  LEU33       0.2260
      4  O         62.3090   33.8390   30.3270 O.2    33  LEU33      -0.2867
      5  CB        63.5150   31.2810   32.1100 C.3    33  LEU33       0.0270
      6  CG        64.8020   30.4100   32.2260 C.3    33  LEU33       0.0019
      7  CD1       64.4700   28.9750   32.3760 C.3    33  LEU33       0.0001
      8  CD2       65.7680   30.6160   31.0340 C.3    33  LEU33       0.0001
      9  N         63.2360   36.9180   30.0120 N.3    36  ASN36      -0.1225
     10  CA        63.6790   36.7520   28.6220 C.3    36  ASN36       0.1785
     11  C         62.4720   36.5380   27.7480 C.2    36  ASN36       0.2597
     12  O         62.4120   37.0980   26.6530 O.2    36  ASN36      -0.2718
     13  CB        64.6150   35.5620   28.4670 C.3    36  ASN36       0.1169
     14  CG        66.0580   35.7640   28.9020 C.2    36  ASN36       0.2627
     15  OD1       66.4470   36.7790   29.4900 O.2    36  ASN36      -0.2716
     16  ND2       66.8790   34.7530   28.6740 N.am   36  ASN36      -0.0877
     17  N         61.4930   35.7450   28.2220 N.am   37  SER37      -0.1952
     18  CA        60.2590   35.5130   27.4700 C.3    37  SER37       0.1924
     19  C         59.5310   36.8520   27.2830 C.2    37  SER37       0.2314
     20  O         59.1360   37.1790   26.1620 O.2    37  SER37      -0.2863
     21  CB        59.3820   34.4830   28.1760 C.3    37  SER37       0.2116
     22  OG        59.8890   33.1770   27.9530 O.3    37  SER37      -0.2180
     23  N         60.9480   39.8780   27.2950 N.3    39  ASP39      -0.1225
     24  CA        61.7420   40.6550   26.3460 C.3    39  ASP39       0.1805
     25  C         61.4390   40.2500   24.8930 C.2    39  ASP39       0.2597
     26  O         61.2700   41.1300   24.0440 O.2    39  ASP39      -0.2718
     27  CB        63.2360   40.5500   26.6640 C.3    39  ASP39       0.1424
     28  CG        63.7120   41.2550   27.9300 C.2    39  ASP39       0.3668
     29  OD1       62.8900   41.9570   28.5780 O.co2  39  ASP39      -0.2456
     30  OD2       64.9110   41.1250   28.2630 O.co2  39  ASP39      -0.2456
     31  N         61.3120   38.9210   24.6290 N.am   40  ALA40      -0.1979
     32  CA        60.9790   38.3470   23.3190 C.3    40  ALA40       0.1597
     33  C         59.5560   38.7410   22.8910 C.2    40  ALA40       0.2287
     34  O         59.3250   38.9820   21.7050 O.2    40  ALA40      -0.2864
     35  CB        61.1120   36.8400   23.3610 C.3    40  ALA40       0.0319
     36  N         59.6320   42.4270   21.8420 N.3    43  LYS43      -0.1245
     37  CA        60.2310   42.5780   20.5080 C.3    43  LYS43       0.1561
     38  C         59.2080   42.3300   19.4040 C.2    43  LYS43       0.2260
     39  O         59.1390   43.1160   18.4480 O.2    43  LYS43      -0.2867
     40  CB        61.4760   41.6900   20.3180 C.3    43  LYS43       0.0271
     41  CG        62.7080   42.1200   21.1270 C.3    43  LYS43       0.0035
     42  CD        63.8980   41.1760   20.8790 C.3    43  LYS43       0.0206
     43  CE        65.1470   41.5270   21.6590 C.3    43  LYS43       0.1093
     44  NZ        66.2370   40.5360   21.4280 N.3    43  LYS43      -0.1314
     45  N         59.3880   26.3040   29.7200 N.3    76  ILE76      -0.1245
     46  CA        58.9630   27.7070   29.6590 C.3    76  ILE76       0.1561
     47  C         58.7320   28.0040   28.1940 C.2    76  ILE76       0.2260
     48  O         59.6840   27.9920   27.3960 O.2    76  ILE76      -0.2867
     49  CB        59.9160   28.7390   30.3350 C.3    76  ILE76       0.0252
     50  CG1       60.2410   28.3680   31.7980 C.3    76  ILE76       0.0019
     51  CG2       59.3000   30.1470   30.2780 C.3    76  ILE76       0.0019
     52  CD1       61.3140   27.2500   32.0170 C.3    76  ILE76       0.0001
     53  N         57.0980   30.6520   25.3150 N.3    78  ASP78      -0.1239
     54  CA        56.6600   31.9920   24.9630 C.3    78  ASP78       0.1674
     55  C         56.3280   32.0590   23.4670 C.2    78  ASP78       0.2266
     56  O         56.8600   31.2900   22.6580 O.2    78  ASP78      -0.2867
     57  CB        57.6320   33.0980   25.4040 C.3    78  ASP78       0.1410
     58  CG        58.9450   33.1280   24.6660 C.2    78  ASP78       0.3668
     59  OD1       58.9830   33.6820   23.5390 O.co2  78  ASP78      -0.2456
     60  OD2       59.9340   32.6150   25.2130 O.co2  78  ASP78      -0.2456
     61  N         59.2950   36.8520   19.7900 N.3    81  ILE81      -0.1231
     62  CA        59.9550   37.0640   18.4940 C.3    81  ILE81       0.1692
     63  C         60.6160   35.7770   17.9240 C.2    81  ILE81       0.2593
     64  O         60.6320   35.5880   16.7130 O.2    81  ILE81      -0.2718
     65  CB        60.9500   38.2910   18.5230 C.3    81  ILE81       0.0266
     66  CG1       61.4610   38.6850   17.1190 C.3    81  ILE81       0.0019
     67  CG2       62.1200   38.1080   19.4880 C.3    81  ILE81       0.0020
     68  CD1       60.5590   39.4450   16.3450 C.3    81  ILE81       0.0001
     69  N         61.1280   34.9220   18.7820 N.am   82  GLY82      -0.1942
     70  CA        61.8240   33.7260   18.3380 C.3    82  GLY82       0.2014
     71  C         63.2310   34.0240   17.8350 C.2    82  GLY82       0.2638
     72  O         63.6480   35.1900   17.7710 O.2    82  GLY82      -0.2714
     73  N         63.9790   32.9670   17.4680 N.am   83  MET83      -0.1976
     74  CA        65.3530   33.1190   16.9750 C.3    83  MET83       0.1605
     75  C         65.5950   32.4340   15.6300 C.2    83  MET83       0.2287
     76  O         65.0900   31.3380   15.3940 O.2    83  MET83      -0.2864
     77  CB        66.3510   32.5760   18.0200 C.3    83  MET83       0.0413
     78  CG        66.4230   33.4040   19.2700 C.3    83  MET83       0.0598
     79  SD        67.5160   32.7230   20.5030 S.3    83  MET83      -0.1393
     80  CE        66.3870   31.6370   21.3800 C.3    83  MET83       0.0692
     81  N         73.1450   32.9580   21.5850 N.3    92  LEU92      -0.1231
     82  CA        71.6990   33.0010   21.7120 C.3    92  LEU92       0.1693
     83  C         71.2310   34.4790   21.6560 C.2    92  LEU92       0.2593
     84  O         70.7860   35.0320   22.6570 O.2    92  LEU92      -0.2718
     85  CB        71.1280   32.1800   22.9130 C.3    92  LEU92       0.0284
     86  CG        71.1410   30.6580   22.7520 C.3    92  LEU92       0.0019
     87  CD1       72.5390   30.0950   22.9610 C.3    92  LEU92       0.0001
     88  CD2       70.2080   30.0210   23.7060 C.3    92  LEU92       0.0001
     89  N         71.4220   35.1040   20.4880 N.am   93  GLY93      -0.1942
     90  CA        71.0510   36.4830   20.1800 C.3    93  GLY93       0.2014
     91  C         71.4870   37.5670   21.1550 C.2    93  GLY93       0.2639
     92  O         70.7760   38.5680   21.3240 O.2    93  GLY93      -0.2714
     93  N         72.6630   37.3850   21.8060 N.am   94  THR94      -0.1950
     94  CA        73.2140   38.3510   22.7710 C.3    94  THR94       0.1897
     95  C         74.7220   38.6070   22.6290 C.2    94  THR94       0.2313
     96  O         75.4390   37.8820   21.9230 O.2    94  THR94      -0.2863
     97  CB        72.8780   37.9660   24.2300 C.3    94  THR94       0.1794
     98  OG1       72.9960   36.5550   24.4190 O.3    94  THR94      -0.2208
     99  CG2       71.5240   38.4760   24.6780 C.3    94  THR94       0.0378
    100  N         72.9170   40.6370   31.1210 N.3   120  GLY120     -0.1225
    101  CA        72.2940   40.0320   29.9460 C.3   120  GLY120      0.1811
    102  C         72.6270   38.5790   29.6780 C.2   120  GLY120      0.2280
    103  O         72.4950   38.1120   28.5420 O.2   120  GLY120     -0.2866
    104  N         70.0350   33.7020   30.9960 N.3   123  PHE123     -0.1241
    105  CA        69.6620   32.4050   30.4390 C.3   123  PHE123      0.1605
    106  C         70.4860   31.2590   31.0540 C.2   123  PHE123      0.2264
    107  O         69.9390   30.1850   31.3240 O.2   123  PHE123     -0.2867
    108  CB        69.8050   32.4110   28.8880 C.3   123  PHE123      0.0534
    109  CG        69.6970   31.0350   28.2610 C.ar  123  PHE123     -0.0203
    110  CD1       68.4590   30.4270   28.0820 C.ar  123  PHE123     -0.0042
    111  CD2       70.8370   30.3150   27.9230 C.ar  123  PHE123     -0.0042
    112  CE1       68.3610   29.1450   27.5320 C.ar  123  PHE123     -0.0003
    113  CE2       70.7370   29.0190   27.3990 C.ar  123  PHE123     -0.0003
    114  CZ        69.5010   28.4510   27.1970 C.ar  123  PHE123     -0.0000
    115  N         66.4150   24.1220   23.6100 N.3   135  VAL135     -0.1245
    116  CA        65.7450   25.3500   23.2320 C.3   135  VAL135      0.1561
    117  C         65.1770   25.1480   21.8350 C.2   135  VAL135      0.2260
    118  O         65.9590   25.0030   20.8910 O.2   135  VAL135     -0.2867
    119  CB        66.6370   26.6230   23.3400 C.3   135  VAL135      0.0252
    120  CG1       65.9000   27.8530   22.8200 C.3   135  VAL135      0.0019
    121  CG2       67.1300   26.8570   24.7610 C.3   135  VAL135      0.0019
    122  N         59.6690   30.8150   21.5330 N.3   169  THR169     -0.1218
    123  CA        60.7290   30.0010   22.1420 C.3   169  THR169      0.1862
    124  C         60.1600   29.0870   23.2320 C.2   169  THR169      0.2287
    125  O         59.3370   29.5000   24.0470 O.2   169  THR169     -0.2866
    126  CB        61.8730   30.9160   22.5990 C.3   169  THR169      0.1770
    127  OG1       62.3140   31.6560   21.4620 O.3   169  THR169     -0.2211
    128  CG2       63.0550   30.1680   23.2340 C.3   169  THR169      0.0375
    129  N         61.7470   26.6670   26.1250 N.3   171  VAL171     -0.1245
    130  CA        62.9450   26.3160   26.9030 C.3   171  VAL171      0.1561
    131  C         62.5900   25.0950   27.7480 C.2   171  VAL171      0.2260
    132  O         61.7750   25.2060   28.6570 O.2   171  VAL171     -0.2867
    133  CB        63.5470   27.4690   27.7660 C.3   171  VAL171      0.0252
    134  CG1       64.7530   26.9730   28.5630 C.3   171  VAL171      0.0019
    135  CG2       63.9430   28.6530   26.9000 C.3   171  VAL171      0.0019
@<TRIPOS>BOND
     1    76    75    2
     2    75    74    1
     3    68    66    1
     4    64    63    2
     5    74    73    1
     6    74    77    1
     7    66    65    1
     8    73    71   am
     9    72    71    2
    10    71    70    1
    11    63    62    1
    12    63    69   am
    13    77    78    1
    14    70    69    1
    15    39    38    2
    16    62    65    1
    17    62    61    1
    18    65    67    1
    19    78    79    1
    20    38    37    1
    21    90    89    1
    22    90    91    1
    23    40    37    1
    24    40    41    1
    25    89    83   am
    26    79    80    1
    27    37    36    1
    28    42    41    1
    29    42    43    1
    30   118   117    2
    31    91    92    2
    32    91    93   am
    33    44    43    1
    34   127   126    1
    35   122   123    1
    36    81    82    1
    37    83    82    1
    38    83    84    2
    39    34    33    2
    40    82    85    1
    41    93    94    1
    42   117   116    1
    43    96    95    2
    44   123   126    1
    45   123   124    1
    46   126   128    1
    47    95    94    1
    48    56    55    2
    49    86    85    1
    50    86    87    1
    51    86    88    1
    52    94    97    1
    53   120   119    1
    54    33    32    1
    55   116   119    1
    56   116   115    1
    57   124   125    2
    58    32    35    1
    59    32    31    1
    60   119   121    1
    61    55    54    1
    62    59    58   ar
    63    26    25    2
    64    97    98    1
    65    97    99    1
    66    31    25   am
    67    58    60   ar
    68    58    57    1
    69    25    24    1
    70    54    53    1
    71    54    57    1
    72   129   130    1
    73    20    19    2
    74    24    27    1
    75    24    23    1
    76    12    11    2
    77    27    28    1
    78   135   133    1
    79   130   131    1
    80   130   133    1
    81   114   113   ar
    82   114   112   ar
    83    19    18    1
    84    48    47    2
    85   113   111   ar
    86    18    21    1
    87    18    17    1
    88   112   110   ar
    89    11    17   am
    90    11    10    1
    91   131   132    2
    92   133   134    1
    93   111   109   ar
    94    28    30   ar
    95    28    29   ar
    96    22    21    1
    97   110   109   ar
    98    47    46    1
    99   109   108    1
   100    13    10    1
   101    13    14    1
   102   103   102    2
   103    10     9    1
   104    16    14   am
   105   108   105    1
   106    14    15    2
   107    46    45    1
   108    46    49    1
   109   102   101    1
   110   101   100    1
   111    51    49    1
   112     4     3    2
   113    49    50    1
   114   105   104    1
   115   105   106    1
   116     8     6    1
   117   106   107    2
   118     3     2    1
   119    50    52    1
   120     2     5    1
   121     2     1    1
   122     5     6    1
   123     6     7    1
