@<TRIPOS>MOLECULE
tmp/6fckA00.pdb
 167 157 0 0 0
SMALL
GASTEIGER

@<TRIPOS>ATOM
      1  N         -6.2490   -7.7440   46.2090 N.3    12  GLN12      -0.1245
      2  CA        -5.8810   -8.4520   44.9880 C.3    12  GLN12       0.1566
      3  C         -4.3970   -8.4260   44.7510 C.2    12  GLN12       0.2260
      4  O         -3.6900   -7.6270   45.3690 O.2    12  GLN12      -0.2867
      5  CB        -6.6030   -7.8210   43.7590 C.3    12  GLN12       0.0367
      6  CG        -6.1950   -6.3640   43.4300 C.3    12  GLN12       0.0905
      7  CD        -7.2090   -5.6520   42.5560 C.2    12  GLN12       0.2608
      8  OE1       -8.4110   -5.8950   42.6290 O.2    12  GLN12      -0.2717
      9  NE2       -6.7440   -4.7930   41.6720 N.am   12  GLN12      -0.0878
     10  N         -1.2360   -7.4270   42.5940 N.3    14  LEU14      -0.1231
     11  CA        -0.8530   -6.3300   41.7120 C.3    14  LEU14       0.1693
     12  C          0.1490   -6.8390   40.6900 C.2    14  LEU14       0.2593
     13  O          0.0890   -6.4680   39.5220 O.2    14  LEU14      -0.2718
     14  CB        -0.2690   -5.1650   42.5120 C.3    14  LEU14       0.0284
     15  CG        -1.2710   -4.4150   43.3740 C.3    14  LEU14       0.0019
     16  CD1       -0.5560   -3.4350   44.2860 C.3    14  LEU14       0.0001
     17  CD2       -2.3370   -3.6930   42.5050 C.3    14  LEU14       0.0001
     18  N          1.0460   -7.6980   41.1330 N.am   15  GLY15      -0.1942
     19  CA         2.0400   -8.3010   40.2650 C.3    15  GLY15       0.2014
     20  C          2.6560   -9.5460   40.8410 C.2    15  GLY15       0.2639
     21  O          2.5110   -9.8280   42.0330 O.2    15  GLY15      -0.2714
     22  N          3.3360  -10.3010   39.9740 N.am   16  GLU16      -0.1963
     23  CA         4.0450  -11.5270   40.3210 C.3    16  GLU16       0.1733
     24  C          5.4820  -11.4830   39.8170 C.2    16  GLU16       0.2616
     25  O          5.7810  -10.8530   38.7920 O.2    16  GLU16      -0.2715
     26  CB         3.3030  -12.7700   39.8090 C.3    16  GLU16       0.0429
     27  CG         2.1120  -13.1340   40.6840 C.3    16  GLU16       0.1163
     28  CD         1.1040  -14.1300   40.1370 C.2    16  GLU16       0.3649
     29  OE1        1.1750  -14.4750   38.9340 O.co2  16  GLU16      -0.2457
     30  OE2        0.2200  -14.5490   40.9180 O.co2  16  GLU16      -0.2457
     31  N          6.3540  -12.1370   40.5740 N.am   17  GLY17      -0.1955
     32  CA         7.7740  -12.2670   40.2780 C.3    17  GLY17       0.1869
     33  C          8.3070  -13.5960   40.7700 C.2    17  GLY17       0.2309
     34  O          7.5410  -14.4220   41.2880 O.2    17  GLY17      -0.2863
     35  N          3.1090   -9.2040   44.7360 N.3    22  VAL22      -0.1245
     36  CA         2.8030   -7.9010   45.3290 C.3    22  VAL22       0.1561
     37  C          1.2880   -7.8450   45.4440 C.2    22  VAL22       0.2260
     38  O          0.5930   -8.1170   44.4720 O.2    22  VAL22      -0.2867
     39  CB         3.3940   -6.7150   44.5140 C.3    22  VAL22       0.0252
     40  CG1        3.0090   -5.3720   45.1430 C.3    22  VAL22       0.0019
     41  CG2        4.9150   -6.8280   44.4040 C.3    22  VAL22       0.0019
     42  N          1.1560   -1.1920   49.0440 N.3    35  ALA35      -0.1245
     43  CA         1.5320   -2.3380   48.2350 C.3    35  ALA35       0.1562
     44  C          2.3680   -3.2190   49.1730 C.2    35  ALA35       0.2260
     45  O          3.2190   -2.6990   49.9110 O.2    35  ALA35      -0.2867
     46  CB         2.3550   -1.8950   47.0400 C.3    35  ALA35       0.0290
     47  N          9.7670    4.6730   44.1310 N.3    67  VAL67      -0.1245
     48  CA         8.7120    4.0970   44.9910 C.3    67  VAL67       0.1561
     49  C          9.1780    4.1790   46.4580 C.2    67  VAL67       0.2260
     50  O         10.2810    3.7050   46.7830 O.2    67  VAL67      -0.2867
     51  CB         8.3650    2.6210   44.6250 C.3    67  VAL67       0.0252
     52  CG1        7.3950    2.0180   45.6510 C.3    67  VAL67       0.0019
     53  CG2        7.7780    2.5130   43.2110 C.3    67  VAL67       0.0019
     54  N          5.3360   -0.9990   50.7290 N.3    83  LEU83      -0.1231
     55  CA         5.6840   -0.0150   49.7180 C.3    83  LEU83       0.1693
     56  C          4.5300    0.8650   49.3430 C.2    83  LEU83       0.2592
     57  O          3.3620    0.5020   49.5220 O.2    83  LEU83      -0.2718
     58  CB         6.1760   -0.7790   48.4500 C.3    83  LEU83       0.0284
     59  CG         7.3600   -1.7610   48.6720 C.3    83  LEU83       0.0019
     60  CD1        7.2600   -2.9600   47.7360 C.3    83  LEU83       0.0001
     61  CD2        8.6770   -1.0590   48.4850 C.3    83  LEU83       0.0001
     62  N          4.8730    2.0480   48.8280 N.am   84  GLU84      -0.1966
     63  CA         3.9280    3.0370   48.3470 C.3    84  GLU84       0.1733
     64  C          3.1120    2.3880   47.2400 C.2    84  GLU84       0.2616
     65  O          3.6990    1.8710   46.2930 O.2    84  GLU84      -0.2715
     66  CB         4.7380    4.1910   47.7400 C.3    84  GLU84       0.0429
     67  CG         3.9100    5.2810   47.0910 C.3    84  GLU84       0.1163
     68  CD         4.7260    6.4020   46.4800 C.2    84  GLU84       0.3649
     69  OE1        4.1240    7.4490   46.1620 O.co2  84  GLU84      -0.2457
     70  OE2        5.9610    6.2520   46.3370 O.co2  84  GLU84      -0.2457
     71  N          1.7820    2.4270   47.3520 N.am   85  TYR85      -0.1960
     72  CA         0.9260    1.9050   46.2910 C.3    85  TYR85       0.1771
     73  C          0.8640    2.9450   45.1660 C.2    85  TYR85       0.2620
     74  O          0.4530    4.1010   45.3980 O.2    85  TYR85      -0.2715
     75  CB        -0.4810    1.5540   46.8240 C.3    85  TYR85       0.0574
     76  CG        -1.4580    1.1690   45.7350 C.ar   85  TYR85      -0.0198
     77  CD1       -1.1560    0.1570   44.8270 C.ar   85  TYR85      -0.0009
     78  CD2       -2.6440    1.8770   45.5530 C.ar   85  TYR85      -0.0009
     79  CE1       -2.0270   -0.1710   43.7890 C.ar   85  TYR85       0.0417
     80  CE2       -3.5510    1.5230   44.5530 C.ar   85  TYR85       0.0417
     81  CZ        -3.2400    0.4880   43.6790 C.ar   85  TYR85       0.1957
     82  OH        -4.0960    0.1350   42.6750 O.3    85  TYR85      -0.2866
     83  N          1.3480    2.5570   43.9730 N.am   86  CYS86      -0.1954
     84  CA         1.3770    3.4380   42.8080 C.3    86  CYS86       0.1843
     85  C          0.1830    3.1250   41.9510 C.2    86  CYS86       0.2626
     86  O          0.2020    2.1910   41.1560 O.2    86  CYS86      -0.2714
     87  CB         2.6960    3.2980   42.0620 C.3    86  CYS86       0.0997
     88  SG         4.1360    3.7330   43.0800 S.3    86  CYS86      -0.0797
     89  N         -0.9060    3.8730   42.1990 N.am   87  SER87      -0.1936
     90  CA        -2.2200    3.6190   41.6200 C.3    87  SER87       0.2055
     91  C         -2.3360    3.8430   40.0960 C.2    87  SER87       0.2644
     92  O         -3.3390    3.4330   39.5150 O.2    87  SER87      -0.2714
     93  CB        -3.2820    4.4130   42.3740 C.3    87  SER87       0.2130
     94  OG        -3.0720    5.8110   42.2450 O.3    87  SER87      -0.2179
     95  N         -1.3270    4.4330   39.4640 N.am   88  GLY88      -0.1939
     96  CA        -1.2870    4.6110   38.0130 C.3    88  GLY88       0.2014
     97  C         -0.8080    3.3730   37.2730 C.2    88  GLY88       0.2639
     98  O         -0.8560    3.3180   36.0420 O.2    88  GLY88      -0.2714
     99  N         -0.3720    2.3630   38.0200 N.am   89  GLY89      -0.1939
    100  CA         0.0920    1.0970   37.4610 C.3    89  GLY89       0.2014
    101  C          1.4530    1.1670   36.8060 C.2    89  GLY89       0.2641
    102  O          2.2020    2.1060   37.0510 O.2    89  GLY89      -0.2714
    103  N          1.7890    0.1640   35.9830 N.am   90  GLU90      -0.1931
    104  CA         3.0860    0.1010   35.2960 C.3    90  GLU90       0.1818
    105  C          3.0880    0.9710   34.0370 C.2    90  GLU90       0.2332
    106  O          2.1030    1.0120   33.2920 O.2    90  GLU90      -0.2860
    107  CB         3.4450   -1.3510   34.8840 C.2    90  GLU90       0.0097
    108  CG         3.4580   -2.3680   36.0140 C.2    90  GLU90       0.0837
    109  CD         3.7930   -3.8080   35.6620 C.2    90  GLU90       0.3877
    110  OE1        3.7900   -4.6460   36.5890 O.co2  90  GLU90      -0.2406
    111  OE2        4.1280   -4.0930   34.4920 O.co2  90  GLU90      -0.2406
    112  N          1.8770   -0.6720   30.6570 N.3    93  ASP93      -0.1239
    113  CA         0.4860   -0.6080   30.2040 C.3    93  ASP93       0.1674
    114  C          0.0730    0.7630   29.6300 C.2    93  ASP93       0.2266
    115  O         -1.0790    0.9370   29.2170 O.2    93  ASP93      -0.2867
    116  CB        -0.4610   -1.0860   31.3240 C.3    93  ASP93       0.1410
    117  CG        -0.1520   -2.5270   31.7010 C.2    93  ASP93       0.3668
    118  OD1       -0.2650   -3.4050   30.8230 O.co2  93  ASP93      -0.2456
    119  OD2        0.3080   -2.7570   32.8380 O.co2  93  ASP93      -0.2456
    120  N         13.1900   -1.1500   33.0530 N.3   131  LYS131     -0.1245
    121  CA        12.3150   -1.6110   31.9760 C.3   131  LYS131      0.1561
    122  C         10.9140   -1.1120   32.3240 C.2   131  LYS131      0.2260
    123  O         10.6750   -0.7860   33.4950 O.2   131  LYS131     -0.2867
    124  CB        12.3870   -3.1670   31.8120 C.3   131  LYS131      0.0271
    125  CG        12.0170   -3.9570   33.0750 C.3   131  LYS131      0.0035
    126  CD        12.0610   -5.4850   32.8000 C.3   131  LYS131      0.0206
    127  CE        11.6780   -6.2900   34.0240 C.3   131  LYS131      0.1093
    128  NZ        11.6460   -7.7650   33.7540 N.3   131  LYS131     -0.1314
    129  N          8.0830   -2.4540   32.9960 N.3   133  GLU133     -0.1231
    130  CA         7.4310   -3.2310   34.0460 C.3   133  GLU133      0.1699
    131  C          7.9270   -2.8100   35.4580 C.2   133  GLU133      0.2592
    132  O          7.2640   -3.1330   36.4430 O.2   133  GLU133     -0.2718
    133  CB         7.6540   -4.7390   33.8320 C.3   133  GLU133      0.0402
    134  CG         7.1810   -5.2360   32.4740 C.3   133  GLU133      0.1161
    135  CD         8.1570   -5.2020   31.3080 C.2   133  GLU133      0.3649
    136  OE1        9.0780   -4.3510   31.2770 O.co2 133  GLU133     -0.2457
    137  OE2        7.9680   -6.0320   30.3940 O.co2 133  GLU133     -0.2457
    138  N          9.0830   -2.1050   35.5540 N.am  134  ASN134     -0.1974
    139  CA         9.6660   -1.6690   36.8370 C.3   134  ASN134      0.1688
    140  C          9.6280   -0.1460   37.0030 C.2   134  ASN134      0.2292
    141  O         10.3600    0.4210   37.8110 O.2   134  ASN134     -0.2864
    142  CB        11.0910   -2.2390   37.0140 C.3   134  ASN134      0.1181
    143  CG        11.1480   -3.7440   37.0940 C.2   134  ASN134      0.2629
    144  OD1       10.1760   -4.4030   37.4450 O.2   134  ASN134     -0.2716
    145  ND2       12.2840   -4.3300   36.7360 N.am  134  ASN134     -0.0877
    146  N          6.6940    2.5420   37.7170 N.3   136  LEU136     -0.1245
    147  CA         5.2840    2.6810   38.0620 C.3   136  LEU136      0.1561
    148  C          4.8390    4.1210   38.0070 C.2   136  LEU136      0.2260
    149  O          5.6540    5.0280   37.8360 O.2   136  LEU136     -0.2867
    150  CB         4.9970    2.0780   39.4460 C.3   136  LEU136      0.0270
    151  CG         5.5530    0.6700   39.7230 C.3   136  LEU136      0.0019
    152  CD1        5.2310    0.2680   41.1230 C.3   136  LEU136      0.0001
    153  CD2        5.0400   -0.3650   38.7260 C.3   136  LEU136      0.0001
    154  N         10.8820    1.3820   40.5080 N.3   146  SER146     -0.1202
    155  CA        10.4210    0.3110   41.3820 C.3   146  SER146      0.2020
    156  C         11.3180   -0.9150   41.2290 C.2   146  SER146      0.2618
    157  O         12.1050   -0.9580   40.2950 O.2   146  SER146     -0.2717
    158  CB         9.0090   -0.0690   40.9150 C.3   146  SER146      0.2103
    159  OG         8.3900   -1.0210   41.7590 O.3   146  SER146     -0.2182
    160  N         11.1320   -1.9380   42.0920 N.am  147  ASP147     -0.1973
    161  CA        11.7780   -3.2670   42.0440 C.3   147  ASP147      0.1709
    162  C         13.3140   -3.2110   42.1500 C.2   147  ASP147      0.2293
    163  O         14.0250   -3.3350   41.1450 O.2   147  ASP147     -0.2864
    164  CB        11.3220   -4.0510   40.7880 C.3   147  ASP147      0.1436
    165  CG         9.8200   -4.3560   40.7140 C.2   147  ASP147      0.3671
    166  OD1        9.0120   -3.3990   40.7570 O.co2 147  ASP147     -0.2456
    167  OD2        9.4640   -5.5240   40.4580 O.co2 147  ASP147     -0.2456
@<TRIPOS>BOND
     1   115   114    2
     2   114   113    1
     3   113   112    1
     4   113   116    1
     5   137   135   ar
     6   118   117   ar
     7   136   135   ar
     8   135   134    1
     9   116   117    1
    10   117   119   ar
    11   124   121    1
    12   124   125    1
    13   121   122    1
    14   121   120    1
    15   122   123    2
    16   134   133    1
    17   126   125    1
    18   126   127    1
    19   129   130    1
    20   106   105    2
    21   128   127    1
    22   133   130    1
    23   105   104    1
    24   130   131    1
    25   111   109   ar
    26   107   104    1
    27   107   108    2
    28   104   103    1
    29   131   138   am
    30   131   132    2
    31   138   139    1
    32   109   108    1
    33   109   110   ar
    34   103   101   am
    35    98    97    2
    36   145   143   am
    37   101   102    2
    38   101   100    1
    39   139   140    1
    40   139   142    1
    41   140   141    2
    42   142   143    1
    43   143   144    2
    44    97    96    1
    45    97    99   am
    46   100    99    1
    47   146   147    1
    48   149   148    2
    49   148   147    1
    50    96    95    1
    51   147   150    1
    52   153   151    1
    53    25    24    2
    54    29    28   ar
    55   150   151    1
    56    95    91   am
    57    92    91    2
    58    13    12    2
    59   151   152    1
    60    26    23    1
    61    26    27    1
    62    24    23    1
    63    24    31   am
    64    22    23    1
    65    22    20   am
    66    91    90    1
    67    28    27    1
    68    28    30   ar
    69    19    20    1
    70    19    18    1
    71    32    31    1
    72    32    33    1
    73   157   156    2
    74   167   165   ar
    75   154   155    1
    76    12    18   am
    77    12    11    1
    78   165   166   ar
    79   165   164    1
    80    33    34    2
    81   164   161    1
    82    20    21    2
    83   158   155    1
    84   158   159    1
    85   163   162    2
    86    86    85    2
    87   156   155    1
    88   156   160   am
    89    90    89    1
    90    90    93    1
    91     9     7   am
    92    11    14    1
    93    11    10    1
    94    85    89   am
    95    85    84    1
    96   161   160    1
    97   161   162    1
    98    87    84    1
    99    87    88    1
   100    94    93    1
   101    17    15    1
   102    14    15    1
   103     7     8    2
   104     7     6    1
   105    82    81    1
   106    84    83    1
   107    53    51    1
   108    15    16    1
   109     6     5    1
   110    81    79   ar
   111    81    80   ar
   112     5     2    1
   113    79    77   ar
   114    83    73   am
   115    47    48    1
   116    41    39    1
   117    38    37    2
   118    39    40    1
   119    39    36    1
   120    80    78   ar
   121    51    48    1
   122    51    52    1
   123    35    36    1
   124     3     2    1
   125     3     4    2
   126    77    76   ar
   127     2     1    1
   128    48    49    1
   129    73    74    2
   130    73    72    1
   131    36    37    1
   132    78    76   ar
   133    76    75    1
   134    69    68   ar
   135    72    75    1
   136    72    71    1
   137    65    64    2
   138    70    68   ar
   139    49    50    2
   140    68    67    1
   141    46    43    1
   142    67    66    1
   143    64    71   am
   144    64    63    1
   145    60    59    1
   146    66    63    1
   147    43    42    1
   148    43    44    1
   149    63    62    1
   150    58    59    1
   151    58    55    1
   152    61    59    1
   153    62    56   am
   154    44    45    2
   155    56    57    2
   156    56    55    1
   157    55    54    1
