@<TRIPOS>MOLECULE
tmp/6fcqA00.pdb
 129 124 0 0 0
SMALL
GASTEIGER

@<TRIPOS>ATOM
      1  N         57.7200  -20.2600  -12.3820 N.3   474  GLN474     -0.1245
      2  CA        58.1330  -19.4440  -13.5470 C.3   474  GLN474      0.1566
      3  C         57.6770  -17.9780  -13.6670 C.2   474  GLN474      0.2260
      4  O         58.4810  -17.1000  -13.9800 O.2   474  GLN474     -0.2867
      5  CB        57.7890  -20.1840  -14.8450 C.3   474  GLN474      0.0367
      6  CG        58.5630  -21.4760  -15.0470 C.3   474  GLN474      0.0905
      7  CD        60.0170  -21.2350  -15.4000 C.2   474  GLN474      0.2608
      8  OE1       60.8030  -22.1750  -15.5240 O.2   474  GLN474     -0.2717
      9  NE2       60.3840  -19.9690  -15.5640 N.am  474  GLN474     -0.0878
     10  N         61.4770  -11.7020  -19.1220 N.3   483  SER483     -0.1202
     11  CA        62.7110  -12.0430  -18.4150 C.3   483  SER483      0.2020
     12  C         63.8230  -11.0430  -18.7190 C.2   483  SER483      0.2619
     13  O         63.7420  -10.2710  -19.6810 O.2   483  SER483     -0.2717
     14  CB        63.1710  -13.4530  -18.7920 C.3   483  SER483      0.2103
     15  OG        64.4860  -13.7060  -18.3470 O.3   483  SER483     -0.2182
     16  N         64.8780  -11.0940  -17.9070 N.am  484  GLY484     -0.1942
     17  CA        66.0900  -10.3120  -18.1430 C.3   484  GLY484      0.2014
     18  C         66.8270  -10.6620  -19.4310 C.2   484  GLY484      0.2638
     19  O         67.6560   -9.8770  -19.8910 O.2   484  GLY484     -0.2714
     20  N         66.5500  -11.8430  -19.9960 N.am  485  VAL485     -0.1977
     21  CA        67.0600  -12.2410  -21.3170 C.3   485  VAL485      0.1596
     22  C         65.9540  -12.4420  -22.3820 C.2   485  VAL485      0.2287
     23  O         66.2590  -12.8440  -23.5080 O.2   485  VAL485     -0.2864
     24  CB        67.9620  -13.5020  -21.2160 C.3   485  VAL485      0.0276
     25  CG1       68.8560  -13.4500  -19.9800 C.3   485  VAL485      0.0022
     26  CG2       67.1400  -14.7710  -21.1780 C.3   485  VAL485      0.0022
     27  N         62.7950  -14.3020  -22.1200 N.3   487  ALA487     -0.1245
     28  CA        61.7610  -15.3140  -21.8090 C.3   487  ALA487      0.1562
     29  C         60.4930  -14.6750  -21.2420 C.2   487  ALA487      0.2260
     30  O         60.5560  -14.0340  -20.1930 O.2   487  ALA487     -0.2867
     31  CB        62.2870  -16.3430  -20.8180 C.3   487  ALA487      0.0290
     32  N         57.1100  -18.5670  -18.5390 N.3   492  GLN492     -0.1231
     33  CA        58.3400  -17.8860  -19.0250 C.3   492  GLN492      0.1698
     34  C         59.0330  -18.5880  -20.1690 C.2   492  GLN492      0.2592
     35  O         60.0230  -19.3030  -19.9860 O.2   492  GLN492     -0.2718
     36  CB        59.3750  -17.6670  -17.9180 C.3   492  GLN492      0.0381
     37  CG        58.9340  -16.7960  -16.7580 C.3   492  GLN492      0.0905
     38  CD        59.0940  -15.3240  -17.0620 C.2   492  GLN492      0.2608
     39  OE1       58.3160  -14.7460  -17.8190 O.2   492  GLN492     -0.2717
     40  NE2       60.1130  -14.7080  -16.4750 N.am  492  GLN492     -0.0878
     41  N         58.5070  -18.3650  -21.3560 N.am  493  LEU493     -0.1966
     42  CA        58.9840  -19.0650  -22.5120 C.3   493  LEU493      0.1728
     43  C         60.0490  -18.3040  -23.1930 C.2   493  LEU493      0.2616
     44  O         59.9290  -17.0920  -23.3870 O.2   493  LEU493     -0.2715
     45  CB        57.8970  -19.2170  -23.5040 C.3   493  LEU493      0.0311
     46  CG        56.9190  -20.2280  -23.0040 C.3   493  LEU493      0.0022
     47  CD1       55.8110  -19.6590  -22.1510 C.3   493  LEU493      0.0001
     48  CD2       56.3770  -20.6660  -24.3000 C.3   493  LEU493      0.0001
     49  N         61.0520  -19.0440  -23.6370 N.am  494  MET494     -0.1977
     50  CA        62.1500  -18.4460  -24.3370 C.3   494  MET494      0.1605
     51  C         61.5950  -18.0240  -25.6950 C.2   494  MET494      0.2287
     52  O         60.9370  -18.8320  -26.3480 O.2   494  MET494     -0.2864
     53  CB        63.3020  -19.4480  -24.4730 C.3   494  MET494      0.0413
     54  CG        64.6870  -18.8670  -24.2970 C.3   494  MET494      0.0598
     55  SD        64.6810  -17.4580  -23.1860 S.3   494  MET494     -0.1393
     56  CE        66.2960  -17.5650  -22.4600 C.3   494  MET494      0.0692
     57  N         63.0000  -20.2390  -28.2290 N.3   497  THR497     -0.1218
     58  CA        62.3700  -21.5600  -28.0570 C.3   497  THR497      0.1862
     59  C         60.8800  -21.5450  -28.4200 C.2   497  THR497      0.2287
     60  O         60.3910  -22.5170  -28.9830 O.2   497  THR497     -0.2866
     61  CB        62.5130  -22.1090  -26.6150 C.3   497  THR497      0.1770
     62  OG1       63.9000  -22.1710  -26.2540 O.3   497  THR497     -0.2211
     63  CG2       61.9100  -23.5080  -26.5030 C.3   497  THR497      0.0375
     64  N         55.7160  -28.5900  -24.4350 N.3   528  TYR528     -0.1241
     65  CA        57.1390  -28.5520  -24.1900 C.3   528  TYR528      0.1605
     66  C         57.5380  -29.4060  -22.9920 C.2   528  TYR528      0.2264
     67  O         58.5640  -30.0880  -23.0200 O.2   528  TYR528     -0.2867
     68  CB        57.6100  -27.1260  -23.9680 C.3   528  TYR528      0.0534
     69  CG        59.1070  -27.0090  -23.9650 C.ar  528  TYR528     -0.0201
     70  CD1       59.9040  -27.8000  -24.8060 C.ar  528  TYR528     -0.0009
     71  CD2       59.7410  -26.1060  -23.1280 C.ar  528  TYR528     -0.0009
     72  CE1       61.2800  -27.6910  -24.7960 C.ar  528  TYR528      0.0417
     73  CE2       61.1170  -25.9990  -23.1150 C.ar  528  TYR528      0.0417
     74  CZ        61.8830  -26.7840  -23.9520 C.ar  528  TYR528      0.1957
     75  OH        63.2520  -26.6810  -23.9440 O.3   528  TYR528     -0.2866
     76  N         65.5870  -29.4740  -17.2240 N.3   546  ALA546     -0.1231
     77  CA        65.6720  -29.2810  -18.6800 C.3   546  ALA546      0.1694
     78  C         64.8640  -28.0780  -19.1430 C.2   546  ALA546      0.2592
     79  O         65.3240  -27.3190  -19.9960 O.2   546  ALA546     -0.2718
     80  CB        65.2090  -30.5300  -19.4170 C.3   546  ALA546      0.0304
     81  N         63.6720  -27.9160  -18.5710 N.am  547  TYR547     -0.1962
     82  CA        62.8170  -26.7580  -18.8390 C.3   547  TYR547      0.1771
     83  C         63.5490  -25.4310  -18.6020 C.2   547  TYR547      0.2620
     84  O         63.5370  -24.5450  -19.4550 O.2   547  TYR547     -0.2715
     85  CB        61.5680  -26.8110  -17.9600 C.3   547  TYR547      0.0574
     86  CG        60.4300  -25.9500  -18.4500 C.ar  547  TYR547     -0.0198
     87  CD1       60.3580  -24.5890  -18.1430 C.ar  547  TYR547     -0.0009
     88  CD2       59.4180  -26.4980  -19.2160 C.ar  547  TYR547     -0.0009
     89  CE1       59.3000  -23.8070  -18.5930 C.ar  547  TYR547      0.0417
     90  CE2       58.3540  -25.7330  -19.6690 C.ar  547  TYR547      0.0417
     91  CZ        58.2970  -24.3900  -19.3570 C.ar  547  TYR547      0.1957
     92  OH        57.2440  -23.6410  -19.8190 O.3   547  TYR547     -0.2866
     93  N         64.1900  -25.2790  -17.4600 N.am  548  ASN548     -0.1958
     94  CA        64.8700  -24.0370  -17.1600 C.3   548  ASN548      0.1819
     95  C         66.3090  -23.9180  -17.5960 C.2   548  ASN548      0.2621
     96  O         66.8290  -22.8280  -17.6590 O.2   548  ASN548     -0.2715
     97  CB        64.7720  -23.7660  -15.6660 C.3   548  ASN548      0.1195
     98  CG        65.7330  -22.7110  -15.1920 C.2   548  ASN548      0.2630
     99  OD1       65.4020  -21.5420  -15.1210 O.2   548  ASN548     -0.2716
    100  ND2       66.9230  -23.1240  -14.8410 N.am  548  ASN548     -0.0877
    101  N         66.9580  -25.0120  -17.9360 N.am  549  ALA549     -0.1963
    102  CA        68.3860  -24.9370  -18.3110 C.3   549  ALA549      0.1728
    103  C         68.7880  -25.5340  -19.6670 C.2   549  ALA549      0.2617
    104  O         69.9200  -25.3200  -20.1190 O.2   549  ALA549     -0.2715
    105  CB        69.2200  -25.5710  -17.2100 C.3   549  ALA549      0.0334
    106  N         67.8810  -26.2730  -20.3040 N.am  550  GLY550     -0.1941
    107  CA        68.1590  -26.9520  -21.5710 C.3   550  GLY550      0.1998
    108  C         68.5290  -28.4080  -21.3520 C.2   550  GLY550      0.2481
    109  O         69.3080  -28.6970  -20.4430 O.2   550  GLY550     -0.2729
    110  N         67.9810  -29.3360  -22.1750 N.am  551  PRO551     -0.2715
    111  CA        68.3080  -30.7620  -22.0060 C.3   551  PRO551      0.1536
    112  C         69.7990  -31.0820  -22.1260 C.2   551  PRO551      0.2599
    113  O         70.2870  -31.9650  -21.4280 O.2   551  PRO551     -0.2715
    114  CB        67.5320  -31.4440  -23.1410 C.3   551  PRO551      0.0310
    115  CG        66.4490  -30.4930  -23.4910 C.3   551  PRO551      0.0237
    116  CD        67.0530  -29.1390  -23.3020 C.3   551  PRO551      0.0939
    117  N         70.5050  -30.3680  -22.9990 N.am  552  GLY552     -0.1955
    118  CA        71.9380  -30.5570  -23.1730 C.3   552  GLY552      0.1869
    119  C         72.7400  -30.2930  -21.9140 C.2   552  GLY552      0.2309
    120  O         73.7040  -31.0080  -21.6350 O.2   552  GLY552     -0.2863
    121  N         70.6730  -20.9540   -9.9370 N.3   577  GLU577     -0.1245
    122  CA        69.3290  -20.6420  -10.4370 C.3   577  GLU577      0.1567
    123  C         68.5040  -21.9140  -10.6390 C.2   577  GLU577      0.2260
    124  O         67.3390  -21.9820  -10.2300 O.2   577  GLU577     -0.2867
    125  CB        69.3960  -19.8560  -11.7540 C.3   577  GLU577      0.0388
    126  CG        68.0750  -19.1960  -12.1590 C.3   577  GLU577      0.1160
    127  CD        68.0260  -18.7940  -13.6290 C.2   577  GLU577      0.3649
    128  OE1       68.8490  -17.9500  -14.0470 O.co2 577  GLU577     -0.2457
    129  OE2       67.1590  -19.3150  -14.3670 O.co2 577  GLU577     -0.2457
@<TRIPOS>BOND
     1    60    59    2
     2    59    58    1
     3    57    58    1
     4    58    61    1
     5    61    63    1
     6    61    62    1
     7    52    51    2
     8    51    50    1
     9    70    72   ar
    10    70    69   ar
    11    72    74   ar
    12    53    50    1
    13    53    54    1
    14    64    65    1
    15    50    49    1
    16    48    46    1
    17    54    55    1
    18    65    68    1
    19    65    66    1
    20    68    69    1
    21    69    71   ar
    22    74    75    1
    23    74    73   ar
    24    49    43   am
    25    23    22    2
    26    45    46    1
    27    45    42    1
    28   115   116    1
    29   115   114    1
    30    44    43    2
    31   116   110    1
    32    43    42    1
    33    55    56    1
    34   118   117    1
    35   118   119    1
    36   114   111    1
    37    71    73   ar
    38    67    66    2
    39    46    47    1
    40   117   112   am
    41    42    41    1
    42    22    21    1
    43   110   111    1
    44   110   108   am
    45   112   111    1
    46   112   113    2
    47    27    28    1
    48   119   120    2
    49    28    29    1
    50    28    31    1
    51   107   108    1
    52   107   106    1
    53    41    34   am
    54   108   109    2
    55    21    24    1
    56    21    20    1
    57    29    30    2
    58    24    26    1
    59    24    25    1
    60   106   103   am
    61    34    35    2
    62    34    33    1
    63   104   103    2
    64    20    18   am
    65    79    78    2
    66    19    18    2
    67    92    91    1
    68    13    12    2
    69    90    91   ar
    70    90    88   ar
    71   103   102    1
    72    84    83    2
    73    18    17    1
    74    80    77    1
    75    91    89   ar
    76    88    86   ar
    77    78    77    1
    78    78    81   am
    79    10    11    1
    80    33    32    1
    81    33    36    1
    82    82    83    1
    83    82    81    1
    84    82    85    1
    85    14    11    1
    86    14    15    1
    87    12    11    1
    88    12    16   am
    89    77    76    1
    90    83    93   am
    91    89    87   ar
    92    86    87   ar
    93    86    85    1
    94   102   101    1
    95   102   105    1
    96    17    16    1
    97   101    95   am
    98    36    37    1
    99    39    38    2
   100    96    95    2
   101    95    94    1
   102    93    94    1
   103    94    97    1
   104    38    37    1
   105    38    40   am
   106    97    98    1
   107     9     7   am
   108     8     7    2
   109     7     6    1
   110    98    99    2
   111    98   100   am
   112     6     5    1
   113     5     2    1
   114   129   127   ar
   115   128   127   ar
   116     4     3    2
   117     3     2    1
   118   127   126    1
   119     2     1    1
   120   126   125    1
   121   125   122    1
   122   123   122    1
   123   123   124    2
   124   122   121    1
