@<TRIPOS>MOLECULE
tmp/6fcrA01.pdb
 181 174 0 0 0
SMALL
GASTEIGER

@<TRIPOS>ATOM
      1  N         68.4170  -25.6350    6.7010 N.3   312  SER312     -0.1202
      2  CA        67.8040  -26.9300    6.5290 C.3   312  SER312      0.2020
      3  C         68.6430  -27.8090    5.5990 C.2   312  SER312      0.2618
      4  O         68.6890  -29.0280    5.7600 O.2   312  SER312     -0.2717
      5  CB        66.4170  -26.7370    5.9540 C.3   312  SER312      0.2103
      6  OG        66.4940  -25.9240    4.7930 O.3   312  SER312     -0.2182
      7  N         69.2960  -27.1830    4.6260 N.am  313  ARG313     -0.1979
      8  CA        70.2340  -27.8720    3.7410 C.3   313  ARG313      0.1597
      9  C         71.2480  -28.7490    4.4920 C.2   313  ARG313      0.2287
     10  O         71.4150  -29.9300    4.1870 O.2   313  ARG313     -0.2864
     11  CB        70.9750  -26.8290    2.8880 C.3   313  ARG313      0.0334
     12  CG        72.0350  -27.3820    1.9360 C.3   313  ARG313      0.0492
     13  CD        72.5020  -26.3480    0.9170 C.3   313  ARG313      0.2205
     14  NE        71.4160  -26.0530   -0.0210 N.pl3 313  ARG313     -0.0865
     15  CZ        70.8810  -24.8540   -0.2750 C.cat 313  ARG313      0.5346
     16  NH1       71.3540  -23.7390    0.2810 N.pl3 313  ARG313      0.1354
     17  NH2       69.8570  -24.7720   -1.1280 N.pl3 313  ARG313      0.1354
     18  N         58.6010  -26.7670    6.4600 N.3   343  ARG343     -0.1231
     19  CA        57.8690  -26.7950    5.1790 C.3   343  ARG343      0.1694
     20  C         58.7690  -26.2120    4.0960 C.2   343  ARG343      0.2592
     21  O         58.6910  -25.0400    3.7550 O.2   343  ARG343     -0.2718
     22  CB        56.5460  -26.0200    5.2860 C.3   343  ARG343      0.0321
     23  CG        55.6820  -26.0260    4.0190 C.3   343  ARG343      0.0489
     24  CD        54.4780  -25.0960    4.1090 C.3   343  ARG343      0.2205
     25  NE        54.8330  -23.8230    4.7410 N.pl3 343  ARG343     -0.0865
     26  CZ        54.2970  -23.2940    5.8450 C.cat 343  ARG343      0.5346
     27  NH1       53.2860  -23.8530    6.4940 N.pl3 343  ARG343      0.1354
     28  NH2       54.7740  -22.1390    6.2860 N.pl3 343  ARG343      0.1354
     29  N         59.6070  -27.0690    3.5350 N.am  344  ASP344     -0.1960
     30  CA        60.7940  -26.6410    2.8050 C.3   344  ASP344      0.1840
     31  C         61.3810  -27.8910    2.1290 C.2   344  ASP344      0.2622
     32  O         61.1170  -29.0090    2.5920 O.2   344  ASP344     -0.2715
     33  CB        61.7330  -25.9710    3.8240 C.3   344  ASP344      0.1450
     34  CG        63.1830  -26.1420    3.5050 C.2   344  ASP344      0.3671
     35  OD1       63.6340  -25.6400    2.4540 O.co2 344  ASP344     -0.2456
     36  OD2       63.8700  -26.7690    4.3280 O.co2 344  ASP344     -0.2456
     37  N         62.1200  -27.7300    1.0280 N.am  345  PHE345     -0.1974
     38  CA        62.6140  -28.8950    0.2730 C.3   345  PHE345      0.1639
     39  C         63.3100  -29.9350    1.1540 C.2   345  PHE345      0.2290
     40  O         63.0300  -31.1350    1.0620 O.2   345  PHE345     -0.2864
     41  CB        63.5710  -28.4780   -0.8400 C.3   345  PHE345      0.0560
     42  CG        64.2180  -29.6470   -1.5460 C.ar  345  PHE345     -0.0200
     43  CD1       63.4750  -30.4650   -2.3940 C.ar  345  PHE345     -0.0042
     44  CD2       65.5600  -29.9510   -1.3510 C.ar  345  PHE345     -0.0042
     45  CE1       64.0530  -31.5520   -3.0410 C.ar  345  PHE345     -0.0003
     46  CE2       66.1410  -31.0400   -2.0010 C.ar  345  PHE345     -0.0003
     47  CZ        65.3870  -31.8390   -2.8480 C.ar  345  PHE345     -0.0000
     48  N         50.2270  -12.4040   -8.0740 N.3   426  PHE426     -0.1241
     49  CA        51.6600  -12.1000   -7.9610 C.3   426  PHE426      0.1605
     50  C         51.9650  -11.0410   -6.8890 C.2   426  PHE426      0.2264
     51  O         52.9010  -11.2210   -6.1160 O.2   426  PHE426     -0.2867
     52  CB        52.2530  -11.6960   -9.3220 C.3   426  PHE426      0.0534
     53  CG        53.6870  -11.2490   -9.2490 C.ar  426  PHE426     -0.0203
     54  CD1       54.0240   -9.9780   -8.7880 C.ar  426  PHE426     -0.0042
     55  CD2       54.7080  -12.0990   -9.6460 C.ar  426  PHE426     -0.0042
     56  CE1       55.3460   -9.5790   -8.7140 C.ar  426  PHE426     -0.0003
     57  CE2       56.0330  -11.6960   -9.5880 C.ar  426  PHE426     -0.0003
     58  CZ        56.3510  -10.4310   -9.1170 C.ar  426  PHE426     -0.0000
     59  N         51.4280  -12.7290   -3.4240 N.3   429  ILE429     -0.1231
     60  CA        52.6080  -13.5530   -3.2440 C.3   429  ILE429      0.1692
     61  C         53.7880  -12.6840   -2.8340 C.2   429  ILE429      0.2591
     62  O         54.5050  -13.0260   -1.8930 O.2   429  ILE429     -0.2718
     63  CB        52.9370  -14.3480   -4.5270 C.3   429  ILE429      0.0266
     64  CG1       51.9310  -15.4950   -4.6880 C.3   429  ILE429      0.0019
     65  CG2       54.3730  -14.8900   -4.5100 C.3   429  ILE429      0.0020
     66  CD1       51.7680  -15.9800   -6.1140 C.3   429  ILE429      0.0001
     67  N         53.9840  -11.5690   -3.5340 N.am  430  ARG430     -0.1980
     68  CA        55.1620  -10.7300   -3.3210 C.3   430  ARG430      0.1597
     69  C         55.1450  -10.0590   -1.9520 C.2   430  ARG430      0.2287
     70  O         56.1650  -10.0100   -1.2760 O.2   430  ARG430     -0.2864
     71  CB        55.2790   -9.6870   -4.4300 C.3   430  ARG430      0.0334
     72  CG        56.6030   -8.9430   -4.4570 C.3   430  ARG430      0.0492
     73  CD        56.5000   -7.6510   -5.2530 C.3   430  ARG430      0.2205
     74  NE        56.9540   -6.4940   -4.4630 N.pl3 430  ARG430     -0.0865
     75  CZ        58.0680   -5.7720   -4.6650 C.cat 430  ARG430      0.5346
     76  NH1       58.9150   -6.0320   -5.6700 N.pl3 430  ARG430      0.1354
     77  NH2       58.3310   -4.7480   -3.8460 N.pl3 430  ARG430      0.1354
     78  N         55.4780  -12.4380    1.0710 N.3   433  SER433     -0.1217
     79  CA        56.8660  -12.8980    1.1100 C.3   433  SER433      0.1889
     80  C         57.7910  -11.9130    1.8240 C.2   433  SER433      0.2288
     81  O         58.5750  -12.3170    2.6980 O.2   433  SER433     -0.2866
     82  CB        57.3630  -13.1830   -0.3010 C.3   433  SER433      0.2089
     83  OG        56.5050  -14.1230   -0.9200 O.3   433  SER433     -0.2183
     84  N         54.9060  -17.0770    6.1940 N.3   438  TRP438     -0.1241
     85  CA        54.9480  -18.1730    5.2240 C.3   438  TRP438      0.1605
     86  C         53.7800  -19.1620    5.3090 C.2   438  TRP438      0.2264
     87  O         53.5490  -19.9060    4.3610 O.2   438  TRP438     -0.2867
     88  CB        56.2670  -18.9250    5.3360 C.3   438  TRP438      0.0550
     89  CG        57.4780  -18.0430    5.4280 C.ar  438  TRP438      0.0003
     90  CD1       58.2710  -17.8720    6.5220 C.ar  438  TRP438      0.0946
     91  CD2       58.0340  -17.2160    4.3960 C.ar  438  TRP438      0.0152
     92  NE1       59.2900  -16.9950    6.2410 N.ar  438  TRP438     -0.2442
     93  CE2       59.1730  -16.5780    4.9420 C.ar  438  TRP438      0.0810
     94  CE3       57.6870  -16.9520    3.0610 C.ar  438  TRP438      0.0012
     95  CZ2       59.9740  -15.7000    4.2000 C.ar  438  TRP438      0.0191
     96  CZ3       58.4870  -16.0640    2.3170 C.ar  438  TRP438      0.0001
     97  CH2       59.6130  -15.4510    2.8950 C.ar  438  TRP438      0.0015
     98  N         49.9670  -17.8060   -0.9340 N.3   444  ARG444     -0.1231
     99  CA        51.2570  -18.2070   -1.5230 C.3   444  ARG444      0.1694
    100  C         51.1790  -19.2140   -2.6760 C.2   444  ARG444      0.2592
    101  O         52.0900  -19.2530   -3.4980 O.2   444  ARG444     -0.2718
    102  CB        52.1970  -18.7590   -0.4570 C.3   444  ARG444      0.0321
    103  CG        52.6590  -17.7310    0.5540 C.3   444  ARG444      0.0489
    104  CD        53.5900  -18.3680    1.5590 C.3   444  ARG444      0.2205
    105  NE        54.8710  -18.6510    0.9220 N.pl3 444  ARG444     -0.0865
    106  CZ        55.6260  -19.7340    1.1180 C.cat 444  ARG444      0.5346
    107  NH1       55.2710  -20.7160    1.9570 N.pl3 444  ARG444      0.1354
    108  NH2       56.7690  -19.8380    0.4440 N.pl3 444  ARG444      0.1354
    109  N         50.1220  -20.0260   -2.7360 N.am  445  PHE445     -0.1976
    110  CA        49.9940  -21.0630   -3.7750 C.3   445  PHE445      0.1639
    111  C         48.5800  -21.1320   -4.3210 C.2   445  PHE445      0.2290
    112  O         47.9300  -22.1700   -4.2520 O.2   445  PHE445     -0.2864
    113  CB        50.4500  -22.4270   -3.2380 C.3   445  PHE445      0.0560
    114  CG        51.8690  -22.4260   -2.7850 C.ar  445  PHE445     -0.0200
    115  CD1       52.8930  -22.4020   -3.7160 C.ar  445  PHE445     -0.0042
    116  CD2       52.1860  -22.3800   -1.4340 C.ar  445  PHE445     -0.0042
    117  CE1       54.2150  -22.3550   -3.3140 C.ar  445  PHE445     -0.0003
    118  CE2       53.5080  -22.3410   -1.0190 C.ar  445  PHE445     -0.0003
    119  CZ        54.5270  -22.3300   -1.9630 C.ar  445  PHE445     -0.0000
    120  N         54.4120  -21.4820  -11.1330 N.3   472  ARG472     -0.1245
    121  CA        54.5600  -20.8060   -9.8440 C.3   472  ARG472      0.1563
    122  C         56.0110  -20.3880   -9.5700 C.2   472  ARG472      0.2260
    123  O         56.2610  -19.2950   -9.0750 O.2   472  ARG472     -0.2867
    124  CB        54.0490  -21.6990   -8.7050 C.3   472  ARG472      0.0307
    125  CG        54.2290  -21.1440   -7.2950 C.3   472  ARG472      0.0489
    126  CD        53.5500  -19.7980   -7.1270 C.3   472  ARG472      0.2205
    127  NE        53.6840  -19.3320   -5.7560 N.pl3 472  ARG472     -0.0865
    128  CZ        54.7800  -18.7780   -5.2320 C.cat 472  ARG472      0.5346
    129  NH1       55.8840  -18.5940   -5.9550 N.pl3 472  ARG472      0.1354
    130  NH2       54.7690  -18.4060   -3.9570 N.pl3 472  ARG472      0.1354
    131  N         55.4420  -16.8330  -10.8360 N.3   476  ALA476     -0.1245
    132  CA        54.5510  -16.5640   -9.6910 C.3   476  ALA476      0.1562
    133  C         53.2260  -15.9210  -10.1350 C.2   476  ALA476      0.2260
    134  O         52.6850  -15.0530   -9.4460 O.2   476  ALA476     -0.2867
    135  CB        55.2460  -15.7340   -8.6160 C.3   476  ALA476      0.0290
    136  N         68.3080  -24.3290   -7.1170 N.3   580  GLN580     -0.1245
    137  CA        67.1780  -23.7470   -6.3700 C.3   580  GLN580      0.1566
    138  C         65.8590  -23.9530   -7.0750 C.2   580  GLN580      0.2260
    139  O         64.8500  -24.2840   -6.4500 O.2   580  GLN580     -0.2867
    140  CB        67.3550  -22.2450   -6.1330 C.3   580  GLN580      0.0367
    141  CG        67.9020  -21.8980   -4.7650 C.3   580  GLN580      0.0905
    142  CD        67.0460  -22.4230   -3.6170 C.2   580  GLN580      0.2608
    143  OE1       65.8200  -22.6410   -3.7420 O.2   580  GLN580     -0.2717
    144  NE2       67.7000  -22.6420   -2.4860 N.am  580  GLN580     -0.0878
    145  N         64.6750  -27.5600   -6.6800 N.3   583  GLN583     -0.1231
    146  CA        64.1870  -27.7350   -5.3200 C.3   583  GLN583      0.1698
    147  C         62.8200  -27.0920   -5.1270 C.2   583  GLN583      0.2592
    148  O         61.9110  -27.7250   -4.5950 O.2   583  GLN583     -0.2718
    149  CB        65.1890  -27.2020   -4.3140 C.3   583  GLN583      0.0381
    150  CG        66.4460  -28.0430   -4.2730 C.3   583  GLN583      0.0905
    151  CD        67.4190  -27.6120   -3.2070 C.2   583  GLN583      0.2608
    152  OE1       67.3110  -26.5230   -2.6280 O.2   583  GLN583     -0.2717
    153  NE2       68.3960  -28.4710   -2.9410 N.am  583  GLN583     -0.0878
    154  N         62.6580  -25.8610   -5.6030 N.am  584  ASN584     -0.1974
    155  CA        61.3700  -25.1730   -5.4910 C.3   584  ASN584      0.1688
    156  C         60.2650  -25.9330   -6.2390 C.2   584  ASN584      0.2292
    157  O         59.2290  -26.2160   -5.6560 O.2   584  ASN584     -0.2864
    158  CB        61.4480  -23.7170   -5.9800 C.3   584  ASN584      0.1181
    159  CG        62.3670  -22.8460   -5.1330 C.2   584  ASN584      0.2629
    160  OD1       62.7630  -23.2050   -4.0180 O.2   584  ASN584     -0.2716
    161  ND2       62.7270  -21.6870   -5.6770 N.am  584  ASN584     -0.0877
    162  N         56.9420  -27.2840   -4.5640 N.3   588  TYR588     -0.1241
    163  CA        55.6610  -26.6990   -4.9630 C.3   588  TYR588      0.1605
    164  C         54.7030  -27.7570   -5.5220 C.2   588  TYR588      0.2264
    165  O         53.4890  -27.6670   -5.3190 O.2   588  TYR588     -0.2867
    166  CB        55.8680  -25.5210   -5.9440 C.3   588  TYR588      0.0534
    167  CG        56.6720  -24.3370   -5.3890 C.ar  588  TYR588     -0.0201
    168  CD1       56.9270  -24.1930   -4.0170 C.ar  588  TYR588     -0.0009
    169  CD2       57.1650  -23.3550   -6.2410 C.ar  588  TYR588     -0.0009
    170  CE1       57.6490  -23.1220   -3.5220 C.ar  588  TYR588      0.0417
    171  CE2       57.8900  -22.2730   -5.7510 C.ar  588  TYR588      0.0417
    172  CZ        58.1270  -22.1640   -4.3890 C.ar  588  TYR588      0.1957
    173  OH        58.8410  -21.1080   -3.8780 O.3   588  TYR588     -0.2866
    174  N         52.9200  -29.4190   -2.6400 N.3   591  ILE591     -0.1245
    175  CA        51.9100  -28.5500   -2.0770 C.3   591  ILE591      0.1561
    176  C         50.6990  -28.4500   -3.0140 C.2   591  ILE591      0.2260
    177  O         49.5600  -28.6380   -2.5780 O.2   591  ILE591     -0.2867
    178  CB        52.5260  -27.1730   -1.7630 C.3   591  ILE591      0.0252
    179  CG1       53.5800  -27.3270   -0.6540 C.3   591  ILE591      0.0019
    180  CG2       51.4580  -26.1570   -1.3580 C.3   591  ILE591      0.0019
    181  CD1       54.5650  -26.1750   -0.5690 C.3   591  ILE591      0.0001
@<TRIPOS>BOND
     1   120   121    1
     2   131   132    1
     3   133   132    1
     4   133   134    2
     5   121   122    1
     6   121   124    1
     7   132   135    1
     8    55    57   ar
     9    55    53   ar
    10    57    58   ar
    11   122   123    2
    12    52    53    1
    13    52    49    1
    14    53    54   ar
    15    58    56   ar
    16    54    56   ar
    17   124   125    1
    18    48    49    1
    19    49    50    1
    20   125   126    1
    21   126   127    1
    22   136   137    1
    23   138   139    2
    24   138   137    1
    25    50    51    2
    26   145   146    1
    27   137   140    1
    28   169   171   ar
    29   169   167   ar
    30   156   157    2
    31   156   155    1
    32   140   141    1
    33    66    64    1
    34   158   155    1
    35   158   159    1
    36   129   128    1
    37   166   167    1
    38   166   163    1
    39   127   128    2
    40   171   172   ar
    41   161   159   am
    42    76    75    1
    43   154   155    1
    44   154   147   am
    45   164   165    2
    46   164   163    1
    47   167   168   ar
    48   146   147    1
    49   146   149    1
    50    73    74    1
    51    73    72    1
    52   128   130    1
    53   159   160    2
    54   147   148    2
    55   163   162    1
    56   141   142    1
    57    64    63    1
    58    75    74    2
    59    75    77    1
    60    63    65    1
    61    63    60    1
    62    72    71    1
    63    71    68    1
    64   172   173    1
    65   172   170   ar
    66   111   112    2
    67   111   110    1
    68   149   150    1
    69   150   151    1
    70   168   170   ar
    71   110   113    1
    72   110   109    1
    73   143   142    2
    74   115   117   ar
    75   115   114   ar
    76   142   144   am
    77    67    68    1
    78    67    61   am
    79   101   100    2
    80    59    60    1
    81    68    69    1
    82   117   119   ar
    83    60    61    1
    84   113   114    1
    85   151   153   am
    86   151   152    2
    87    45    47   ar
    88    45    43   ar
    89   176   177    2
    90   176   175    1
    91    47    46   ar
    92    61    62    2
    93   114   116   ar
    94   109   100   am
    95   100    99    1
    96   174   175    1
    97    43    42   ar
    98   175   178    1
    99    46    44   ar
   100   119   118   ar
   101    69    70    2
   102   178   180    1
   103   178   179    1
   104    42    44   ar
   105    42    41    1
   106    99    98    1
   107    99   102    1
   108   116   118   ar
   109    17    15    1
   110    83    82    1
   111    41    38    1
   112   179   181    1
   113   102   103    1
   114    82    79    1
   115    15    14    2
   116    15    16    1
   117    14    13    1
   118    38    37    1
   119    38    39    1
   120   108   106    1
   121   103   104    1
   122    13    12    1
   123   105   106    2
   124   105   104    1
   125    37    31   am
   126    40    39    2
   127    78    79    1
   128    79    80    1
   129   106   107    1
   130    80    81    2
   131    12    11    1
   132    31    32    2
   133    31    30    1
   134    96    97   ar
   135    96    94   ar
   136    35    34   ar
   137    30    29    1
   138    30    33    1
   139    11     8    1
   140    97    95   ar
   141    94    91   ar
   142    34    33    1
   143    34    36   ar
   144    29    20   am
   145     8     9    1
   146     8     7    1
   147    21    20    2
   148    23    24    1
   149    23    22    1
   150    20    19    1
   151    24    25    1
   152    10     9    2
   153    95    93   ar
   154    87    86    2
   155    91    93   ar
   156    91    89   ar
   157     7     3   am
   158    25    26    2
   159     6     5    1
   160    93    92   ar
   161    19    22    1
   162    19    18    1
   163    85    86    1
   164    85    88    1
   165    85    84    1
   166    88    89    1
   167    89    90   ar
   168     3     4    2
   169     3     2    1
   170    26    28    1
   171    26    27    1
   172     5     2    1
   173    92    90   ar
   174     2     1    1
