@<TRIPOS>MOLECULE
tmp/6fcrA00.pdb
 112 108 0 0 0
SMALL
GASTEIGER

@<TRIPOS>ATOM
      1  N         87.6550  -20.4320  -15.0800 N.3   221  ARG221     -0.1231
      2  CA        86.2600  -20.6350  -15.4650 C.3   221  ARG221      0.1694
      3  C         86.1120  -21.6640  -16.5640 C.2   221  ARG221      0.2591
      4  O         85.2510  -22.5370  -16.4780 O.2   221  ARG221     -0.2718
      5  CB        85.6160  -19.3200  -15.9200 C.3   221  ARG221      0.0321
      6  CG        84.3520  -18.9650  -15.1560 C.3   221  ARG221      0.0489
      7  CD        84.6620  -18.4340  -13.7530 C.3   221  ARG221      0.2205
      8  NE        85.1000  -17.0310  -13.7520 N.pl3 221  ARG221     -0.0865
      9  CZ        85.2960  -16.2780  -12.6610 C.cat 221  ARG221      0.5346
     10  NH1       85.1010  -16.7740  -11.4330 N.pl3 221  ARG221      0.1354
     11  NH2       85.6930  -15.0060  -12.7970 N.pl3 221  ARG221      0.1354
     12  N         86.9430  -21.5490  -17.5980 N.am  222  GLN222     -0.1979
     13  CA        86.8730  -22.4400  -18.7730 C.3   222  GLN222      0.1601
     14  C         87.9360  -23.5420  -18.8050 C.2   222  GLN222      0.2287
     15  O         87.6640  -24.6300  -19.3160 O.2   222  GLN222     -0.2864
     16  CB        86.9370  -21.6190  -20.0670 C.3   222  GLN222      0.0394
     17  CG        85.8850  -20.5060  -20.1580 C.3   222  GLN222      0.0908
     18  CD        84.4190  -20.9900  -20.1370 C.2   222  GLN222      0.2608
     19  OE1       84.1120  -22.1500  -20.4530 O.2   222  GLN222     -0.2717
     20  NE2       83.5060  -20.0810  -19.7740 N.am  222  GLN222     -0.0878
     21  N         85.7580  -24.1740   -9.5410 N.3   255  SER255     -0.1217
     22  CA        85.5480  -24.5840  -10.9200 C.3   255  SER255      0.1889
     23  C         85.8420  -26.0780  -11.1040 C.2   255  SER255      0.2288
     24  O         85.0860  -26.7620  -11.7980 O.2   255  SER255     -0.2866
     25  CB        86.3980  -23.7430  -11.8660 C.3   255  SER255      0.2089
     26  OG        86.0940  -24.0440  -13.2210 O.3   255  SER255     -0.2183
     27  N         83.0130  -28.1580   -9.4130 N.3   258  LYS258     -0.1231
     28  CA        81.7940  -28.2310  -10.2280 C.3   258  LYS258      0.1693
     29  C         81.8900  -29.1720  -11.4440 C.2   258  LYS258      0.2591
     30  O         80.8650  -29.4850  -12.0520 O.2   258  LYS258     -0.2718
     31  CB        81.3460  -26.8290  -10.6370 C.3   258  LYS258      0.0285
     32  CG        80.8680  -26.0190   -9.4400 C.3   258  LYS258      0.0035
     33  CD        80.8400  -24.5250   -9.7060 C.3   258  LYS258      0.0206
     34  CE        80.5980  -23.7310   -8.4280 C.3   258  LYS258      0.1093
     35  NZ        79.9070  -22.4400   -8.6940 N.3   258  LYS258     -0.1314
     36  N         83.1060  -29.6040  -11.7880 N.am  259  ARG259     -0.1980
     37  CA        83.3560  -30.7160  -12.7240 C.3   259  ARG259      0.1597
     38  C         83.6460  -32.0360  -12.0020 C.2   259  ARG259      0.2287
     39  O         84.0410  -33.0300  -12.6440 O.2   259  ARG259     -0.2864
     40  CB        84.5820  -30.4180  -13.5690 C.3   259  ARG259      0.0334
     41  CG        84.4020  -29.2950  -14.5280 C.3   259  ARG259      0.0492
     42  CD        85.6870  -28.5310  -14.6690 C.3   259  ARG259      0.2205
     43  NE        85.4260  -27.3890  -15.5290 N.pl3 259  ARG259     -0.0865
     44  CZ        85.7870  -27.2760  -16.8000 C.cat 259  ARG259      0.5346
     45  NH1       86.4920  -28.2300  -17.4130 N.pl3 259  ARG259      0.1354
     46  NH2       85.4550  -26.1690  -17.4640 N.pl3 259  ARG259      0.1354
     47  N         64.7760  -25.5040  -17.2460 N.3   548  ASN548     -0.1225
     48  CA        65.4660  -24.2940  -16.8220 C.3   548  ASN548      0.1785
     49  C         66.8450  -24.0940  -17.4460 C.2   548  ASN548      0.2597
     50  O         67.2900  -22.9520  -17.5630 O.2   548  ASN548     -0.2718
     51  CB        65.6320  -24.3100  -15.3050 C.3   548  ASN548      0.1169
     52  CG        66.2140  -23.0200  -14.7600 C.2   548  ASN548      0.2627
     53  OD1       67.3520  -22.9880  -14.2890 O.2   548  ASN548     -0.2716
     54  ND2       65.4370  -21.9460  -14.8350 N.am  548  ASN548     -0.0877
     55  N         67.5460  -25.1760  -17.7950 N.am  549  ALA549     -0.1979
     56  CA        68.9690  -25.0800  -18.1950 C.3   549  ALA549      0.1597
     57  C         69.3380  -25.6680  -19.5550 C.2   549  ALA549      0.2287
     58  O         70.4650  -25.4880  -20.0080 O.2   549  ALA549     -0.2864
     59  CB        69.8440  -25.6960  -17.1220 C.3   549  ALA549      0.0319
     60  N         72.7570  -29.3590  -20.9970 N.3   553  ARG553     -0.1245
     61  CA        73.3300  -29.1170  -19.6630 C.3   553  ARG553      0.1563
     62  C         73.1470  -30.3350  -18.7550 C.2   553  ARG553      0.2260
     63  O         74.0950  -30.8010  -18.1310 O.2   553  ARG553     -0.2867
     64  CB        72.7130  -27.8710  -18.9940 C.3   553  ARG553      0.0307
     65  CG        73.6520  -26.6760  -18.9160 C.3   553  ARG553      0.0489
     66  CD        74.0030  -26.1280  -20.2910 C.3   553  ARG553      0.2205
     67  NE        74.4760  -24.7390  -20.2500 N.pl3 553  ARG553     -0.0865
     68  CZ        73.7090  -23.6600  -20.0430 C.cat 553  ARG553      0.5346
     69  NH1       72.3930  -23.7580  -19.8260 N.pl3 553  ARG553      0.1354
     70  NH2       74.2700  -22.4530  -20.0340 N.pl3 553  ARG553      0.1354
     71  N         75.7430  -27.7520  -10.6840 N.3   574  PRO574     -0.2102
     72  CA        76.7210  -26.6560  -10.7910 C.3   574  PRO574      0.1504
     73  C         76.1640  -25.2300  -10.7290 C.2   574  PRO574      0.2576
     74  O         76.8300  -24.3190  -10.2070 O.2   574  PRO574     -0.2718
     75  CB        77.3510  -26.8920  -12.1600 C.3   574  PRO574      0.0282
     76  CG        77.2500  -28.3600  -12.3630 C.3   574  PRO574      0.0208
     77  CD        75.9430  -28.7550  -11.7510 C.3   574  PRO574      0.0893
     78  N         74.9700  -25.0370  -11.2800 N.am  575  PHE575     -0.1963
     79  CA        74.3480  -23.7190  -11.3450 C.3   575  PHE575      0.1771
     80  C         73.4660  -23.5210  -10.1130 C.2   575  PHE575      0.2620
     81  O         72.6400  -24.3860   -9.7920 O.2   575  PHE575     -0.2715
     82  CB        73.4800  -23.5910  -12.6020 C.3   575  PHE575      0.0574
     83  CG        74.2050  -23.8060  -13.9140 C.ar  575  PHE575     -0.0200
     84  CD1       75.6030  -23.9720  -14.0010 C.ar  575  PHE575     -0.0042
     85  CD2       73.4710  -23.7780  -15.0970 C.ar  575  PHE575     -0.0042
     86  CE1       76.2280  -24.1330  -15.2270 C.ar  575  PHE575     -0.0003
     87  CE2       74.0990  -23.9370  -16.3280 C.ar  575  PHE575     -0.0003
     88  CZ        75.4780  -24.1190  -16.3900 C.ar  575  PHE575     -0.0000
     89  N         73.6350  -22.3880   -9.4350 N.am  576  ASP576     -0.1957
     90  CA        72.7990  -22.0490   -8.2770 C.3   576  ASP576      0.1840
     91  C         71.3230  -21.8280   -8.6370 C.2   576  ASP576      0.2622
     92  O         70.4220  -22.2140   -7.8760 O.2   576  ASP576     -0.2715
     93  CB        73.3020  -20.7820   -7.5960 C.3   576  ASP576      0.1450
     94  CG        74.6580  -20.9490   -6.9720 C.2   576  ASP576      0.3671
     95  OD1       74.8990  -21.9930   -6.3180 O.co2 576  ASP576     -0.2456
     96  OD2       75.4740  -20.0100   -7.1230 O.co2 576  ASP576     -0.2456
     97  N         71.0910  -21.1870   -9.7800 N.am  577  GLU577     -0.1963
     98  CA        69.7490  -20.9670  -10.2810 C.3   577  GLU577      0.1733
     99  C         69.0320  -22.3010  -10.4570 C.2   577  GLU577      0.2617
    100  O         67.9390  -22.5240   -9.9120 O.2   577  GLU577     -0.2715
    101  CB        69.7870  -20.2130  -11.6140 C.3   577  GLU577      0.0429
    102  CG        68.4150  -19.7470  -12.0920 C.3   577  GLU577      0.1163
    103  CD        68.4240  -19.2830  -13.5340 C.2   577  GLU577      0.3649
    104  OE1       69.1890  -18.3380  -13.8340 O.co2 577  GLU577     -0.2457
    105  OE2       67.6610  -19.8570  -14.3540 O.co2 577  GLU577     -0.2457
    106  N         69.6540  -23.1930  -11.2090 N.am  578  THR578     -0.1951
    107  CA        69.0060  -24.4460  -11.5540 C.3   578  THR578      0.1897
    108  C         68.8280  -25.3750  -10.3570 C.2   578  THR578      0.2313
    109  O         67.8610  -26.1220  -10.3130 O.2   578  THR578     -0.2863
    110  CB        69.7670  -25.1400  -12.6760 C.3   578  THR578      0.1794
    111  OG1       69.9330  -24.2060  -13.7500 O.3   578  THR578     -0.2208
    112  CG2       69.0140  -26.3680  -13.1710 C.3   578  THR578      0.0378
@<TRIPOS>BOND
     1    60    61    1
     2    19    18    2
     3    66    67    1
     4    66    65    1
     5    67    68    2
     6    17    18    1
     7    17    16    1
     8    18    20   am
     9    16    13    1
    10    68    70    1
    11    68    69    1
    12    58    57    2
    13    61    64    1
    14    61    62    1
    15    57    56    1
    16    15    14    2
    17    64    65    1
    18    14    13    1
    19    13    12    1
    20    62    63    2
    21    56    55    1
    22    56    59    1
    23    55    49   am
    24    12     3   am
    25    50    49    2
    26    46    44    1
    27    49    48    1
    28    45    44    1
    29    47    48    1
    30    48    51    1
    31    44    43    2
    32     3     4    2
    33     3     2    1
    34    88    87   ar
    35    88    86   ar
    36    87    85   ar
    37     5     2    1
    38     5     6    1
    39    43    42    1
    40     2     1    1
    41    51    52    1
    42    86    84   ar
    43     6     7    1
    44    85    83   ar
    45    54    52   am
    46    52    53    2
    47    42    41    1
    48    41    40    1
    49   105   103   ar
    50    84    83   ar
    51    83    82    1
    52   104   103   ar
    53     7     8    1
    54     8     9    2
    55   111   110    1
    56    40    37    1
    57   103   102    1
    58    26    25    1
    59   112   110    1
    60    11     9    1
    61    37    38    1
    62    37    36    1
    63   110   107    1
    64     9    10    1
    65    39    38    2
    66    82    79    1
    67    76    75    1
    68    76    77    1
    69    75    72    1
    70   102   101    1
    71    30    29    2
    72    25    22    1
    73    24    23    2
    74    36    29   am
    75    77    71    1
    76   101    98    1
    77   107   106    1
    78   107   108    1
    79    29    28    1
    80    79    78    1
    81    79    80    1
    82    78    73   am
    83   106    99   am
    84    23    22    1
    85    22    21    1
    86    72    73    1
    87    72    71    1
    88    73    74    2
    89    31    28    1
    90    31    32    1
    91    99    98    1
    92    99   100    2
    93   108   109    2
    94    98    97    1
    95    28    27    1
    96    80    81    2
    97    80    89   am
    98    97    91   am
    99    33    32    1
   100    33    34    1
   101    89    90    1
   102    35    34    1
   103    91    90    1
   104    91    92    2
   105    90    93    1
   106    93    94    1
   107    96    94   ar
   108    94    95   ar
