@<TRIPOS>MOLECULE
tmp/6fcrA04.pdb
 96 94 0 0 0
SMALL
GASTEIGER

@<TRIPOS>ATOM
      1  N         57.6800  -18.7670  -18.5010 N.3   492  GLN492     -0.1231
      2  CA        58.9350  -18.1830  -18.9870 C.3   492  GLN492      0.1698
      3  C         59.5400  -18.8850  -20.2050 C.2   492  GLN492      0.2592
      4  O         60.6000  -19.4880  -20.1370 O.2   492  GLN492     -0.2718
      5  CB        59.9380  -18.0740  -17.8430 C.3   492  GLN492      0.0381
      6  CG        59.5150  -17.1010  -16.7470 C.3   492  GLN492      0.0905
      7  CD        59.7760  -15.6490  -17.1010 C.2   492  GLN492      0.2608
      8  OE1       60.9220  -15.2440  -17.2940 O.2   492  GLN492     -0.2717
      9  NE2       58.7120  -14.8540  -17.1720 N.am  492  GLN492     -0.0878
     10  N         58.8240  -18.8010  -21.3200 N.am  493  LEU493     -0.1966
     11  CA        59.3200  -19.3000  -22.5930 C.3   493  LEU493      0.1728
     12  C         60.3940  -18.3560  -23.1130 C.2   493  LEU493      0.2616
     13  O         60.3630  -17.1340  -22.8960 O.2   493  LEU493     -0.2715
     14  CB        58.2040  -19.4380  -23.6310 C.3   493  LEU493      0.0311
     15  CG        57.2990  -20.6750  -23.5600 C.3   493  LEU493      0.0022
     16  CD1       58.0740  -21.9500  -23.8850 C.3   493  LEU493      0.0001
     17  CD2       56.6020  -20.7870  -22.2110 C.3   493  LEU493      0.0001
     18  N         61.3300  -18.9480  -23.8300 N.am  494  MET494     -0.1977
     19  CA        62.4770  -18.2590  -24.3280 C.3   494  MET494      0.1605
     20  C         62.0650  -18.0400  -25.7640 C.2   494  MET494      0.2287
     21  O         61.5640  -18.9820  -26.3990 O.2   494  MET494     -0.2864
     22  CB        63.6990  -19.1580  -24.2390 C.3   494  MET494      0.0413
     23  CG        64.9930  -18.3970  -24.1650 C.3   494  MET494      0.0598
     24  SD        65.1130  -17.6710  -22.5350 S.3   494  MET494     -0.1393
     25  CE        66.2430  -16.3180  -22.8360 C.3   494  MET494      0.0692
     26  N         63.1220  -20.6790  -28.0500 N.3   497  THR497     -0.1218
     27  CA        62.4350  -21.9490  -27.7330 C.3   497  THR497      0.1862
     28  C         60.9800  -21.9170  -28.1710 C.2   497  THR497      0.2287
     29  O         60.4810  -22.9040  -28.7100 O.2   497  THR497     -0.2866
     30  CB        62.4800  -22.2850  -26.2210 C.3   497  THR497      0.1770
     31  OG1       63.8380  -22.2930  -25.7630 O.3   497  THR497     -0.2211
     32  CG2       61.8420  -23.6550  -25.9280 C.3   497  THR497      0.0375
     33  N         56.6830  -27.9760  -24.4930 N.3   528  TYR528     -0.1241
     34  CA        58.1180  -28.1130  -24.2480 C.3   528  TYR528      0.1605
     35  C         58.4150  -28.9190  -22.9810 C.2   528  TYR528      0.2264
     36  O         59.4240  -29.6300  -22.9100 O.2   528  TYR528     -0.2867
     37  CB        58.7840  -26.7390  -24.1600 C.3   528  TYR528      0.0534
     38  CG        60.2960  -26.8070  -24.0840 C.ar  528  TYR528     -0.0201
     39  CD1       61.0350  -27.4750  -25.0630 C.ar  528  TYR528     -0.0009
     40  CD2       60.9930  -26.2130  -23.0340 C.ar  528  TYR528     -0.0009
     41  CE1       62.4190  -27.5440  -24.9970 C.ar  528  TYR528      0.0417
     42  CE2       62.3790  -26.2770  -22.9630 C.ar  528  TYR528      0.0417
     43  CZ        63.0850  -26.9450  -23.9440 C.ar  528  TYR528      0.1957
     44  OH        64.4540  -27.0090  -23.8790 O.3   528  TYR528     -0.2866
     45  N         66.1380  -29.5730  -17.0740 N.3   546  ALA546     -0.1231
     46  CA        66.2480  -29.3570  -18.5140 C.3   546  ALA546      0.1694
     47  C         65.4370  -28.1550  -18.9500 C.2   546  ALA546      0.2592
     48  O         65.9200  -27.3330  -19.7310 O.2   546  ALA546     -0.2718
     49  CB        65.8010  -30.5960  -19.2790 C.3   546  ALA546      0.0304
     50  N         64.2160  -28.0620  -18.4340 N.am  547  TYR547     -0.1962
     51  CA        63.3550  -26.9090  -18.6770 C.3   547  TYR547      0.1771
     52  C         64.0660  -25.5690  -18.3680 C.2   547  TYR547      0.2620
     53  O         63.9950  -24.6370  -19.1580 O.2   547  TYR547     -0.2715
     54  CB        62.0720  -27.0430  -17.8550 C.3   547  TYR547      0.0574
     55  CG        60.9690  -26.1140  -18.2710 C.ar  547  TYR547     -0.0198
     56  CD1       60.8770  -24.8300  -17.7360 C.ar  547  TYR547     -0.0009
     57  CD2       60.0030  -26.5200  -19.1860 C.ar  547  TYR547     -0.0009
     58  CE1       59.8540  -23.9760  -18.1040 C.ar  547  TYR547      0.0417
     59  CE2       58.9760  -25.6710  -19.5650 C.ar  547  TYR547      0.0417
     60  CZ        58.9090  -24.4010  -19.0220 C.ar  547  TYR547      0.1957
     61  OH        57.9060  -23.5450  -19.3920 O.3   547  TYR547     -0.2866
     62  N         64.7760  -25.5040  -17.2460 N.am  548  ASN548     -0.1958
     63  CA        65.4660  -24.2940  -16.8220 C.3   548  ASN548      0.1819
     64  C         66.8450  -24.0940  -17.4460 C.2   548  ASN548      0.2621
     65  O         67.2900  -22.9520  -17.5630 O.2   548  ASN548     -0.2715
     66  CB        65.6320  -24.3100  -15.3050 C.3   548  ASN548      0.1195
     67  CG        66.2140  -23.0200  -14.7600 C.2   548  ASN548      0.2630
     68  OD1       67.3520  -22.9880  -14.2890 O.2   548  ASN548     -0.2716
     69  ND2       65.4370  -21.9460  -14.8350 N.am  548  ASN548     -0.0877
     70  N         67.5460  -25.1760  -17.7950 N.am  549  ALA549     -0.1963
     71  CA        68.9690  -25.0800  -18.1950 C.3   549  ALA549      0.1728
     72  C         69.3380  -25.6680  -19.5550 C.2   549  ALA549      0.2617
     73  O         70.4650  -25.4880  -20.0080 O.2   549  ALA549     -0.2715
     74  CB        69.8440  -25.6960  -17.1220 C.3   549  ALA549      0.0334
     75  N         68.4070  -26.3490  -20.2140 N.am  550  GLY550     -0.1941
     76  CA        68.6760  -26.9700  -21.5080 C.3   550  GLY550      0.1998
     77  C         69.0930  -28.4230  -21.3310 C.2   550  GLY550      0.2480
     78  O         69.9660  -28.7030  -20.5060 O.2   550  GLY550     -0.2729
     79  N         68.4860  -29.3560  -22.1060 N.am  551  PRO551     -0.2726
     80  CA        68.7860  -30.7800  -21.9200 C.3   551  PRO551      0.1402
     81  C         70.2650  -31.1440  -22.0620 C.2   551  PRO551      0.2269
     82  O         70.7140  -32.1020  -21.4390 O.2   551  PRO551     -0.2865
     83  CB        67.9740  -31.4610  -23.0250 C.3   551  PRO551      0.0296
     84  CG        66.9250  -30.4870  -23.3990 C.3   551  PRO551      0.0237
     85  CD        67.5500  -29.1480  -23.2260 C.3   551  PRO551      0.0939
     86  N         72.7570  -29.3590  -20.9970 N.3   553  ARG553     -0.1245
     87  CA        73.3300  -29.1170  -19.6630 C.3   553  ARG553      0.1563
     88  C         73.1470  -30.3350  -18.7550 C.2   553  ARG553      0.2260
     89  O         74.0950  -30.8010  -18.1310 O.2   553  ARG553     -0.2867
     90  CB        72.7130  -27.8710  -18.9940 C.3   553  ARG553      0.0307
     91  CG        73.6520  -26.6760  -18.9160 C.3   553  ARG553      0.0489
     92  CD        74.0030  -26.1280  -20.2910 C.3   553  ARG553      0.2205
     93  NE        74.4760  -24.7390  -20.2500 N.pl3 553  ARG553     -0.0865
     94  CZ        73.7090  -23.6600  -20.0430 C.cat 553  ARG553      0.5346
     95  NH1       72.3930  -23.7580  -19.8260 N.pl3 553  ARG553      0.1354
     96  NH2       74.2700  -22.4530  -20.0340 N.pl3 553  ARG553      0.1354
@<TRIPOS>BOND
     1    29    28    2
     2    28    27    1
     3    26    27    1
     4    27    30    1
     5    21    20    2
     6    30    32    1
     7    30    31    1
     8    20    19    1
     9    39    41   ar
    10    39    38   ar
    11    41    43   ar
    12    33    34    1
    13    19    22    1
    14    19    18    1
    15    34    37    1
    16    34    35    1
    17    22    23    1
    18    23    24    1
    19    37    38    1
    20    38    40   ar
    21    43    44    1
    22    43    42   ar
    23    16    15    1
    24    18    12   am
    25    14    15    1
    26    14    11    1
    27    15    17    1
    28    84    85    1
    29    84    83    1
    30    85    79    1
    31    12    13    2
    32    12    11    1
    33    40    42   ar
    34    83    80    1
    35    35    36    2
    36    25    24    1
    37    11    10    1
    38    79    80    1
    39    79    77   am
    40    81    80    1
    41    81    82    2
    42    76    77    1
    43    76    75    1
    44    77    78    2
    45    10     3   am
    46    86    87    1
    47    92    93    1
    48    92    91    1
    49    93    94    2
    50    75    72   am
    51     3     4    2
    52     3     2    1
    53    94    96    1
    54    94    95    1
    55    73    72    2
    56    48    47    2
    57    87    90    1
    58    87    88    1
    59    59    57   ar
    60    59    60   ar
    61    72    71    1
    62    61    60    1
    63    49    46    1
    64    57    55   ar
    65    53    52    2
    66    60    58   ar
    67    90    91    1
    68     2     1    1
    69     2     5    1
    70    47    46    1
    71    47    50   am
    72    88    89    2
    73    51    50    1
    74    51    52    1
    75    51    54    1
    76    46    45    1
    77    52    62   am
    78    55    54    1
    79    55    56   ar
    80    71    70    1
    81    71    74    1
    82    58    56   ar
    83     5     6    1
    84    70    64   am
    85    65    64    2
    86    64    63    1
    87     8     7    2
    88    62    63    1
    89     9     7   am
    90     7     6    1
    91    63    66    1
    92    66    67    1
    93    69    67   am
    94    67    68    2
