@<TRIPOS>MOLECULE
tmp/6fcrA03.pdb
 128 121 0 0 0
SMALL
GASTEIGER

@<TRIPOS>ATOM
      1  N         58.2780  -20.0860  -12.0410 N.3   474  GLN474     -0.1245
      2  CA        58.7950  -19.3240  -13.1810 C.3   474  GLN474      0.1566
      3  C         58.2980  -17.8880  -13.2370 C.2   474  GLN474      0.2260
      4  O         59.0890  -16.9630  -13.4570 O.2   474  GLN474     -0.2867
      5  CB        58.5120  -20.0510  -14.5080 C.3   474  GLN474      0.0367
      6  CG        59.3310  -21.3240  -14.7690 C.3   474  GLN474      0.0905
      7  CD        60.8320  -21.1130  -14.6870 C.2   474  GLN474      0.2608
      8  OE1       61.3740  -20.8340  -13.6170 O.2   474  GLN474     -0.2717
      9  NE2       61.5160  -21.2790  -15.8100 N.am  474  GLN474     -0.0878
     10  N         62.2180  -11.7890  -17.9170 N.3   483  SER483     -0.1202
     11  CA        63.4880  -11.9360  -17.1790 C.3   483  SER483      0.2020
     12  C         64.6030  -11.0600  -17.7600 C.2   483  SER483      0.2619
     13  O         64.4650  -10.5030  -18.8560 O.2   483  SER483     -0.2717
     14  CB        63.9380  -13.3930  -17.1670 C.3   483  SER483      0.2103
     15  OG        64.1810  -13.8550  -18.4780 O.3   483  SER483     -0.2182
     16  N         65.7140  -10.9630  -17.0310 N.am  484  GLY484     -0.1942
     17  CA        66.8830  -10.1990  -17.4750 C.3   484  GLY484      0.2014
     18  C         67.3690  -10.4930  -18.8910 C.2   484  GLY484      0.2638
     19  O         67.8250   -9.5850  -19.5940 O.2   484  GLY484     -0.2714
     20  N         67.2660  -11.7560  -19.3080 N.am  485  VAL485     -0.1977
     21  CA        67.7350  -12.1880  -20.6290 C.3   485  VAL485      0.1596
     22  C         66.5950  -12.5390  -21.6090 C.2   485  VAL485      0.2287
     23  O         66.8230  -13.2110  -22.6140 O.2   485  VAL485     -0.2864
     24  CB        68.7690  -13.3410  -20.4980 C.3   485  VAL485      0.0276
     25  CG1       69.8670  -12.9620  -19.5030 C.3   485  VAL485      0.0022
     26  CG2       68.1060  -14.6630  -20.1150 C.3   485  VAL485      0.0022
     27  N         63.3830  -14.1860  -21.2580 N.3   487  ALA487     -0.1245
     28  CA        62.3810  -15.2670  -21.1130 C.3   487  ALA487      0.1562
     29  C         61.0450  -14.6270  -20.7630 C.2   487  ALA487      0.2260
     30  O         60.9980  -13.7580  -19.8890 O.2   487  ALA487     -0.2867
     31  CB        62.7880  -16.2550  -20.0330 C.3   487  ALA487      0.0290
     32  N         55.0340  -19.2950  -18.0620 N.3   491  MET491     -0.1230
     33  CA        55.9620  -20.4300  -18.0090 C.3   491  MET491      0.1702
     34  C         57.3550  -20.0640  -18.5630 C.2   491  MET491      0.2592
     35  O         58.1190  -20.9400  -18.9840 O.2   491  MET491     -0.2718
     36  CB        55.3430  -21.6250  -18.7420 C.3   491  MET491      0.0401
     37  CG        54.1560  -22.2130  -18.0040 C.3   491  MET491      0.0596
     38  SD        53.4590  -23.7210  -18.7110 S.3   491  MET491     -0.1393
     39  CE        54.7890  -24.8950  -18.4810 C.3   491  MET491      0.0692
     40  N         57.6800  -18.7670  -18.5010 N.am  492  GLN492     -0.1966
     41  CA        58.9350  -18.1830  -18.9870 C.3   492  GLN492      0.1733
     42  C         59.5400  -18.8850  -20.2050 C.2   492  GLN492      0.2616
     43  O         60.6000  -19.4880  -20.1370 O.2   492  GLN492     -0.2715
     44  CB        59.9380  -18.0740  -17.8430 C.3   492  GLN492      0.0408
     45  CG        59.5150  -17.1010  -16.7470 C.3   492  GLN492      0.0908
     46  CD        59.7760  -15.6490  -17.1010 C.2   492  GLN492      0.2608
     47  OE1       60.9220  -15.2440  -17.2940 O.2   492  GLN492     -0.2717
     48  NE2       58.7120  -14.8540  -17.1720 N.am  492  GLN492     -0.0878
     49  N         58.8240  -18.8010  -21.3200 N.am  493  LEU493     -0.1963
     50  CA        59.3200  -19.3000  -22.5930 C.3   493  LEU493      0.1728
     51  C         60.3940  -18.3560  -23.1130 C.2   493  LEU493      0.2616
     52  O         60.3630  -17.1340  -22.8960 O.2   493  LEU493     -0.2715
     53  CB        58.2040  -19.4380  -23.6310 C.3   493  LEU493      0.0311
     54  CG        57.2990  -20.6750  -23.5600 C.3   493  LEU493      0.0022
     55  CD1       58.0740  -21.9500  -23.8850 C.3   493  LEU493      0.0001
     56  CD2       56.6020  -20.7870  -22.2110 C.3   493  LEU493      0.0001
     57  N         61.3300  -18.9480  -23.8300 N.am  494  MET494     -0.1977
     58  CA        62.4770  -18.2590  -24.3280 C.3   494  MET494      0.1605
     59  C         62.0650  -18.0400  -25.7640 C.2   494  MET494      0.2287
     60  O         61.5640  -18.9820  -26.3990 O.2   494  MET494     -0.2864
     61  CB        63.6990  -19.1580  -24.2390 C.3   494  MET494      0.0413
     62  CG        64.9930  -18.3970  -24.1650 C.3   494  MET494      0.0598
     63  SD        65.1130  -17.6710  -22.5350 S.3   494  MET494     -0.1393
     64  CE        66.2430  -16.3180  -22.8360 C.3   494  MET494      0.0692
     65  N         63.1220  -20.6790  -28.0500 N.3   497  THR497     -0.1218
     66  CA        62.4350  -21.9490  -27.7330 C.3   497  THR497      0.1862
     67  C         60.9800  -21.9170  -28.1710 C.2   497  THR497      0.2287
     68  O         60.4810  -22.9040  -28.7100 O.2   497  THR497     -0.2866
     69  CB        62.4800  -22.2850  -26.2210 C.3   497  THR497      0.1770
     70  OG1       63.8380  -22.2930  -25.7630 O.3   497  THR497     -0.2211
     71  CG2       61.8420  -23.6550  -25.9280 C.3   497  THR497      0.0375
     72  N         56.6830  -27.9760  -24.4930 N.3   528  TYR528     -0.1241
     73  CA        58.1180  -28.1130  -24.2480 C.3   528  TYR528      0.1605
     74  C         58.4150  -28.9190  -22.9810 C.2   528  TYR528      0.2264
     75  O         59.4240  -29.6300  -22.9100 O.2   528  TYR528     -0.2867
     76  CB        58.7840  -26.7390  -24.1600 C.3   528  TYR528      0.0534
     77  CG        60.2960  -26.8070  -24.0840 C.ar  528  TYR528     -0.0201
     78  CD1       61.0350  -27.4750  -25.0630 C.ar  528  TYR528     -0.0009
     79  CD2       60.9930  -26.2130  -23.0340 C.ar  528  TYR528     -0.0009
     80  CE1       62.4190  -27.5440  -24.9970 C.ar  528  TYR528      0.0417
     81  CE2       62.3790  -26.2770  -22.9630 C.ar  528  TYR528      0.0417
     82  CZ        63.0850  -26.9450  -23.9440 C.ar  528  TYR528      0.1957
     83  OH        64.4540  -27.0090  -23.8790 O.3   528  TYR528     -0.2866
     84  N         64.2160  -28.0620  -18.4340 N.3   547  TYR547     -0.1227
     85  CA        63.3550  -26.9090  -18.6770 C.3   547  TYR547      0.1736
     86  C         64.0660  -25.5690  -18.3680 C.2   547  TYR547      0.2595
     87  O         63.9950  -24.6370  -19.1580 O.2   547  TYR547     -0.2718
     88  CB        62.0720  -27.0430  -17.8550 C.3   547  TYR547      0.0548
     89  CG        60.9690  -26.1140  -18.2710 C.ar  547  TYR547     -0.0200
     90  CD1       60.8770  -24.8300  -17.7360 C.ar  547  TYR547     -0.0009
     91  CD2       60.0030  -26.5200  -19.1860 C.ar  547  TYR547     -0.0009
     92  CE1       59.8540  -23.9760  -18.1040 C.ar  547  TYR547      0.0417
     93  CE2       58.9760  -25.6710  -19.5650 C.ar  547  TYR547      0.0417
     94  CZ        58.9090  -24.4010  -19.0220 C.ar  547  TYR547      0.1957
     95  OH        57.9060  -23.5450  -19.3920 O.3   547  TYR547     -0.2866
     96  N         64.7760  -25.5040  -17.2460 N.am  548  ASN548     -0.1960
     97  CA        65.4660  -24.2940  -16.8220 C.3   548  ASN548      0.1819
     98  C         66.8450  -24.0940  -17.4460 C.2   548  ASN548      0.2621
     99  O         67.2900  -22.9520  -17.5630 O.2   548  ASN548     -0.2715
    100  CB        65.6320  -24.3100  -15.3050 C.3   548  ASN548      0.1195
    101  CG        66.2140  -23.0200  -14.7600 C.2   548  ASN548      0.2630
    102  OD1       67.3520  -22.9880  -14.2890 O.2   548  ASN548     -0.2716
    103  ND2       65.4370  -21.9460  -14.8350 N.am  548  ASN548     -0.0877
    104  N         67.5460  -25.1760  -17.7950 N.am  549  ALA549     -0.1977
    105  CA        68.9690  -25.0800  -18.1950 C.3   549  ALA549      0.1597
    106  C         69.3380  -25.6680  -19.5550 C.2   549  ALA549      0.2287
    107  O         70.4650  -25.4880  -20.0080 O.2   549  ALA549     -0.2864
    108  CB        69.8440  -25.6960  -17.1220 C.3   549  ALA549      0.0319
    109  N         72.7570  -29.3590  -20.9970 N.3   553  ARG553     -0.1245
    110  CA        73.3300  -29.1170  -19.6630 C.3   553  ARG553      0.1563
    111  C         73.1470  -30.3350  -18.7550 C.2   553  ARG553      0.2260
    112  O         74.0950  -30.8010  -18.1310 O.2   553  ARG553     -0.2867
    113  CB        72.7130  -27.8710  -18.9940 C.3   553  ARG553      0.0307
    114  CG        73.6520  -26.6760  -18.9160 C.3   553  ARG553      0.0489
    115  CD        74.0030  -26.1280  -20.2910 C.3   553  ARG553      0.2205
    116  NE        74.4760  -24.7390  -20.2500 N.pl3 553  ARG553     -0.0865
    117  CZ        73.7090  -23.6600  -20.0430 C.cat 553  ARG553      0.5346
    118  NH1       72.3930  -23.7580  -19.8260 N.pl3 553  ARG553      0.1354
    119  NH2       74.2700  -22.4530  -20.0340 N.pl3 553  ARG553      0.1354
    120  N         71.0910  -21.1870   -9.7800 N.3   577  GLU577     -0.1245
    121  CA        69.7490  -20.9670  -10.2810 C.3   577  GLU577      0.1567
    122  C         69.0320  -22.3010  -10.4570 C.2   577  GLU577      0.2260
    123  O         67.9390  -22.5240   -9.9120 O.2   577  GLU577     -0.2867
    124  CB        69.7870  -20.2130  -11.6140 C.3   577  GLU577      0.0388
    125  CG        68.4150  -19.7470  -12.0920 C.3   577  GLU577      0.1160
    126  CD        68.4240  -19.2830  -13.5340 C.2   577  GLU577      0.3649
    127  OE1       69.1890  -18.3380  -13.8340 O.co2 577  GLU577     -0.2457
    128  OE2       67.6610  -19.8570  -14.3540 O.co2 577  GLU577     -0.2457
@<TRIPOS>BOND
     1    68    67    2
     2    67    66    1
     3    65    66    1
     4    66    69    1
     5    60    59    2
     6    69    71    1
     7    69    70    1
     8    59    58    1
     9    78    80   ar
    10    78    77   ar
    11    80    82   ar
    12    72    73    1
    13    58    61    1
    14    58    57    1
    15    73    76    1
    16    73    74    1
    17    61    62    1
    18    62    63    1
    19    76    77    1
    20    77    79   ar
    21    82    83    1
    22    82    81   ar
    23    55    54    1
    24    57    51   am
    25    53    54    1
    26    53    50    1
    27    54    56    1
    28    51    52    2
    29    51    50    1
    30    79    81   ar
    31    74    75    2
    32    64    63    1
    33    23    22    2
    34    50    49    1
    35    22    21    1
    36    49    42   am
    37    27    28    1
    38    28    29    1
    39    28    31    1
    40   109   110    1
    41    29    30    2
    42    21    24    1
    43    21    20    1
    44    24    26    1
    45    24    25    1
    46   115   116    1
    47   115   114    1
    48   116   117    2
    49    42    43    2
    50    42    41    1
    51   117   119    1
    52   117   118    1
    53   107   106    2
    54   110   113    1
    55   110   111    1
    56    19    18    2
    57    93    91   ar
    58    93    94   ar
    59   106   105    1
    60    95    94    1
    61    20    18   am
    62    91    89   ar
    63    87    86    2
    64    94    92   ar
    65   113   114    1
    66    41    40    1
    67    41    44    1
    68    35    34    2
    69    18    17    1
    70    13    12    2
    71   111   112    2
    72    36    33    1
    73    36    37    1
    74    38    39    1
    75    38    37    1
    76    85    84    1
    77    85    86    1
    78    85    88    1
    79    34    40   am
    80    34    33    1
    81    15    14    1
    82    86    96   am
    83    89    88    1
    84    89    90   ar
    85   105   104    1
    86   105   108    1
    87    92    90   ar
    88    32    33    1
    89    10    11    1
    90    44    45    1
    91   104    98   am
    92    12    11    1
    93    12    16   am
    94    99    98    2
    95    17    16    1
    96    98    97    1
    97    47    46    2
    98    96    97    1
    99    11    14    1
   100    48    46   am
   101    46    45    1
   102    97   100    1
   103     9     7   am
   104   100   101    1
   105   103   101   am
   106     6     7    1
   107     6     5    1
   108   101   102    2
   109     7     8    2
   110     5     2    1
   111   128   126   ar
   112   127   126   ar
   113   126   125    1
   114     4     3    2
   115     3     2    1
   116     2     1    1
   117   125   124    1
   118   124   121    1
   119   122   121    1
   120   122   123    2
   121   121   120    1
