@<TRIPOS>MOLECULE
tmp/6fcrA02.pdb
 117 110 0 0 0
SMALL
GASTEIGER

@<TRIPOS>ATOM
      1  N         50.2270  -12.4040   -8.0740 N.3   426  PHE426     -0.1241
      2  CA        51.6600  -12.1000   -7.9610 C.3   426  PHE426      0.1605
      3  C         51.9650  -11.0410   -6.8890 C.2   426  PHE426      0.2264
      4  O         52.9010  -11.2210   -6.1160 O.2   426  PHE426     -0.2867
      5  CB        52.2530  -11.6960   -9.3220 C.3   426  PHE426      0.0534
      6  CG        53.6870  -11.2490   -9.2490 C.ar  426  PHE426     -0.0203
      7  CD1       54.0240   -9.9780   -8.7880 C.ar  426  PHE426     -0.0042
      8  CD2       54.7080  -12.0990   -9.6460 C.ar  426  PHE426     -0.0042
      9  CE1       55.3460   -9.5790   -8.7140 C.ar  426  PHE426     -0.0003
     10  CE2       56.0330  -11.6960   -9.5880 C.ar  426  PHE426     -0.0003
     11  CZ        56.3510  -10.4310   -9.1170 C.ar  426  PHE426     -0.0000
     12  N         56.9550  -21.2690   -9.8700 N.3   473  GLN473     -0.1231
     13  CA        58.3640  -20.9380   -9.7370 C.3   473  GLN473      0.1698
     14  C         58.8120  -19.9530  -10.8250 C.2   473  GLN473      0.2592
     15  O         59.6320  -19.0740  -10.5470 O.2   473  GLN473     -0.2718
     16  CB        59.2210  -22.2180   -9.7300 C.3   473  GLN473      0.0381
     17  CG        60.7270  -22.0420   -9.9100 C.3   473  GLN473      0.0905
     18  CD        61.3570  -21.0610   -8.9450 C.2   473  GLN473      0.2608
     19  OE1       60.8700  -20.8720   -7.8300 O.2   473  GLN473     -0.2717
     20  NE2       62.4520  -20.4300   -9.3710 N.am  473  GLN473     -0.0878
     21  N         58.2780  -20.0860  -12.0410 N.am  474  GLN474     -0.1966
     22  CA        58.7950  -19.3240  -13.1810 C.3   474  GLN474      0.1733
     23  C         58.2980  -17.8880  -13.2370 C.2   474  GLN474      0.2617
     24  O         59.0890  -16.9630  -13.4570 O.2   474  GLN474     -0.2715
     25  CB        58.5120  -20.0510  -14.5080 C.3   474  GLN474      0.0408
     26  CG        59.3310  -21.3240  -14.7690 C.3   474  GLN474      0.0908
     27  CD        60.8320  -21.1130  -14.6870 C.2   474  GLN474      0.2608
     28  OE1       61.3740  -20.8340  -13.6170 O.2   474  GLN474     -0.2717
     29  NE2       61.5160  -21.2790  -15.8100 N.am  474  GLN474     -0.0878
     30  N         56.9950  -17.7050  -13.0540 N.am  475  SER475     -0.1950
     31  CA        56.3790  -16.3680  -13.0560 C.3   475  SER475      0.1924
     32  C         55.8280  -15.8970  -11.7090 C.2   475  SER475      0.2314
     33  O         55.7530  -14.6960  -11.4810 O.2   475  SER475     -0.2863
     34  CB        55.2330  -16.3320  -14.0650 C.3   475  SER475      0.2116
     35  OG        54.1530  -17.1490  -13.6420 O.3   475  SER475     -0.2180
     36  N         52.5190  -13.8780  -12.6810 N.3   478  MET478     -0.1245
     37  CA        52.5510  -12.5950  -13.3770 C.3   478  MET478      0.1570
     38  C         52.4830  -12.9060  -14.8640 C.2   478  MET478      0.2261
     39  O         53.4920  -13.2770  -15.4570 O.2   478  MET478     -0.2867
     40  CB        53.8280  -11.8200  -13.0410 C.3   478  MET478      0.0387
     41  CG        54.0420  -10.5540  -13.8630 C.3   478  MET478      0.0595
     42  SD        55.1080   -9.3360  -13.0660 S.3   478  MET478     -0.1393
     43  CE        56.7300  -10.1090  -13.1520 C.3   478  MET478      0.0692
     44  N         55.3490  -11.5000  -17.3710 N.3   481  ALA481     -0.1231
     45  CA        56.6620  -11.4420  -16.7170 C.3   481  ALA481      0.1694
     46  C         57.7850  -11.5820  -17.7350 C.2   481  ALA481      0.2592
     47  O         57.6830  -12.3840  -18.6730 O.2   481  ALA481     -0.2718
     48  CB        56.7790  -12.5240  -15.6580 C.3   481  ALA481      0.0304
     49  N         58.8480  -10.7980  -17.5460 N.am  482  ARG482     -0.1966
     50  CA        60.0180  -10.8500  -18.4200 C.3   482  ARG482      0.1729
     51  C         61.3060  -10.8710  -17.5860 C.2   482  ARG482      0.2616
     52  O         61.4530  -10.0820  -16.6480 O.2   482  ARG482     -0.2715
     53  CB        59.9940   -9.6690  -19.3950 C.3   482  ARG482      0.0348
     54  CG        60.5370  -10.0100  -20.7720 C.3   482  ARG482      0.0492
     55  CD        60.0970   -9.0190  -21.8380 C.3   482  ARG482      0.2205
     56  NE        60.6880   -9.3480  -23.1400 N.pl3 482  ARG482     -0.0865
     57  CZ        61.9550   -9.1060  -23.5030 C.cat 482  ARG482      0.5346
     58  NH1       62.8250   -8.5180  -22.6730 N.pl3 482  ARG482      0.1354
     59  NH2       62.3650   -9.4630  -24.7200 N.pl3 482  ARG482      0.1354
     60  N         62.2180  -11.7890  -17.9170 N.am  483  SER483     -0.1950
     61  CA        63.4880  -11.9360  -17.1790 C.3   483  SER483      0.1924
     62  C         64.6030  -11.0600  -17.7600 C.2   483  SER483      0.2314
     63  O         64.4650  -10.5030  -18.8560 O.2   483  SER483     -0.2863
     64  CB        63.9380  -13.3930  -17.1670 C.3   483  SER483      0.2116
     65  OG        64.1810  -13.8550  -18.4780 O.3   483  SER483     -0.2180
     66  N         63.3830  -14.1860  -21.2580 N.3   487  ALA487     -0.1245
     67  CA        62.3810  -15.2670  -21.1130 C.3   487  ALA487      0.1562
     68  C         61.0450  -14.6270  -20.7630 C.2   487  ALA487      0.2260
     69  O         60.9980  -13.7580  -19.8890 O.2   487  ALA487     -0.2867
     70  CB        62.7880  -16.2550  -20.0330 C.3   487  ALA487      0.0290
     71  N         57.6800  -18.7670  -18.5010 N.3   492  GLN492     -0.1245
     72  CA        58.9350  -18.1830  -18.9870 C.3   492  GLN492      0.1566
     73  C         59.5400  -18.8850  -20.2050 C.2   492  GLN492      0.2260
     74  O         60.6000  -19.4880  -20.1370 O.2   492  GLN492     -0.2867
     75  CB        59.9380  -18.0740  -17.8430 C.3   492  GLN492      0.0367
     76  CG        59.5150  -17.1010  -16.7470 C.3   492  GLN492      0.0905
     77  CD        59.7760  -15.6490  -17.1010 C.2   492  GLN492      0.2608
     78  OE1       60.9220  -15.2440  -17.2940 O.2   492  GLN492     -0.2717
     79  NE2       58.7120  -14.8540  -17.1720 N.am  492  GLN492     -0.0878
     80  N         64.7760  -25.5040  -17.2460 N.3   548  ASN548     -0.1240
     81  CA        65.4660  -24.2940  -16.8220 C.3   548  ASN548      0.1653
     82  C         66.8450  -24.0940  -17.4460 C.2   548  ASN548      0.2266
     83  O         67.2900  -22.9520  -17.5630 O.2   548  ASN548     -0.2867
     84  CB        65.6320  -24.3100  -15.3050 C.3   548  ASN548      0.1155
     85  CG        66.2140  -23.0200  -14.7600 C.2   548  ASN548      0.2627
     86  OD1       67.3520  -22.9880  -14.2890 O.2   548  ASN548     -0.2716
     87  ND2       65.4370  -21.9460  -14.8350 N.am  548  ASN548     -0.0877
     88  N         71.0910  -21.1870   -9.7800 N.3   577  GLU577     -0.1245
     89  CA        69.7490  -20.9670  -10.2810 C.3   577  GLU577      0.1567
     90  C         69.0320  -22.3010  -10.4570 C.2   577  GLU577      0.2260
     91  O         67.9390  -22.5240   -9.9120 O.2   577  GLU577     -0.2867
     92  CB        69.7870  -20.2130  -11.6140 C.3   577  GLU577      0.0388
     93  CG        68.4150  -19.7470  -12.0920 C.3   577  GLU577      0.1160
     94  CD        68.4240  -19.2830  -13.5340 C.2   577  GLU577      0.3649
     95  OE1       69.1890  -18.3380  -13.8340 O.co2 577  GLU577     -0.2457
     96  OE2       67.6610  -19.8570  -14.3540 O.co2 577  GLU577     -0.2457
     97  N         68.3080  -24.3290   -7.1170 N.3   580  GLN580     -0.1231
     98  CA        67.1780  -23.7470   -6.3700 C.3   580  GLN580      0.1698
     99  C         65.8590  -23.9530   -7.0750 C.2   580  GLN580      0.2592
    100  O         64.8500  -24.2840   -6.4500 O.2   580  GLN580     -0.2718
    101  CB        67.3550  -22.2450   -6.1330 C.3   580  GLN580      0.0381
    102  CG        67.9020  -21.8980   -4.7650 C.3   580  GLN580      0.0905
    103  CD        67.0460  -22.4230   -3.6170 C.2   580  GLN580      0.2608
    104  OE1       65.8200  -22.6410   -3.7420 O.2   580  GLN580     -0.2717
    105  NE2       67.7000  -22.6420   -2.4860 N.am  580  GLN580     -0.0878
    106  N         65.8860  -23.7290   -8.3830 N.am  581  TYR581     -0.1976
    107  CA        64.7350  -23.9430   -9.2430 C.3   581  TYR581      0.1639
    108  C         64.1460  -25.3330   -9.0630 C.2   581  TYR581      0.2290
    109  O         62.9590  -25.4700   -8.7850 O.2   581  TYR581     -0.2864
    110  CB        65.1370  -23.7260  -10.7040 C.3   581  TYR581      0.0560
    111  CG        64.1040  -24.1770  -11.6880 C.ar  581  TYR581     -0.0198
    112  CD1       63.0690  -23.3440  -12.0690 C.ar  581  TYR581     -0.0009
    113  CD2       64.1600  -25.4500  -12.2320 C.ar  581  TYR581     -0.0009
    114  CE1       62.1140  -23.7740  -12.9710 C.ar  581  TYR581      0.0417
    115  CE2       63.2070  -25.8870  -13.1320 C.ar  581  TYR581      0.0417
    116  CZ        62.1950  -25.0400  -13.5020 C.ar  581  TYR581      0.1957
    117  OH        61.2560  -25.4660  -14.3980 O.3   581  TYR581     -0.2866
@<TRIPOS>BOND
     1    59    57    1
     2    57    56    2
     3    57    58    1
     4    56    55    1
     5    55    54    1
     6    66    67    1
     7    67    68    1
     8    67    70    1
     9    54    53    1
    10    68    69    2
    11    73    74    2
    12    73    72    1
    13    53    50    1
    14    72    71    1
    15    72    75    1
    16    63    62    2
    17    47    46    2
    18    65    64    1
    19    50    51    1
    20    50    49    1
    21    60    51   am
    22    60    61    1
    23    75    76    1
    24    62    61    1
    25    46    49   am
    26    46    45    1
    27    51    52    2
    28    83    82    2
    29    82    81    1
    30    44    45    1
    31    78    77    2
    32    80    81    1
    33    61    64    1
    34    79    77   am
    35    77    76    1
    36    81    84    1
    37    45    48    1
    38    29    27   am
    39    39    38    2
    40    84    85    1
    41    38    37    1
    42    87    85   am
    43    26    27    1
    44    26    25    1
    45    85    86    2
    46    27    28    2
    47    25    22    1
    48   117   116    1
    49    96    94   ar
    50    34    35    1
    51    34    31    1
    52    41    42    1
    53    41    40    1
    54    95    94   ar
    55    94    93    1
    56   116   115   ar
    57   116   114   ar
    58    24    23    2
    59    37    40    1
    60    37    36    1
    61    23    22    1
    62    23    30   am
    63    22    21    1
    64    43    42    1
    65   115   113   ar
    66    31    30    1
    67    31    32    1
    68   114   112   ar
    69   113   111   ar
    70    93    92    1
    71   112   111   ar
    72    21    14   am
    73    32    33    2
    74   111   110    1
    75    92    89    1
    76    14    15    2
    77    14    13    1
    78   110   107    1
    79    90    89    1
    80    90    91    2
    81    89    88    1
    82    17    16    1
    83    17    18    1
    84    12    13    1
    85    13    16    1
    86     8    10   ar
    87     8     6   ar
    88    10    11   ar
    89    20    18   am
    90     5     6    1
    91     5     2    1
    92     6     7   ar
    93   107   108    1
    94   107   106    1
    95    11     9   ar
    96   108   109    2
    97    18    19    2
    98     7     9   ar
    99   106    99   am
   100     1     2    1
   101     2     3    1
   102    97    98    1
   103    99   100    2
   104    99    98    1
   105     3     4    2
   106    98   101    1
   107   101   102    1
   108   102   103    1
   109   104   103    2
   110   103   105   am
