@<TRIPOS>MOLECULE
tmp/6fcrA05.pdb
 89 85 0 0 0
SMALL
GASTEIGER

@<TRIPOS>ATOM
      1  N         50.2270  -12.4040   -8.0740 N.3   426  PHE426     -0.1241
      2  CA        51.6600  -12.1000   -7.9610 C.3   426  PHE426      0.1605
      3  C         51.9650  -11.0410   -6.8890 C.2   426  PHE426      0.2264
      4  O         52.9010  -11.2210   -6.1160 O.2   426  PHE426     -0.2867
      5  CB        52.2530  -11.6960   -9.3220 C.3   426  PHE426      0.0534
      6  CG        53.6870  -11.2490   -9.2490 C.ar  426  PHE426     -0.0203
      7  CD1       54.0240   -9.9780   -8.7880 C.ar  426  PHE426     -0.0042
      8  CD2       54.7080  -12.0990   -9.6460 C.ar  426  PHE426     -0.0042
      9  CE1       55.3460   -9.5790   -8.7140 C.ar  426  PHE426     -0.0003
     10  CE2       56.0330  -11.6960   -9.5880 C.ar  426  PHE426     -0.0003
     11  CZ        56.3510  -10.4310   -9.1170 C.ar  426  PHE426     -0.0000
     12  N         54.4120  -21.4820  -11.1330 N.3   472  ARG472     -0.1231
     13  CA        54.5600  -20.8060   -9.8440 C.3   472  ARG472      0.1694
     14  C         56.0110  -20.3880   -9.5700 C.2   472  ARG472      0.2592
     15  O         56.2610  -19.2950   -9.0750 O.2   472  ARG472     -0.2718
     16  CB        54.0490  -21.6990   -8.7050 C.3   472  ARG472      0.0321
     17  CG        54.2290  -21.1440   -7.2950 C.3   472  ARG472      0.0489
     18  CD        53.5500  -19.7980   -7.1270 C.3   472  ARG472      0.2205
     19  NE        53.6840  -19.3320   -5.7560 N.pl3 472  ARG472     -0.0865
     20  CZ        54.7800  -18.7780   -5.2320 C.cat 472  ARG472      0.5346
     21  NH1       55.8840  -18.5940   -5.9550 N.pl3 472  ARG472      0.1354
     22  NH2       54.7690  -18.4060   -3.9570 N.pl3 472  ARG472      0.1354
     23  N         56.9550  -21.2690   -9.8700 N.am  473  GLN473     -0.1966
     24  CA        58.3640  -20.9380   -9.7370 C.3   473  GLN473      0.1733
     25  C         58.8120  -19.9530  -10.8250 C.2   473  GLN473      0.2616
     26  O         59.6320  -19.0740  -10.5470 O.2   473  GLN473     -0.2715
     27  CB        59.2210  -22.2180   -9.7300 C.3   473  GLN473      0.0408
     28  CG        60.7270  -22.0420   -9.9100 C.3   473  GLN473      0.0908
     29  CD        61.3570  -21.0610   -8.9450 C.2   473  GLN473      0.2608
     30  OE1       60.8700  -20.8720   -7.8300 O.2   473  GLN473     -0.2717
     31  NE2       62.4520  -20.4300   -9.3710 N.am  473  GLN473     -0.0878
     32  N         58.2780  -20.0860  -12.0410 N.am  474  GLN474     -0.1963
     33  CA        58.7950  -19.3240  -13.1810 C.3   474  GLN474      0.1733
     34  C         58.2980  -17.8880  -13.2370 C.2   474  GLN474      0.2617
     35  O         59.0890  -16.9630  -13.4570 O.2   474  GLN474     -0.2715
     36  CB        58.5120  -20.0510  -14.5080 C.3   474  GLN474      0.0408
     37  CG        59.3310  -21.3240  -14.7690 C.3   474  GLN474      0.0908
     38  CD        60.8320  -21.1130  -14.6870 C.2   474  GLN474      0.2608
     39  OE1       61.3740  -20.8340  -13.6170 O.2   474  GLN474     -0.2717
     40  NE2       61.5160  -21.2790  -15.8100 N.am  474  GLN474     -0.0878
     41  N         56.9950  -17.7050  -13.0540 N.am  475  SER475     -0.1936
     42  CA        56.3790  -16.3680  -13.0560 C.3   475  SER475      0.2055
     43  C         55.8280  -15.8970  -11.7090 C.2   475  SER475      0.2642
     44  O         55.7530  -14.6960  -11.4810 O.2   475  SER475     -0.2714
     45  CB        55.2330  -16.3320  -14.0650 C.3   475  SER475      0.2130
     46  OG        54.1530  -17.1490  -13.6420 O.3   475  SER475     -0.2179
     47  N         55.4420  -16.8330  -10.8360 N.am  476  ALA476     -0.1977
     48  CA        54.5510  -16.5640   -9.6910 C.3   476  ALA476      0.1597
     49  C         53.2260  -15.9210  -10.1350 C.2   476  ALA476      0.2287
     50  O         52.6850  -15.0530   -9.4460 O.2   476  ALA476     -0.2864
     51  CB        55.2460  -15.7340   -8.6160 C.3   476  ALA476      0.0319
     52  N         52.5190  -13.8780  -12.6810 N.3   478  MET478     -0.1245
     53  CA        52.5510  -12.5950  -13.3770 C.3   478  MET478      0.1570
     54  C         52.4830  -12.9060  -14.8640 C.2   478  MET478      0.2261
     55  O         53.4920  -13.2770  -15.4570 O.2   478  MET478     -0.2867
     56  CB        53.8280  -11.8200  -13.0410 C.3   478  MET478      0.0387
     57  CG        54.0420  -10.5540  -13.8630 C.3   478  MET478      0.0595
     58  SD        55.1080   -9.3360  -13.0660 S.3   478  MET478     -0.1393
     59  CE        56.7300  -10.1090  -13.1520 C.3   478  MET478      0.0692
     60  N         55.3490  -11.5000  -17.3710 N.3   481  ALA481     -0.1231
     61  CA        56.6620  -11.4420  -16.7170 C.3   481  ALA481      0.1694
     62  C         57.7850  -11.5820  -17.7350 C.2   481  ALA481      0.2592
     63  O         57.6830  -12.3840  -18.6730 O.2   481  ALA481     -0.2718
     64  CB        56.7790  -12.5240  -15.6580 C.3   481  ALA481      0.0304
     65  N         58.8480  -10.7980  -17.5460 N.am  482  ARG482     -0.1966
     66  CA        60.0180  -10.8500  -18.4200 C.3   482  ARG482      0.1729
     67  C         61.3060  -10.8710  -17.5860 C.2   482  ARG482      0.2616
     68  O         61.4530  -10.0820  -16.6480 O.2   482  ARG482     -0.2715
     69  CB        59.9940   -9.6690  -19.3950 C.3   482  ARG482      0.0348
     70  CG        60.5370  -10.0100  -20.7720 C.3   482  ARG482      0.0492
     71  CD        60.0970   -9.0190  -21.8380 C.3   482  ARG482      0.2205
     72  NE        60.6880   -9.3480  -23.1400 N.pl3 482  ARG482     -0.0865
     73  CZ        61.9550   -9.1060  -23.5030 C.cat 482  ARG482      0.5346
     74  NH1       62.8250   -8.5180  -22.6730 N.pl3 482  ARG482      0.1354
     75  NH2       62.3650   -9.4630  -24.7200 N.pl3 482  ARG482      0.1354
     76  N         62.2180  -11.7890  -17.9170 N.am  483  SER483     -0.1950
     77  CA        63.4880  -11.9360  -17.1790 C.3   483  SER483      0.1924
     78  C         64.6030  -11.0600  -17.7600 C.2   483  SER483      0.2314
     79  O         64.4650  -10.5030  -18.8560 O.2   483  SER483     -0.2863
     80  CB        63.9380  -13.3930  -17.1670 C.3   483  SER483      0.2116
     81  OG        64.1810  -13.8550  -18.4780 O.3   483  SER483     -0.2180
     82  N         62.6580  -25.8610   -5.6030 N.3   584  ASN584     -0.1240
     83  CA        61.3700  -25.1730   -5.4910 C.3   584  ASN584      0.1653
     84  C         60.2650  -25.9330   -6.2390 C.2   584  ASN584      0.2266
     85  O         59.2290  -26.2160   -5.6560 O.2   584  ASN584     -0.2867
     86  CB        61.4480  -23.7170   -5.9800 C.3   584  ASN584      0.1155
     87  CG        62.3670  -22.8460   -5.1330 C.2   584  ASN584      0.2627
     88  OD1       62.7630  -23.2050   -4.0180 O.2   584  ASN584     -0.2716
     89  ND2       62.7270  -21.6870   -5.6770 N.am  584  ASN584     -0.0877
@<TRIPOS>BOND
     1    75    73    1
     2    73    72    2
     3    73    74    1
     4    72    71    1
     5    71    70    1
     6    70    69    1
     7    69    66    1
     8    79    78    2
     9    63    62    2
    10    81    80    1
    11    66    67    1
    12    66    65    1
    13    76    67   am
    14    76    77    1
    15    78    77    1
    16    62    65   am
    17    62    61    1
    18    67    68    2
    19    60    61    1
    20    77    80    1
    21    61    64    1
    22    40    38   am
    23    55    54    2
    24    54    53    1
    25    37    38    1
    26    37    36    1
    27    38    39    2
    28    36    33    1
    29    45    46    1
    30    45    42    1
    31    57    58    1
    32    57    56    1
    33    35    34    2
    34    53    56    1
    35    53    52    1
    36    34    33    1
    37    34    41   am
    38    33    32    1
    39    59    58    1
    40    42    41    1
    41    42    43    1
    42    32    25   am
    43    43    44    2
    44    43    47   am
    45    12    13    1
    46    47    48    1
    47    25    26    2
    48    25    24    1
    49    49    48    1
    50    49    50    2
    51    28    27    1
    52    28    29    1
    53    23    24    1
    54    23    14   am
    55    13    14    1
    56    13    16    1
    57    24    27    1
    58    48    51    1
    59     8    10   ar
    60     8     6   ar
    61    10    11   ar
    62    14    15    2
    63    31    29   am
    64     5     6    1
    65     5     2    1
    66     6     7   ar
    67    11     9   ar
    68    29    30    2
    69     7     9   ar
    70    16    17    1
    71     1     2    1
    72     2     3    1
    73    17    18    1
    74    18    19    1
    75     3     4    2
    76    84    85    2
    77    84    83    1
    78    86    83    1
    79    86    87    1
    80    21    20    1
    81    19    20    2
    82    89    87   am
    83    82    83    1
    84    20    22    1
    85    87    88    2
