@<TRIPOS>MOLECULE
tmp/6fcsA02.pdb
 86 79 0 0 0
SMALL
GASTEIGER

@<TRIPOS>ATOM
      1  N         33.0740  142.5100   13.4400 N.3   394  ILE394     -0.1245
      2  CA        31.6860  142.8310   13.1320 C.3   394  ILE394      0.1561
      3  C         31.5840  144.0200   12.1750 C.2   394  ILE394      0.2260
      4  O         30.7270  144.0340   11.2920 O.2   394  ILE394     -0.2867
      5  CB        30.8980  143.0920   14.4400 C.3   394  ILE394      0.0252
      6  CG1       30.9750  141.8520   15.3540 C.3   394  ILE394      0.0019
      7  CG2       29.4410  143.4270   14.1470 C.3   394  ILE394      0.0019
      8  CD1       30.5480  142.0780   16.7890 C.3   394  ILE394      0.0001
      9  N         32.7750  142.7430    8.7840 N.3   397  ARG397     -0.1231
     10  CA        31.7230  141.8880    8.2450 C.3   397  ARG397      0.1694
     11  C         30.6070  142.7270    7.6270 C.2   397  ARG397      0.2591
     12  O         30.1780  142.4530    6.5050 O.2   397  ARG397     -0.2718
     13  CB        31.1690  140.9680    9.3460 C.3   397  ARG397      0.0321
     14  CG        30.7110  139.6020    8.8610 C.3   397  ARG397      0.0489
     15  CD        30.8080  138.5560    9.9650 C.3   397  ARG397      0.2205
     16  NE        29.9530  138.8890   11.1080 N.pl3 397  ARG397     -0.0865
     17  CZ        30.1150  138.4530   12.3610 C.cat 397  ARG397      0.5346
     18  NH1       31.1280  137.6520   12.6990 N.pl3 397  ARG397      0.1354
     19  NH2       29.2510  138.8350   13.2980 N.pl3 397  ARG397      0.1354
     20  N         30.1730  143.7570    8.3570 N.am  398  ARG398     -0.1980
     21  CA        29.1140  144.6790    7.9080 C.3   398  ARG398      0.1597
     22  C         29.4570  145.3870    6.5970 C.2   398  ARG398      0.2287
     23  O         28.5970  145.5290    5.7230 O.2   398  ARG398     -0.2864
     24  CB        28.8260  145.7190    8.9970 C.3   398  ARG398      0.0334
     25  CG        27.8340  146.8100    8.6170 C.3   398  ARG398      0.0492
     26  CD        27.8160  147.9130    9.6580 C.3   398  ARG398      0.2205
     27  NE        27.3570  147.4000   10.9510 N.pl3 398  ARG398     -0.0865
     28  CZ        28.0780  147.2940   12.0720 C.cat 398  ARG398      0.5346
     29  NH1       29.3510  147.6860   12.1440 N.pl3 398  ARG398      0.1354
     30  NH2       27.4980  146.7950   13.1610 N.pl3 398  ARG398      0.1354
     31  N         30.5500  130.8200   11.1380 N.3   478  MET478     -0.1245
     32  CA        30.4430  132.1010   11.8460 C.3   478  MET478      0.1570
     33  C         30.3720  131.8150   13.3470 C.2   478  MET478      0.2261
     34  O         29.3070  131.4940   13.8780 O.2   478  MET478     -0.2867
     35  CB        29.2030  132.8730   11.3930 C.3   478  MET478      0.0387
     36  CG        29.1090  134.2860   11.9440 C.3   478  MET478      0.0595
     37  SD        27.8670  135.2820   11.0970 S.3   478  MET478     -0.1393
     38  CE        26.4790  135.1480   12.2070 C.3   478  MET478      0.0692
     39  N         30.3450  133.4940   16.0850 N.3   480  ASP480     -0.1225
     40  CA        29.4610  134.2870   16.9600 C.3   480  ASP480      0.1805
     41  C         28.0230  134.4090   16.4190 C.2   480  ASP480      0.2598
     42  O         27.3770  135.4530   16.5630 O.2   480  ASP480     -0.2718
     43  CB        30.0890  135.6700   17.2740 C.3   480  ASP480      0.1424
     44  CG        30.0910  136.6370   16.0790 C.2   480  ASP480      0.3668
     45  OD1       30.1360  136.1860   14.9140 O.co2 480  ASP480     -0.2456
     46  OD2       30.0580  137.8660   16.3180 O.co2 480  ASP480     -0.2456
     47  N         27.5170  133.3210   15.8340 N.am  481  ALA481     -0.1966
     48  CA        26.1620  133.2990   15.2670 C.3   481  ALA481      0.1728
     49  C         25.0850  133.3200   16.3510 C.2   481  ALA481      0.2616
     50  O         25.3510  133.0400   17.5240 O.2   481  ALA481     -0.2715
     51  CB        25.9770  132.0950   14.3520 C.3   481  ALA481      0.0334
     52  N         23.8700  133.6630   15.9380 N.am  482  ARG482     -0.1977
     53  CA        22.7390  133.7910   16.8500 C.3   482  ARG482      0.1597
     54  C         21.4260  133.7110   16.0740 C.2   482  ARG482      0.2287
     55  O         21.1480  134.5680   15.2360 O.2   482  ARG482     -0.2864
     56  CB        22.8120  135.1030   17.6280 C.3   482  ARG482      0.0334
     57  CG        21.9850  135.0730   18.9020 C.3   482  ARG482      0.0492
     58  CD        21.7340  136.4610   19.4710 C.3   482  ARG482      0.2205
     59  NE        21.2020  136.3830   20.8350 N.pl3 482  ARG482     -0.0865
     60  CZ        19.9380  136.1020   21.1660 C.cat 482  ARG482      0.5346
     61  NH1       19.0100  135.8640   20.2410 N.pl3 482  ARG482      0.1354
     62  NH2       19.5940  136.0580   22.4490 N.pl3 482  ARG482      0.1354
     63  N         23.2300  129.6040   19.8020 N.3   488  THR488     -0.1218
     64  CA        24.4870  130.3600   19.7410 C.3   488  THR488      0.1862
     65  C         25.6830  129.5320   19.2460 C.2   488  THR488      0.2287
     66  O         25.8270  128.3580   19.5960 O.2   488  THR488     -0.2866
     67  CB        24.8250  130.9500   21.1330 C.3   488  THR488      0.1770
     68  OG1       23.6170  131.3540   21.7970 O.3   488  THR488     -0.2211
     69  CG2       25.7700  132.1470   21.0120 C.3   488  THR488      0.0375
     70  N         26.8590  133.6020   26.8990 N.3   513  GLN513     -0.1245
     71  CA        27.6920  134.3950   25.9870 C.3   513  GLN513      0.1566
     72  C         29.0800  133.7710   25.6820 C.2   513  GLN513      0.2260
     73  O         29.7390  134.1940   24.7340 O.2   513  GLN513     -0.2867
     74  CB        27.8360  135.8280   26.5440 C.3   513  GLN513      0.0367
     75  CG        27.8620  136.9410   25.4970 C.3   513  GLN513      0.0905
     76  CD        29.2480  137.2760   24.9640 C.2   513  GLN513      0.2608
     77  OE1       30.2700  136.9360   25.5650 O.2   513  GLN513     -0.2717
     78  NE2       29.2850  137.9670   23.8270 N.am  513  GLN513     -0.0878
     79  N         30.5560  131.6590   22.0610 N.3   516  ILE516     -0.1245
     80  CA        31.2760  132.2270   20.9110 C.3   516  ILE516      0.1561
     81  C         32.6460  131.5510   20.7500 C.2   516  ILE516      0.2260
     82  O         33.1320  131.3960   19.6240 O.2   516  ILE516     -0.2867
     83  CB        31.4550  133.7660   21.0400 C.3   516  ILE516      0.0252
     84  CG1       30.1450  134.5200   20.7670 C.3   516  ILE516      0.0019
     85  CG2       32.4750  134.3000   20.0350 C.3   516  ILE516      0.0019
     86  CD1       28.8860  133.9810   21.4130 C.3   516  ILE516      0.0001
@<TRIPOS>BOND
     1    23    22    2
     2    12    11    2
     3    22    21    1
     4    11    10    1
     5    11    20   am
     6    21    20    1
     7    21    24    1
     8    10     9    1
     9    10    13    1
    10    25    24    1
    11    25    26    1
    12    14    13    1
    13    14    15    1
    14    26    27    1
    15    15    16    1
    16    27    28    2
    17    37    36    1
    18    37    38    1
    19    16    17    2
    20    31    32    1
    21     4     3    2
    22    35    32    1
    23    35    36    1
    24    32    33    1
    25    28    29    1
    26    28    30    1
    27     3     2    1
    28    17    18    1
    29    17    19    1
    30     2     1    1
    31     2     5    1
    32    33    34    2
    33     7     5    1
    34    51    48    1
    35     5     6    1
    36    45    44   ar
    37    55    54    2
    38    48    47    1
    39    48    49    1
    40     6     8    1
    41    47    41   am
    42    52    49   am
    43    52    53    1
    44    54    53    1
    45    44    46   ar
    46    44    43    1
    47    39    40    1
    48    49    50    2
    49    41    42    2
    50    41    40    1
    51    53    56    1
    52    40    43    1
    53    56    57    1
    54    57    58    1
    55    65    66    2
    56    65    64    1
    57    58    59    1
    58    82    81    2
    59    64    63    1
    60    64    67    1
    61    85    83    1
    62    61    60    1
    63    81    80    1
    64    84    83    1
    65    84    86    1
    66    59    60    2
    67    80    83    1
    68    80    79    1
    69    69    67    1
    70    67    68    1
    71    60    62    1
    72    78    76   am
    73    73    72    2
    74    76    75    1
    75    76    77    2
    76    75    74    1
    77    72    71    1
    78    71    74    1
    79    71    70    1
