@<TRIPOS>MOLECULE
tmp/6fcsA00.pdb
 152 145 0 0 0
SMALL
GASTEIGER

@<TRIPOS>ATOM
      1  N         -4.1570  124.0820   13.0170 N.3   221  ARG221     -0.1245
      2  CA        -2.7610  123.8660   13.4290 C.3   221  ARG221      0.1563
      3  C         -2.5910  123.1390   14.7640 C.2   221  ARG221      0.2260
      4  O         -1.5800  122.4760   14.9530 O.2   221  ARG221     -0.2867
      5  CB        -1.9610  125.1820   13.4610 C.3   221  ARG221      0.0307
      6  CG        -1.0710  125.4210   12.2410 C.3   221  ARG221      0.0489
      7  CD        -1.8450  125.9780   11.0520 C.3   221  ARG221      0.2205
      8  NE        -2.2320  127.3780   11.2830 N.pl3 221  ARG221     -0.0865
      9  CZ        -1.5930  128.4680   10.8360 C.cat 221  ARG221      0.5346
     10  NH1       -0.4980  128.3940   10.0740 N.pl3 221  ARG221      0.1354
     11  NH2       -2.0760  129.6680   11.1480 N.pl3 221  ARG221      0.1354
     12  N         -6.5280  119.5490   14.1250 N.3   224  PRO224     -0.2116
     13  CA        -7.1180  119.4350   12.7790 C.3   224  PRO224      0.1372
     14  C         -8.3940  118.6020   12.6910 C.2   224  PRO224      0.2244
     15  O         -9.2120  118.8340   11.8020 O.2   224  PRO224     -0.2868
     16  CB        -5.9970  118.8050   11.9330 C.3   224  PRO224      0.0268
     17  CG        -4.9730  118.3090   12.8840 C.3   224  PRO224      0.0207
     18  CD        -5.1430  119.0450   14.1760 C.3   224  PRO224      0.0892
     19  N         -7.2630  124.2250    2.9190 N.3   250  ARG250     -0.1231
     20  CA        -5.8060  124.1440    2.8530 C.3   250  ARG250      0.1694
     21  C         -5.1760  123.8830    4.2240 C.2   250  ARG250      0.2591
     22  O         -4.4050  122.9320    4.3790 O.2   250  ARG250     -0.2718
     23  CB        -5.2490  125.4420    2.2560 C.3   250  ARG250      0.0321
     24  CG        -3.7360  125.5240    2.1120 C.3   250  ARG250      0.0489
     25  CD        -3.3070  126.9500    1.8250 C.3   250  ARG250      0.2205
     26  NE        -1.9000  127.0260    1.4330 N.pl3 250  ARG250     -0.0865
     27  CZ        -0.8580  127.1430    2.2630 C.cat 250  ARG250      0.5346
     28  NH1       -1.0090  127.2190    3.5870 N.pl3 250  ARG250      0.1354
     29  NH2        0.3680  127.1950    1.7520 N.pl3 250  ARG250      0.1354
     30  N         -5.4920  124.7250    5.2060 N.am  251  GLU251     -0.1979
     31  CA        -4.8800  124.5980    6.5350 C.3   251  GLU251      0.1602
     32  C         -5.2620  123.3010    7.2270 C.2   251  GLU251      0.2287
     33  O         -4.4130  122.6800    7.8630 O.2   251  GLU251     -0.2864
     34  CB        -5.2290  125.7850    7.4460 C.3   251  GLU251      0.0415
     35  CG        -4.6250  127.1190    7.0350 C.3   251  GLU251      0.1163
     36  CD        -3.1250  127.0530    6.8480 C.2   251  GLU251      0.3649
     37  OE1       -2.4070  126.7610    7.8300 O.co2 251  GLU251     -0.2457
     38  OE2       -2.6720  127.2840    5.7070 O.co2 251  GLU251     -0.2457
     39  N         -3.3940  120.3720    5.2020 N.3   254  LEU254     -0.1231
     40  CA        -1.9520  120.4070    5.4680 C.3   254  LEU254      0.1693
     41  C         -1.6470  119.8630    6.8460 C.2   254  LEU254      0.2592
     42  O         -0.7030  119.0920    7.0170 O.2   254  LEU254     -0.2718
     43  CB        -1.3820  121.8300    5.3410 C.3   254  LEU254      0.0284
     44  CG        -0.5430  122.2020    4.1100 C.3   254  LEU254      0.0019
     45  CD1       -0.9380  121.5100    2.8160 C.3   254  LEU254      0.0001
     46  CD2       -0.6030  123.7080    3.9260 C.3   254  LEU254      0.0001
     47  N         -2.4550  120.2690    7.8220 N.am  255  SER255     -0.1952
     48  CA        -2.2680  119.8460    9.2060 C.3   255  SER255      0.1924
     49  C         -2.5490  118.3470    9.3810 C.2   255  SER255      0.2314
     50  O         -1.7870  117.6510   10.0550 O.2   255  SER255     -0.2863
     51  CB        -3.1380  120.6880   10.1430 C.3   255  SER255      0.2116
     52  OG        -2.6690  120.6130   11.4770 O.3   255  SER255     -0.2180
     53  N          0.3520  116.1970    7.7860 N.3   258  LYS258     -0.1231
     54  CA         1.5590  116.1190    8.6150 C.3   258  LYS258      0.1693
     55  C          1.3960  115.2280    9.8510 C.2   258  LYS258      0.2591
     56  O          2.3880  114.8520   10.4740 O.2   258  LYS258     -0.2718
     57  CB         2.0190  117.5200    9.0020 C.3   258  LYS258      0.0285
     58  CG         2.4790  118.3130    7.7950 C.3   258  LYS258      0.0035
     59  CD         2.5480  119.7960    8.0710 C.3   258  LYS258      0.0206
     60  CE         2.8560  120.5780    6.8020 C.3   258  LYS258      0.1093
     61  NZ         2.5680  122.0330    6.9640 N.3   258  LYS258     -0.1314
     62  N          0.1520  114.9120   10.2070 N.am  259  ARG259     -0.1980
     63  CA        -0.1680  113.8250   11.1480 C.3   259  ARG259      0.1597
     64  C         -0.3160  112.4560   10.4410 C.2   259  ARG259      0.2287
     65  O         -0.5050  111.4300   11.1020 O.2   259  ARG259     -0.2864
     66  CB        -1.4510  114.1580   11.9230 C.3   259  ARG259      0.0334
     67  CG        -1.2220  115.0530   13.1200 C.3   259  ARG259      0.0492
     68  CD        -2.2700  116.1420   13.2010 C.3   259  ARG259      0.2205
     69  NE        -2.1480  116.9250   14.4310 N.pl3 259  ARG259     -0.0865
     70  CZ        -2.7610  116.6570   15.5840 C.cat 259  ARG259      0.5346
     71  NH1       -3.5710  115.6050   15.7200 N.pl3 259  ARG259      0.1354
     72  NH2       -2.5630  117.4590   16.6290 N.pl3 259  ARG259      0.1354
     73  N          2.3670  123.7910   -2.1100 N.3   279  THR279     -0.1218
     74  CA         2.5060  123.1730   -0.7860 C.3   279  THR279      0.1862
     75  C          1.4760  122.0670   -0.5500 C.2   279  THR279      0.2287
     76  O          1.8080  121.0250    0.0270 O.2   279  THR279     -0.2866
     77  CB         2.4280  124.2230    0.3390 C.3   279  THR279      0.1770
     78  OG1        3.5140  125.1400    0.1890 O.3   279  THR279     -0.2211
     79  CG2        2.5250  123.5760    1.7290 C.3   279  THR279      0.0375
     80  N         15.7860  132.7580   18.0270 N.3   485  VAL485     -0.1245
     81  CA        15.5290  132.5540   19.4620 C.3   485  VAL485      0.1561
     82  C         16.7790  132.0970   20.2290 C.2   485  VAL485      0.2260
     83  O         16.6970  131.2900   21.1490 O.2   485  VAL485     -0.2867
     84  CB        14.3260  131.5970   19.7020 C.3   485  VAL485      0.0252
     85  CG1       13.0170  132.2850   19.3330 C.3   485  VAL485      0.0019
     86  CG2       14.4710  130.2990   18.9200 C.3   485  VAL485      0.0019
     87  N         18.3610  119.0360   15.7430 N.3   548  ASN548     -0.1225
     88  CA        17.7420  120.2850   15.3110 C.3   548  ASN548      0.1785
     89  C         16.3300  120.4730   15.8810 C.2   548  ASN548      0.2597
     90  O         15.9380  121.5940   16.2060 O.2   548  ASN548     -0.2718
     91  CB        17.7020  120.3350   13.7760 C.3   548  ASN548      0.1169
     92  CG        17.1440  121.6410   13.2360 C.2   548  ASN548      0.2627
     93  OD1       16.0190  121.6900   12.7360 O.2   548  ASN548     -0.2716
     94  ND2       17.9290  122.7090   13.3440 N.am  548  ASN548     -0.0877
     95  N         15.5670  119.3870   15.9860 N.am  549  ALA549     -0.1979
     96  CA        14.1440  119.4620   16.3490 C.3   549  ALA549      0.1597
     97  C         13.7900  118.9490   17.7500 C.2   549  ALA549      0.2287
     98  O         12.6880  119.1910   18.2120 O.2   549  ALA549     -0.2864
     99  CB        13.3120  118.7330   15.3080 C.3   549  ALA549      0.0319
    100  N         10.2710  115.1230   19.2430 N.3   553  ARG553     -0.1245
    101  CA         9.6400  115.3100   17.9260 C.3   553  ARG553      0.1563
    102  C          9.9980  114.1800   16.9660 C.2   553  ARG553      0.2260
    103  O          9.1520  113.7200   16.2070 O.2   553  ARG553     -0.2867
    104  CB        10.0060  116.6610   17.3100 C.3   553  ARG553      0.0307
    105  CG         9.0280  117.7700   17.6590 C.3   553  ARG553      0.0489
    106  CD         9.7920  119.0250   17.9830 C.3   553  ARG553      0.2205
    107  NE         8.9500  120.1730   18.2910 N.pl3 553  ARG553     -0.0865
    108  CZ         9.3890  121.4340   18.3650 C.cat 553  ARG553      0.5346
    109  NH1       10.6740  121.7310   18.1540 N.pl3 553  ARG553      0.1354
    110  NH2        8.5340  122.4160   18.6510 N.pl3 553  ARG553      0.1354
    111  N          7.4510  116.7290    9.1640 N.3   574  PRO574     -0.2102
    112  CA         6.4940  117.8500    9.2380 C.3   574  PRO574      0.1504
    113  C          7.0700  119.2640    9.1520 C.2   574  PRO574      0.2576
    114  O          6.4310  120.1470    8.5640 O.2   574  PRO574     -0.2718
    115  CB         5.8500  117.6510   10.6050 C.3   574  PRO574      0.0282
    116  CG         5.8440  116.1800   10.7710 C.3   574  PRO574      0.0208
    117  CD         7.1610  115.7280   10.2100 C.3   574  PRO574      0.0893
    118  N          8.2450  119.4750    9.7420 N.am  575  PHE575     -0.1963
    119  CA         8.8900  120.7910    9.7360 C.3   575  PHE575      0.1771
    120  C          9.6950  120.9810    8.4520 C.2   575  PHE575      0.2620
    121  O         10.4820  120.1100    8.0810 O.2   575  PHE575     -0.2715
    122  CB         9.8200  120.9580   10.9480 C.3   575  PHE575      0.0574
    123  CG         9.1510  120.7830   12.3030 C.ar  575  PHE575     -0.0200
    124  CD1        7.7620  120.6310   12.4580 C.ar  575  PHE575     -0.0042
    125  CD2        9.9330  120.8130   13.4510 C.ar  575  PHE575     -0.0042
    126  CE1        7.1930  120.4890   13.7150 C.ar  575  PHE575     -0.0003
    127  CE2        9.3630  120.6770   14.7080 C.ar  575  PHE575     -0.0003
    128  CZ         7.9930  120.5110   14.8380 C.ar  575  PHE575     -0.0000
    129  N          9.4900  122.1110    7.7760 N.am  576  ASP576     -0.1957
    130  CA        10.2900  122.4740    6.5980 C.3   576  ASP576      0.1840
    131  C         11.7630  122.7040    6.9580 C.2   576  ASP576      0.2622
    132  O         12.6530  122.2590    6.2300 O.2   576  ASP576     -0.2715
    133  CB         9.7370  123.7430    5.9170 C.3   576  ASP576      0.1450
    134  CG         8.5360  123.4700    5.0030 C.2   576  ASP576      0.3671
    135  OD1        8.5160  122.4380    4.2970 O.co2 576  ASP576     -0.2456
    136  OD2        7.6170  124.3170    4.9650 O.co2 576  ASP576     -0.2456
    137  N         12.0040  123.4030    8.0710 N.am  577  GLU577     -0.1963
    138  CA        13.3630  123.7130    8.5470 C.3   577  GLU577      0.1733
    139  C         14.1870  122.4530    8.8230 C.2   577  GLU577      0.2617
    140  O         15.3440  122.3460    8.4000 O.2   577  GLU577     -0.2715
    141  CB        13.3180  124.5680    9.8260 C.3   577  GLU577      0.0429
    142  CG        14.6510  125.2470   10.1590 C.3   577  GLU577      0.1163
    143  CD        14.8730  125.4880   11.6490 C.2   577  GLU577      0.3649
    144  OE1       13.9370  125.9920   12.3160 O.co2 577  GLU577     -0.2457
    145  OE2       15.9920  125.1840   12.1430 O.co2 577  GLU577     -0.2457
    146  N         13.5850  121.5140    9.5440 N.am  578  THR578     -0.1951
    147  CA        14.2630  120.2880    9.9440 C.3   578  THR578      0.1897
    148  C         14.5010  119.3620    8.7670 C.2   578  THR578      0.2313
    149  O         15.5100  118.6750    8.7320 O.2   578  THR578     -0.2863
    150  CB        13.4660  119.5490   11.0290 C.3   578  THR578      0.1794
    151  OG1       13.2170  120.4440   12.1210 O.3   578  THR578     -0.2208
    152  CG2       14.2250  118.3390   11.5500 C.3   578  THR578      0.0378
@<TRIPOS>BOND
     1    73    74    1
     2    74    75    1
     3    74    77    1
     4    75    76    2
     5    78    77    1
     6    77    79    1
     7    26    25    1
     8    26    27    2
     9    29    27    1
    10    25    24    1
    11    24    23    1
    12    23    20    1
    13    27    28    1
    14    45    44    1
    15    20    19    1
    16    20    21    1
    17    46    44    1
    18    44    43    1
    19    21    22    2
    20    21    30   am
    21   135   134   ar
    22   136   134   ar
    23   134   133    1
    24    39    40    1
    25    30    31    1
    26    43    40    1
    27    40    41    1
    28    38    36   ar
    29   133   130    1
    30   132   131    2
    31    31    32    1
    32    31    34    1
    33   130   131    1
    34   130   129    1
    35    60    61    1
    36    60    59    1
    37    41    42    2
    38    41    47   am
    39    36    35    1
    40    36    37   ar
    41   131   137   am
    42    35    34    1
    43    32    33    2
    44   129   120   am
    45    53    54    1
    46    58    59    1
    47    58    57    1
    48    47    48    1
    49   137   138    1
    50   121   120    2
    51   140   139    2
    52   120   119    1
    53   138   139    1
    54   138   141    1
    55   114   113    2
    56    54    57    1
    57    54    55    1
    58   149   148    2
    59   148   147    1
    60   139   146   am
    61   113   112    1
    62   113   118   am
    63   111   112    1
    64   111   117    1
    65    48    49    1
    66    48    51    1
    67   112   115    1
    68    49    50    2
    69   146   147    1
    70   119   118    1
    71   119   122    1
    72   141   142    1
    73    55    62   am
    74    55    56    2
    75   147   150    1
    76    10     9    1
    77    51    52    1
    78   142   143    1
    79    62    63    1
    80   117   116    1
    81    64    65    2
    82    64    63    1
    83   115   116    1
    84     9    11    1
    85     9     8    2
    86   122   123    1
    87   150   152    1
    88   150   151    1
    89     7     8    1
    90     7     6    1
    91    63    66    1
    92   143   145   ar
    93   143   144   ar
    94    15    14    2
    95    66    67    1
    96    16    13    1
    97    16    17    1
    98     6     5    1
    99   123   124   ar
   100   123   125   ar
   101   124   126   ar
   102    14    13    1
   103    93    92    2
   104    13    12    1
   105    17    18    1
   106     1     2    1
   107    67    68    1
   108    68    69    1
   109    92    94   am
   110    92    91    1
   111     2     5    1
   112     2     3    1
   113   125   127   ar
   114   126   128   ar
   115    91    88    1
   116    12    18    1
   117    69    70    2
   118   127   128   ar
   119     3     4    2
   120    99    96    1
   121    88    87    1
   122    88    89    1
   123    70    71    1
   124    70    72    1
   125    89    95   am
   126    89    90    2
   127    95    96    1
   128   103   102    2
   129    96    97    1
   130   102   101    1
   131   104   105    1
   132   104   101    1
   133   105   106    1
   134    97    98    2
   135   101   100    1
   136   106   107    1
   137    80    81    1
   138   109   108    1
   139   107   108    2
   140   108   110    1
   141    86    84    1
   142    85    84    1
   143    81    84    1
   144    81    82    1
   145    82    83    2
