@<TRIPOS>MOLECULE
tmp/6fcsA01.pdb
 96 91 0 0 0
SMALL
GASTEIGER

@<TRIPOS>ATOM
      1  N         33.0740  142.5100   13.4400 N.3   394  ILE394     -0.1245
      2  CA        31.6860  142.8310   13.1320 C.3   394  ILE394      0.1561
      3  C         31.5840  144.0200   12.1750 C.2   394  ILE394      0.2260
      4  O         30.7270  144.0340   11.2920 O.2   394  ILE394     -0.2867
      5  CB        30.8980  143.0920   14.4400 C.3   394  ILE394      0.0252
      6  CG1       30.9750  141.8520   15.3540 C.3   394  ILE394      0.0019
      7  CG2       29.4410  143.4270   14.1470 C.3   394  ILE394      0.0019
      8  CD1       30.5480  142.0780   16.7890 C.3   394  ILE394      0.0001
      9  N         32.7750  142.7430    8.7840 N.3   397  ARG397     -0.1231
     10  CA        31.7230  141.8880    8.2450 C.3   397  ARG397      0.1694
     11  C         30.6070  142.7270    7.6270 C.2   397  ARG397      0.2591
     12  O         30.1780  142.4530    6.5050 O.2   397  ARG397     -0.2718
     13  CB        31.1690  140.9680    9.3460 C.3   397  ARG397      0.0321
     14  CG        30.7110  139.6020    8.8610 C.3   397  ARG397      0.0489
     15  CD        30.8080  138.5560    9.9650 C.3   397  ARG397      0.2205
     16  NE        29.9530  138.8890   11.1080 N.pl3 397  ARG397     -0.0865
     17  CZ        30.1150  138.4530   12.3610 C.cat 397  ARG397      0.5346
     18  NH1       31.1280  137.6520   12.6990 N.pl3 397  ARG397      0.1354
     19  NH2       29.2510  138.8350   13.2980 N.pl3 397  ARG397      0.1354
     20  N         30.1730  143.7570    8.3570 N.am  398  ARG398     -0.1980
     21  CA        29.1140  144.6790    7.9080 C.3   398  ARG398      0.1597
     22  C         29.4570  145.3870    6.5970 C.2   398  ARG398      0.2287
     23  O         28.5970  145.5290    5.7230 O.2   398  ARG398     -0.2864
     24  CB        28.8260  145.7190    8.9970 C.3   398  ARG398      0.0334
     25  CG        27.8340  146.8100    8.6170 C.3   398  ARG398      0.0492
     26  CD        27.8160  147.9130    9.6580 C.3   398  ARG398      0.2205
     27  NE        27.3570  147.4000   10.9510 N.pl3 398  ARG398     -0.0865
     28  CZ        28.0780  147.2940   12.0720 C.cat 398  ARG398      0.5346
     29  NH1       29.3510  147.6860   12.1440 N.pl3 398  ARG398      0.1354
     30  NH2       27.4980  146.7950   13.1610 N.pl3 398  ARG398      0.1354
     31  N         29.0000  142.7400    3.6590 N.3   401  TYR401     -0.1241
     32  CA        27.6020  142.4620    3.2820 C.3   401  TYR401      0.1605
     33  C         27.0100  143.5940    2.4450 C.2   401  TYR401      0.2264
     34  O         26.4600  143.3670    1.3610 O.2   401  TYR401     -0.2867
     35  CB        26.6970  142.2870    4.5150 C.3   401  TYR401      0.0534
     36  CG        27.0260  141.1720    5.4970 C.ar  401  TYR401     -0.0201
     37  CD1       27.9690  140.1640    5.2120 C.ar  401  TYR401     -0.0009
     38  CD2       26.3500  141.1100    6.7180 C.ar  401  TYR401     -0.0009
     39  CE1       28.2370  139.1520    6.1330 C.ar  401  TYR401      0.0417
     40  CE2       26.6090  140.1050    7.6360 C.ar  401  TYR401      0.0417
     41  CZ        27.5400  139.1270    7.3410 C.ar  401  TYR401      0.1957
     42  OH        27.7700  138.1530    8.2820 O.3   401  TYR401     -0.2866
     43  N         33.2140  132.3340    6.6480 N.3   426  PHE426     -0.1241
     44  CA        31.7780  132.6090    6.5220 C.3   426  PHE426      0.1605
     45  C         31.4450  133.6470    5.4310 C.2   426  PHE426      0.2264
     46  O         30.5500  133.4040    4.6170 O.2   426  PHE426     -0.2867
     47  CB        31.1290  132.9940    7.8650 C.3   426  PHE426      0.0534
     48  CG        29.7100  133.4780    7.7190 C.ar  426  PHE426     -0.0203
     49  CD1       29.4330  134.8080    7.4110 C.ar  426  PHE426     -0.0042
     50  CD2       28.6480  132.5940    7.8440 C.ar  426  PHE426     -0.0042
     51  CE1       28.1280  135.2420    7.2440 C.ar  426  PHE426     -0.0003
     52  CE2       27.3400  133.0280    7.6910 C.ar  426  PHE426     -0.0003
     53  CZ        27.0830  134.3540    7.3880 C.ar  426  PHE426     -0.0000
     54  N         29.3450  133.1030    2.1930 N.3   430  ARG430     -0.1245
     55  CA        28.1750  133.9630    2.0000 C.3   430  ARG430      0.1563
     56  C         28.2130  134.6170    0.6290 C.2   430  ARG430      0.2260
     57  O         27.2310  134.5790   -0.0990 O.2   430  ARG430     -0.2867
     58  CB        28.0860  135.0250    3.1050 C.3   430  ARG430      0.0307
     59  CG        26.7580  135.7790    3.1450 C.3   430  ARG430      0.0489
     60  CD        26.8610  137.1110    3.8770 C.3   430  ARG430      0.2205
     61  NE        26.4440  138.2370    3.0200 N.pl3 430  ARG430     -0.0865
     62  CZ        25.3710  139.0260    3.1930 C.cat 430  ARG430      0.5346
     63  NH1       24.5290  138.8740    4.2210 N.pl3 430  ARG430      0.1354
     64  NH2       25.1370  140.0060    2.3170 N.pl3 430  ARG430      0.1354
     65  N         30.5500  130.8200   11.1380 N.3   478  MET478     -0.1245
     66  CA        30.4430  132.1010   11.8460 C.3   478  MET478      0.1570
     67  C         30.3720  131.8150   13.3470 C.2   478  MET478      0.2261
     68  O         29.3070  131.4940   13.8780 O.2   478  MET478     -0.2867
     69  CB        29.2030  132.8730   11.3930 C.3   478  MET478      0.0387
     70  CG        29.1090  134.2860   11.9440 C.3   478  MET478      0.0595
     71  SD        27.8670  135.2820   11.0970 S.3   478  MET478     -0.1393
     72  CE        26.4790  135.1480   12.2070 C.3   478  MET478      0.0692
     73  N         30.3450  133.4940   16.0850 N.3   480  ASP480     -0.1225
     74  CA        29.4610  134.2870   16.9600 C.3   480  ASP480      0.1805
     75  C         28.0230  134.4090   16.4190 C.2   480  ASP480      0.2598
     76  O         27.3770  135.4530   16.5630 O.2   480  ASP480     -0.2718
     77  CB        30.0890  135.6700   17.2740 C.3   480  ASP480      0.1424
     78  CG        30.0910  136.6370   16.0790 C.2   480  ASP480      0.3668
     79  OD1       30.1360  136.1860   14.9140 O.co2 480  ASP480     -0.2456
     80  OD2       30.0580  137.8660   16.3180 O.co2 480  ASP480     -0.2456
     81  N         27.5170  133.3210   15.8340 N.am  481  ALA481     -0.1966
     82  CA        26.1620  133.2990   15.2670 C.3   481  ALA481      0.1728
     83  C         25.0850  133.3200   16.3510 C.2   481  ALA481      0.2616
     84  O         25.3510  133.0400   17.5240 O.2   481  ALA481     -0.2715
     85  CB        25.9770  132.0950   14.3520 C.3   481  ALA481      0.0334
     86  N         23.8700  133.6630   15.9380 N.am  482  ARG482     -0.1977
     87  CA        22.7390  133.7910   16.8500 C.3   482  ARG482      0.1597
     88  C         21.4260  133.7110   16.0740 C.2   482  ARG482      0.2287
     89  O         21.1480  134.5680   15.2360 O.2   482  ARG482     -0.2864
     90  CB        22.8120  135.1030   17.6280 C.3   482  ARG482      0.0334
     91  CG        21.9850  135.0730   18.9020 C.3   482  ARG482      0.0492
     92  CD        21.7340  136.4610   19.4710 C.3   482  ARG482      0.2205
     93  NE        21.2020  136.3830   20.8350 N.pl3 482  ARG482     -0.0865
     94  CZ        19.9380  136.1020   21.1660 C.cat 482  ARG482      0.5346
     95  NH1       19.0100  135.8640   20.2410 N.pl3 482  ARG482      0.1354
     96  NH2       19.5940  136.0580   22.4490 N.pl3 482  ARG482      0.1354
@<TRIPOS>BOND
     1    57    56    2
     2    56    55    1
     3    34    33    2
     4    55    54    1
     5    55    58    1
     6    64    62    1
     7    33    32    1
     8    61    62    2
     9    61    60    1
    10    58    59    1
    11    59    60    1
    12    62    63    1
    13    32    31    1
    14    32    35    1
    15    35    36    1
    16    46    45    2
    17    37    36   ar
    18    37    39   ar
    19    45    44    1
    20    36    38   ar
    21    23    22    2
    22    39    41   ar
    23    12    11    2
    24    44    43    1
    25    44    47    1
    26    22    21    1
    27    38    40   ar
    28    51    53   ar
    29    51    49   ar
    30    41    40   ar
    31    41    42    1
    32    53    52   ar
    33    49    48   ar
    34    11    10    1
    35    11    20   am
    36    52    50   ar
    37    48    50   ar
    38    48    47    1
    39    21    20    1
    40    21    24    1
    41    10     9    1
    42    10    13    1
    43    25    24    1
    44    25    26    1
    45    14    13    1
    46    14    15    1
    47    26    27    1
    48    15    16    1
    49    27    28    2
    50    71    70    1
    51    71    72    1
    52    16    17    2
    53    65    66    1
    54     4     3    2
    55    69    66    1
    56    69    70    1
    57    66    67    1
    58    28    29    1
    59    28    30    1
    60     3     2    1
    61    17    18    1
    62    17    19    1
    63     2     1    1
    64     2     5    1
    65    67    68    2
    66     7     5    1
    67    85    82    1
    68     5     6    1
    69    79    78   ar
    70    89    88    2
    71    82    81    1
    72    82    83    1
    73     6     8    1
    74    81    75   am
    75    86    83   am
    76    86    87    1
    77    88    87    1
    78    78    80   ar
    79    78    77    1
    80    73    74    1
    81    83    84    2
    82    75    76    2
    83    75    74    1
    84    87    90    1
    85    74    77    1
    86    90    91    1
    87    91    92    1
    88    92    93    1
    89    95    94    1
    90    93    94    2
    91    94    96    1
