@<TRIPOS>MOLECULE
tmp/6fcxA01.pdb
 192 183 0 0 0
SMALL
GASTEIGER

@<TRIPOS>ATOM
      1  N        -30.2680   23.7460  -20.3350 N.3   295  ARG295     -0.1245
      2  CA       -29.2010   23.1100  -19.5370 C.3   295  ARG295      0.1563
      3  C        -29.1660   21.5980  -19.8140 C.2   295  ARG295      0.2260
      4  O        -30.2140   20.9270  -19.7460 O.2   295  ARG295     -0.2867
      5  CB       -29.3120   23.4190  -18.0130 C.3   295  ARG295      0.0307
      6  CG       -30.6070   23.1750  -17.2900 C.3   295  ARG295      0.0489
      7  CD       -30.4340   23.1760  -15.7390 C.3   295  ARG295      0.2205
      8  NE       -31.6930   22.7480  -15.1130 N.pl3 295  ARG295     -0.0865
      9  CZ       -31.8730   22.3740  -13.8420 C.cat 295  ARG295      0.5346
     10  NH1      -30.8590   22.3200  -12.9850 N.pl3 295  ARG295      0.1354
     11  NH2      -33.0850   21.9930  -13.4380 N.pl3 295  ARG295      0.1354
     12  N        -28.9830   18.4290  -14.8130 N.3   298  PRO298     -0.2102
     13  CA       -29.1890   19.3190  -13.6540 C.3   298  PRO298      0.1504
     14  C        -27.9150   19.8220  -13.0320 C.2   298  PRO298      0.2575
     15  O        -27.9730   20.6340  -12.0960 O.2   298  PRO298     -0.2718
     16  CB       -29.9430   18.4240  -12.6530 C.3   298  PRO298      0.0282
     17  CG       -30.6350   17.3730  -13.5090 C.3   298  PRO298      0.0208
     18  CD       -29.6320   17.1150  -14.6460 C.3   298  PRO298      0.0893
     19  N        -26.7660   19.3120  -13.4450 N.am  299  TRP299     -0.1977
     20  CA       -25.4760   19.7300  -12.9200 C.3   299  TRP299      0.1640
     21  C        -24.5960   20.0090  -14.1340 C.2   299  TRP299      0.2290
     22  O        -24.9430   19.6440  -15.2650 O.2   299  TRP299     -0.2864
     23  CB       -24.9000   18.6660  -11.9320 C.3   299  TRP299      0.0576
     24  CG       -25.0560   17.1580  -12.3990 C.ar  299  TRP299      0.0006
     25  CD1      -26.1080   16.3180  -12.0880 C.ar  299  TRP299      0.0946
     26  CD2      -24.1650   16.3890  -13.2350 C.ar  299  TRP299      0.0152
     27  NE1      -25.9270   15.1080  -12.6750 N.ar  299  TRP299     -0.2442
     28  CE2      -24.7470   15.1080  -13.3810 C.ar  299  TRP299      0.0810
     29  CE3      -22.9510   16.6700  -13.8810 C.ar  299  TRP299      0.0012
     30  CZ2      -24.1370   14.0800  -14.1320 C.ar  299  TRP299      0.0191
     31  CZ3      -22.3410   15.6840  -14.6200 C.ar  299  TRP299      0.0001
     32  CH2      -22.9320   14.3870  -14.7460 C.ar  299  TRP299      0.0015
     33  N        -26.4380   13.0750   -5.0500 N.3   315  ILE315     -0.1245
     34  CA       -26.9960   14.4210   -4.9040 C.3   315  ILE315      0.1561
     35  C        -26.2140   15.2670   -3.9000 C.2   315  ILE315      0.2260
     36  O        -26.3910   16.4770   -3.8800 O.2   315  ILE315     -0.2867
     37  CB       -28.5000   14.3060   -4.5420 C.3   315  ILE315      0.0252
     38  CG1      -29.2230   15.6450   -4.6890 C.3   315  ILE315      0.0019
     39  CG2      -28.7030   13.8960   -3.0900 C.3   315  ILE315      0.0019
     40  CD1      -30.7950   15.5080   -4.5260 C.3   315  ILE315      0.0001
     41  N        -24.2480   18.6650   -4.7360 N.3   318  ALA318     -0.1231
     42  CA       -24.9390   19.5970   -5.6290 C.3   318  ALA318      0.1694
     43  C        -24.4730   21.0630   -5.4440 C.2   318  ALA318      0.2592
     44  O        -24.3140   21.7960   -6.4130 O.2   318  ALA318     -0.2718
     45  CB       -26.4430   19.4540   -5.4220 C.3   318  ALA318      0.0304
     46  N        -24.2230   21.5080   -4.2360 N.am  319  SER319     -0.1952
     47  CA       -23.7200   22.8660   -4.0920 C.3   319  SER319      0.1924
     48  C        -22.2120   22.9410   -4.0400 C.2   319  SER319      0.2314
     49  O        -21.6700   24.0240   -3.8240 O.2   319  SER319     -0.2863
     50  CB       -24.2670   23.5270   -2.8170 C.3   319  SER319      0.2116
     51  OG       -25.6680   23.6200   -2.8980 O.3   319  SER319     -0.2180
     52  N        -31.0480   32.7860    5.8570 N.3   383  TYR383     -0.1227
     53  CA       -30.5140   32.3850    4.5660 C.3   383  TYR383      0.1736
     54  C        -31.6430   32.1040    3.5750 C.2   383  TYR383      0.2595
     55  O        -31.5820   32.5370    2.4190 O.2   383  TYR383     -0.2718
     56  CB       -29.5880   31.1620    4.7200 C.3   383  TYR383      0.0548
     57  CG       -29.1520   30.6480    3.3740 C.ar  383  TYR383     -0.0200
     58  CD1      -28.3470   31.4530    2.5450 C.ar  383  TYR383     -0.0009
     59  CD2      -29.5910   29.3890    2.8910 C.ar  383  TYR383     -0.0009
     60  CE1      -27.9680   31.0250    1.2880 C.ar  383  TYR383      0.0417
     61  CE2      -29.2160   28.9510    1.6290 C.ar  383  TYR383      0.0417
     62  CZ       -28.4040   29.7790    0.8260 C.ar  383  TYR383      0.1957
     63  OH       -27.9970   29.3720   -0.4270 O.3   383  TYR383     -0.2866
     64  N        -32.7030   31.4020    4.0220 N.am  384  LEU384     -0.1980
     65  CA       -33.8220   31.0650    3.1390 C.3   384  LEU384      0.1596
     66  C        -34.7510   32.2450    2.8780 C.2   384  LEU384      0.2287
     67  O        -35.1390   32.4700    1.7430 O.2   384  LEU384     -0.2864
     68  CB       -34.5990   29.9160    3.7380 C.3   384  LEU384      0.0297
     69  CG       -33.7220   28.6830    3.8100 C.3   384  LEU384      0.0022
     70  CD1      -34.3820   27.6470    4.6670 C.3   384  LEU384      0.0001
     71  CD2      -33.4770   28.1840    2.4200 C.3   384  LEU384      0.0001
     72  N        -24.2960   30.0640    3.4320 N.3   398  LEU398     -0.1245
     73  CA       -24.0260   29.1720    4.5510 C.3   398  LEU398      0.1561
     74  C        -22.7650   28.3660    4.2590 C.2   398  LEU398      0.2260
     75  O        -22.3640   28.2280    3.0990 O.2   398  LEU398     -0.2867
     76  CB       -25.2000   28.2080    4.8000 C.3   398  LEU398      0.0270
     77  CG       -26.5700   28.8180    5.1630 C.3   398  LEU398      0.0019
     78  CD1      -27.6890   27.7810    5.1070 C.3   398  LEU398      0.0001
     79  CD2      -26.5380   29.4920    6.5410 C.3   398  LEU398      0.0001
     80  N        -23.4340   26.2510    1.3170 N.3   401  ASN401     -0.1240
     81  CA       -24.1460   26.8820    0.1960 C.3   401  ASN401      0.1653
     82  C        -23.5730   28.2840    0.0060 C.2   401  ASN401      0.2266
     83  O        -23.8890   29.1820    0.7840 O.2   401  ASN401     -0.2867
     84  CB       -25.6590   26.9890    0.4610 C.3   401  ASN401      0.1155
     85  CG       -26.2950   25.6510    0.9460 C.2   401  ASN401      0.2627
     86  OD1      -26.8310   25.5420    2.0720 O.2   401  ASN401     -0.2716
     87  ND2      -26.2110   24.6350    0.1000 N.am  401  ASN401     -0.0877
     88  N        -26.7030   31.5020   -4.4990 N.3   404  PRO404     -0.2102
     89  CA       -28.1120   31.6590   -4.1520 C.3   404  PRO404      0.1504
     90  C        -28.8590   30.3690   -4.4510 C.2   404  PRO404      0.2576
     91  O        -28.3880   29.4960   -5.1940 O.2   404  PRO404     -0.2718
     92  CB       -28.5870   32.7910   -5.0730 C.3   404  PRO404      0.0282
     93  CG       -27.3110   33.4340   -5.6180 C.3   404  PRO404      0.0208
     94  CD       -26.3350   32.3050   -5.6830 C.3   404  PRO404      0.0893
     95  N        -30.0270   30.2640   -3.8230 N.am  405  LEU405     -0.1966
     96  CA       -30.9560   29.1850   -4.0780 C.3   405  LEU405      0.1728
     97  C        -31.2310   29.0350   -5.5720 C.2   405  LEU405      0.2616
     98  O        -31.3620   30.0320   -6.2810 O.2   405  LEU405     -0.2715
     99  CB       -32.2380   29.4830   -3.3010 C.3   405  LEU405      0.0311
    100  CG       -32.0610   29.3810   -1.7830 C.3   405  LEU405      0.0022
    101  CD1      -33.2950   29.7870   -0.9900 C.3   405  LEU405      0.0001
    102  CD2      -31.6880   27.9240   -1.4330 C.3   405  LEU405      0.0001
    103  N        -31.3220   27.7870   -6.0560 N.am  406  ALA406     -0.1977
    104  CA       -31.8980   27.5600   -7.3850 C.3   406  ALA406      0.1597
    105  C        -33.3960   27.9260   -7.4540 C.2   406  ALA406      0.2287
    106  O        -34.0800   28.0940   -6.4430 O.2   406  ALA406     -0.2864
    107  CB       -31.7640   26.1130   -7.8000 C.3   406  ALA406      0.0319
    108  N        -35.9840   26.0810   -8.2950 N.3   408  GLU408     -0.1231
    109  CA       -36.8890   25.0720   -7.7430 C.3   408  GLU408      0.1699
    110  C        -37.1930   25.2900   -6.2640 C.2   408  GLU408      0.2592
    111  O        -38.2410   24.8430   -5.7830 O.2   408  GLU408     -0.2718
    112  CB       -36.3220   23.6520   -7.9390 C.3   408  GLU408      0.0402
    113  CG       -35.0010   23.3380   -7.2460 C.3   408  GLU408      0.1161
    114  CD       -34.5380   21.8760   -7.4800 C.2   408  GLU408      0.3649
    115  OE1      -35.3230   21.0950   -8.0980 O.co2 408  GLU408     -0.2457
    116  OE2      -33.3780   21.5050   -7.0720 O.co2 408  GLU408     -0.2457
    117  N        -36.3030   25.9500   -5.5090 N.am  409  THR409     -0.1953
    118  CA       -36.6020   26.0140   -4.0970 C.3   409  THR409      0.1897
    119  C        -37.7890   26.9210   -3.8240 C.2   409  THR409      0.2313
    120  O        -38.4180   26.7970   -2.7640 O.2   409  THR409     -0.2863
    121  CB       -35.3720   26.4420   -3.3340 C.3   409  THR409      0.1794
    122  OG1      -34.3390   25.5110   -3.6400 O.3   409  THR409     -0.2208
    123  CG2      -35.6280   26.3430   -1.8330 C.3   409  THR409      0.0378
    124  N        -39.9200   25.0690    3.9840 N.3   416  LEU416     -0.1245
    125  CA       -38.5580   25.0710    4.5050 C.3   416  LEU416      0.1561
    126  C        -38.4210   26.0410    5.6760 C.2   416  LEU416      0.2260
    127  O        -37.7400   25.7420    6.6720 O.2   416  LEU416     -0.2867
    128  CB       -37.5600   25.3820    3.3830 C.3   416  LEU416      0.0270
    129  CG       -37.2860   24.3060    2.3030 C.3   416  LEU416      0.0019
    130  CD1      -36.3960   24.8550    1.2400 C.3   416  LEU416      0.0001
    131  CD2      -36.6030   23.0330    2.8710 C.3   416  LEU416      0.0001
    132  N        -31.7110   22.6860    7.1550 N.3   426  THR426     -0.1203
    133  CA       -31.5740   22.0850    5.8430 C.3   426  THR426      0.1994
    134  C        -30.3800   22.6350    5.0420 C.2   426  THR426      0.2618
    135  O        -29.9470   23.7780    5.2010 O.2   426  THR426     -0.2717
    136  CB       -32.8820   22.2660    5.0780 C.3   426  THR426      0.1784
    137  OG1      -33.1900   23.6640    4.9400 O.3   426  THR426     -0.2211
    138  CG2      -33.9860   21.6430    5.8570 C.3   426  THR426      0.0376
    139  N        -29.8420   21.7900    4.1630 N.am  427  ILE427     -0.1965
    140  CA       -28.6780   22.1670    3.3750 C.3   427  ILE427      0.1727
    141  C        -28.8460   21.7380    1.9170 C.2   427  ILE427      0.2616
    142  O        -28.0080   22.0700    1.0550 O.2   427  ILE427     -0.2715
    143  CB       -27.4030   21.5580    3.9960 C.3   427  ILE427      0.0290
    144  CG1      -27.4720   20.0220    4.0510 C.3   427  ILE427      0.0022
    145  CG2      -27.2080   22.0460    5.3910 C.3   427  ILE427      0.0023
    146  CD1      -26.1940   19.4620    4.5880 C.3   427  ILE427      0.0001
    147  N        -29.9320   20.9990    1.6260 N.am  428  ASN428     -0.1958
    148  CA       -30.1980   20.4560    0.2880 C.3   428  ASN428      0.1819
    149  C        -31.6540   19.9950    0.2660 C.2   428  ASN428      0.2622
    150  O        -32.1840   19.5570    1.2930 O.2   428  ASN428     -0.2715
    151  CB       -29.2200   19.2930   -0.0070 C.3   428  ASN428      0.1195
    152  CG       -29.1400   18.9650   -1.4620 C.2   428  ASN428      0.2630
    153  OD1      -30.0360   19.3670   -2.2410 O.2   428  ASN428     -0.2716
    154  ND2      -28.0140   18.3740   -1.8830 N.am  428  ASN428     -0.0877
    155  N        -32.3070   20.1270   -0.8880 N.am  429  SER429     -0.1936
    156  CA       -33.7230   19.7710   -0.9950 C.3   429  SER429      0.2055
    157  C        -34.0490   19.7290   -2.4700 C.2   429  SER429      0.2642
    158  O        -33.2900   20.2730   -3.2770 O.2   429  SER429     -0.2714
    159  CB       -34.6390   20.7920   -0.2920 C.3   429  SER429      0.2130
    160  OG       -34.6260   22.0390   -0.9980 O.3   429  SER429     -0.2179
    161  N        -35.1690   19.0830   -2.8290 N.am  430  GLN430     -0.1976
    162  CA       -35.7720   19.3420   -4.1360 C.3   430  GLN430      0.1601
    163  C        -37.2470   18.9600   -4.0920 C.2   430  GLN430      0.2287
    164  O        -37.6270   18.0310   -3.3480 O.2   430  GLN430     -0.2864
    165  CB       -35.0610   18.5880   -5.2700 C.3   430  GLN430      0.0394
    166  CG       -35.2880   17.0940   -5.2900 C.3   430  GLN430      0.0908
    167  CD       -34.6280   16.3710   -6.4700 C.2   430  GLN430      0.2608
    168  OE1      -33.7750   16.9630   -7.1830 O.2   430  GLN430     -0.2717
    169  NE2      -35.1000   15.1070   -6.7570 N.am  430  GLN430     -0.0878
    170  N        -38.8980   14.0990  -10.6860 N.3   454  GLN454     -0.1245
    171  CA       -38.1150   14.1600   -9.4510 C.3   454  GLN454      0.1566
    172  C        -38.9070   13.5660   -8.2880 C.2   454  GLN454      0.2260
    173  O        -40.0930   13.8550   -8.1210 O.2   454  GLN454     -0.2867
    174  CB       -37.7080   15.6110   -9.0730 C.3   454  GLN454      0.0367
    175  CG       -36.7750   16.2470  -10.0950 C.3   454  GLN454      0.0905
    176  CD       -36.3750   17.7550   -9.8330 C.2   454  GLN454      0.2608
    177  OE1      -36.5740   18.3390   -8.7460 O.2   454  GLN454     -0.2717
    178  NE2      -35.8740   18.3750  -10.8870 N.am  454  GLN454     -0.0878
    179  N        -33.8290   11.8280   -9.7630 N.3   505  THR505     -0.1218
    180  CA       -34.2060   12.6890  -10.8960 C.3   505  THR505      0.1862
    181  C        -33.9920   11.8980  -12.1810 C.2   505  THR505      0.2287
    182  O        -32.9760   11.1880  -12.2930 O.2   505  THR505     -0.2866
    183  CB       -33.3420   14.0000  -10.9650 C.3   505  THR505      0.1770
    184  OG1      -33.3870   14.6700   -9.7010 O.3   505  THR505     -0.2211
    185  CG2      -33.8780   14.9840  -12.0660 C.3   505  THR505      0.0375
    186  N        -29.1820   11.8290  -11.2150 N.3   518  THR518     -0.1218
    187  CA       -29.0490   12.1510   -9.7940 C.3   518  THR518      0.1862
    188  C        -29.6040   11.0040   -8.9520 C.2   518  THR518      0.2287
    189  O        -30.7420   10.5740   -9.1660 O.2   518  THR518     -0.2866
    190  CB       -29.7710   13.4940   -9.4750 C.3   518  THR518      0.1770
    191  OG1      -29.2440   14.5360  -10.3160 O.3   518  THR518     -0.2211
    192  CG2      -29.6160   13.9430   -7.9790 C.3   518  THR518      0.0375
@<TRIPOS>BOND
     1     1     2    1
     2     3     4    2
     3     3     2    1
     4     2     5    1
     5     5     6    1
     6     6     7    1
     7     7     8    1
     8    22    21    2
     9     8     9    2
    10    12    18    1
    11    12    13    1
    12    32    31   ar
    13    32    30   ar
    14    18    17    1
    15    31    29   ar
    16    21    20    1
    17    30    28   ar
    18    29    26   ar
    19     9    11    1
    20     9    10    1
    21    13    14    1
    22    13    16    1
    23    17    16    1
    24    19    14   am
    25    19    20    1
    26    28    26   ar
    27    28    27   ar
    28    26    24   ar
    29    14    15    2
    30    20    23    1
    31    27    25   ar
    32    24    25   ar
    33    24    23    1
    34   182   181    2
    35   181   180    1
    36   185   183    1
    37   186   187    1
    38   183   180    1
    39   183   184    1
    40   180   179    1
    41   178   176   am
    42   170   171    1
    43   191   190    1
    44   175   176    1
    45   175   174    1
    46   176   177    2
    47   187   190    1
    48   187   188    1
    49   190   192    1
    50   171   174    1
    51   171   172    1
    52   189   188    2
    53   108   109    1
    54   172   173    2
    55   115   114   ar
    56   112   109    1
    57   112   113    1
    58   107   104    1
    59   109   110    1
    60   114   113    1
    61   114   116   ar
    62   105   104    1
    63   105   106    2
    64   104   103    1
    65   168   167    2
    66   169   167   am
    67   167   166    1
    68    44    43    2
    69    98    97    2
    70   110   111    2
    71   110   117   am
    72   103    97   am
    73    94    93    1
    74    94    88    1
    75    42    43    1
    76    42    45    1
    77    42    41    1
    78    93    92    1
    79    97    96    1
    80   117   118    1
    81    43    46   am
    82   166   165    1
    83   165   162    1
    84    91    90    2
    85    92    89    1
    86    33    34    1
    87    34    37    1
    88    34    35    1
    89    38    37    1
    90    38    40    1
    91    37    39    1
    92    88    89    1
    93    90    89    1
    94    90    95   am
    95    46    47    1
    96   162   163    1
    97   162   161    1
    98   118   119    1
    99   118   121    1
   100   163   164    2
   101    47    48    1
   102    47    50    1
   103    96    95    1
   104    96    99    1
   105    48    49    2
   106    35    36    2
   107   119   120    2
   108   122   121    1
   109   121   123    1
   110    99   100    1
   111   158   157    2
   112    51    50    1
   113   161   157   am
   114   157   156    1
   115   153   152    2
   116   154   152   am
   117   100   102    1
   118   100   101    1
   119   152   151    1
   120   160   159    1
   121   156   155    1
   122   156   159    1
   123   155   149   am
   124    63    62    1
   125   151   148    1
   126    82    81    1
   127    82    83    2
   128    87    85   am
   129    81    84    1
   130    81    80    1
   131   149   148    1
   132   149   150    2
   133   148   147    1
   134    84    85    1
   135    62    60   ar
   136    62    61   ar
   137    85    86    2
   138   142   141    2
   139   130   129    1
   140    60    58   ar
   141   147   141   am
   142    61    59   ar
   143    67    66    2
   144   141   140    1
   145   129   131    1
   146   129   128    1
   147    55    54    2
   148    71    69    1
   149    58    57   ar
   150    66    65    1
   151    59    57   ar
   152    75    74    2
   153    65    68    1
   154    65    64    1
   155    57    56    1
   156   140   143    1
   157   140   139    1
   158   128   125    1
   159    72    73    1
   160    54    64   am
   161    54    53    1
   162    68    69    1
   163    69    70    1
   164   124   125    1
   165   143   144    1
   166   143   145    1
   167   144   146    1
   168   139   134   am
   169    74    73    1
   170   125   126    1
   171    73    76    1
   172    53    56    1
   173    53    52    1
   174    76    77    1
   175   137   136    1
   176   134   135    2
   177   134   133    1
   178   136   133    1
   179   136   138    1
   180    78    77    1
   181    77    79    1
   182   126   127    2
   183   133   132    1
