@<TRIPOS>MOLECULE
tmp/6fd2B00.pdb
 144 137 0 0 0
SMALL
GASTEIGER

@<TRIPOS>ATOM
      1  N         86.0380  -48.3510  -15.5930 N.3    23  TYR23      -0.1227
      2  CA        84.6640  -48.0930  -15.1970 C.3    23  TYR23       0.1736
      3  C         84.4100  -46.6020  -14.9960 C.2    23  TYR23       0.2595
      4  O         85.3260  -45.7770  -14.9900 O.2    23  TYR23      -0.2718
      5  CB        84.3110  -48.8760  -13.9390 C.3    23  TYR23       0.0548
      6  CG        84.2300  -50.3570  -14.1930 C.ar   23  TYR23      -0.0200
      7  CD1       83.3290  -50.8660  -15.1250 C.ar   23  TYR23      -0.0009
      8  CD2       85.0480  -51.2480  -13.5110 C.ar   23  TYR23      -0.0009
      9  CE1       83.2440  -52.2190  -15.3700 C.ar   23  TYR23       0.0417
     10  CE2       84.9720  -52.6090  -13.7510 C.ar   23  TYR23       0.0417
     11  CZ        84.0690  -53.0870  -14.6820 C.ar   23  TYR23       0.1957
     12  OH        83.9890  -54.4380  -14.9220 O.3    23  TYR23      -0.2866
     13  N         83.1310  -46.2730  -14.8070 N.am   24  ALA24      -0.1980
     14  CA        82.6410  -44.8960  -14.7600 C.3    24  ALA24       0.1597
     15  C         83.2020  -44.0860  -15.9310 C.2    24  ALA24       0.2287
     16  O         83.9370  -43.1110  -15.7590 O.2    24  ALA24      -0.2864
     17  CB        83.0060  -44.2380  -13.4290 C.3    24  ALA24       0.0319
     18  N         86.5010  -46.6820  -11.1860 N.3    29  THR29      -0.1218
     19  CA        85.8460  -46.9270   -9.9120 C.3    29  THR29       0.1862
     20  C         86.8020  -47.6660   -8.9860 C.2    29  THR29       0.2287
     21  O         87.6810  -48.4140   -9.4310 O.2    29  THR29      -0.2866
     22  CB        84.5510  -47.7300  -10.0640 C.3    29  THR29       0.1770
     23  OG1       84.8570  -49.0670  -10.4790 O.3    29  THR29      -0.2211
     24  CG2       83.6190  -47.0620  -11.0580 C.3    29  THR29       0.0375
     25  N         86.4950  -49.9710   -5.4900 N.3    31  CYS31      -0.1235
     26  CA        85.5130  -50.6500   -4.6640 C.3    31  CYS31       0.1677
     27  C         86.1850  -51.6740   -3.7520 C.2    31  CYS31       0.2270
     28  O         87.3920  -51.9090   -3.8160 O.2    31  CYS31      -0.2867
     29  CB        84.4380  -51.3050   -5.5480 C.3    31  CYS31       0.0956
     30  SG        84.3700  -53.0790   -5.4150 S.3    31  CYS31      -0.0801
     31  N         87.5150  -55.9890   -4.3280 N.3    34  GLU34      -0.1231
     32  CA        87.3030  -55.9300   -5.7680 C.3    34  GLU34       0.1699
     33  C         87.6910  -57.2320   -6.4520 C.2    34  GLU34       0.2592
     34  O         88.8740  -57.5800   -6.5250 O.2    34  GLU34      -0.2718
     35  CB        88.1120  -54.7810   -6.3680 C.3    34  GLU34       0.0402
     36  CG        87.9140  -54.5900   -7.8700 C.3    34  GLU34       0.1161
     37  CD        86.4650  -54.3000   -8.2720 C.2    34  GLU34       0.3649
     38  OE1       86.1390  -53.1050   -8.4700 O.co2  34  GLU34      -0.2457
     39  OE2       85.6630  -55.2560   -8.4060 O.co2  34  GLU34      -0.2457
     40  N         86.6980  -57.9420   -6.9750 N.am   35  ASP35      -0.1960
     41  CA        86.9240  -59.1830   -7.6890 C.3    35  ASP35       0.1840
     42  C         86.6920  -59.0650   -9.1970 C.2    35  ASP35       0.2622
     43  O         86.9000  -60.0480   -9.9130 O.2    35  ASP35      -0.2715
     44  CB        86.0540  -60.2850   -7.0670 C.3    35  ASP35       0.1450
     45  CG        84.5910  -59.9000   -6.9810 C.2    35  ASP35       0.3671
     46  OD1       84.2840  -58.7020   -7.1680 O.co2  35  ASP35      -0.2456
     47  OD2       83.7530  -60.7860   -6.6930 O.co2  35  ASP35      -0.2456
     48  N         86.3420  -57.8790   -9.7080 N.am   36  PHE36      -0.1974
     49  CA        86.1980  -57.6480  -11.1560 C.3    36  PHE36       0.1639
     50  C         87.4710  -56.9750  -11.6660 C.2    36  PHE36       0.2290
     51  O         87.5490  -55.7540  -11.7880 O.2    36  PHE36      -0.2864
     52  CB        84.9760  -56.7780  -11.4630 C.3    36  PHE36       0.0560
     53  CG        83.6760  -57.5270  -11.5550 C.ar   36  PHE36      -0.0200
     54  CD1       82.6560  -57.0390  -12.3560 C.ar   36  PHE36      -0.0042
     55  CD2       83.4430  -58.6660  -10.8090 C.ar   36  PHE36      -0.0042
     56  CE1       81.4490  -57.6960  -12.4490 C.ar   36  PHE36      -0.0003
     57  CE2       82.2300  -59.3300  -10.9020 C.ar   36  PHE36      -0.0003
     58  CZ        81.2360  -58.8410  -11.7220 C.ar   36  PHE36      -0.0000
     59  N         79.4030  -41.9660  -18.8760 N.3   213  TYR213     -0.1241
     60  CA        79.6660  -42.6840  -20.1260 C.3   213  TYR213      0.1605
     61  C         79.3950  -41.8280  -21.3600 C.2   213  TYR213      0.2264
     62  O         80.2420  -41.8150  -22.2720 O.2   213  TYR213     -0.2867
     63  CB        78.8640  -43.9930  -20.1640 C.3   213  TYR213      0.0534
     64  CG        79.5810  -45.1380  -19.4940 C.ar  213  TYR213     -0.0201
     65  CD1       79.2900  -45.4790  -18.1780 C.ar  213  TYR213     -0.0009
     66  CD2       80.5800  -45.8430  -20.1510 C.ar  213  TYR213     -0.0009
     67  CE1       79.9480  -46.5090  -17.5410 C.ar  213  TYR213      0.0417
     68  CE2       81.2490  -46.8800  -19.5180 C.ar  213  TYR213      0.0417
     69  CZ        80.9290  -47.2030  -18.2050 C.ar  213  TYR213      0.1957
     70  OH        81.5790  -48.2260  -17.5430 O.3   213  TYR213     -0.2866
     71  N         76.8370  -55.5010  -20.6690 N.3   277  GLU277     -0.1245
     72  CA        75.9260  -54.6790  -19.8850 C.3   277  GLU277      0.1567
     73  C         75.1200  -53.7890  -20.8190 C.2   277  GLU277      0.2260
     74  O         75.6580  -53.2500  -21.7950 O.2   277  GLU277     -0.2867
     75  CB        76.6600  -53.8470  -18.8350 C.3   277  GLU277      0.0388
     76  CG        77.5410  -52.7450  -19.3640 C.3   277  GLU277      0.1160
     77  CD        78.4930  -52.2380  -18.3000 C.2   277  GLU277      0.3649
     78  OE1       79.4890  -52.9480  -18.0140 O.co2 277  GLU277     -0.2457
     79  OE2       78.2300  -51.1440  -17.7460 O.co2 277  GLU277     -0.2457
     80  N         74.7480  -57.1560  -16.9460 N.3   300  GLU300     -0.1245
     81  CA        74.6160  -56.1090  -15.9380 C.3   300  GLU300      0.1567
     82  C         73.6320  -55.0690  -16.4600 C.2   300  GLU300      0.2260
     83  O         73.8620  -54.4760  -17.5160 O.2   300  GLU300     -0.2867
     84  CB        75.9590  -55.4360  -15.6450 C.3   300  GLU300      0.0388
     85  CG        76.9040  -56.1740  -14.7120 C.3   300  GLU300      0.1160
     86  CD        78.2960  -55.5470  -14.6680 C.2   300  GLU300      0.3649
     87  OE1       78.4880  -54.5590  -13.9240 O.co2 300  GLU300     -0.2457
     88  OE2       79.2000  -56.0460  -15.3730 O.co2 300  GLU300     -0.2457
     89  N         73.2280  -58.9810  -12.7810 N.3   339  VAL339     -0.1245
     90  CA        73.8180  -58.0980  -11.7800 C.3   339  VAL339      0.1561
     91  C         73.1230  -56.7580  -11.9630 C.2   339  VAL339      0.2260
     92  O         73.2670  -56.1230  -13.0120 O.2   339  VAL339     -0.2867
     93  CB        75.3400  -57.9480  -11.9180 C.3   339  VAL339      0.0252
     94  CG1       75.8150  -56.7490  -11.1220 C.3   339  VAL339      0.0019
     95  CG2       76.0520  -59.2040  -11.4150 C.3   339  VAL339      0.0019
     96  N         72.3220  -52.8230  -11.2340 N.3   341  LEU341     -0.1245
     97  CA        73.0520  -51.6160  -10.8580 C.3   341  LEU341      0.1561
     98  C         72.0840  -50.6410  -10.1940 C.2   341  LEU341      0.2260
     99  O         71.1360  -50.1610  -10.8260 O.2   341  LEU341     -0.2867
    100  CB        73.7520  -50.9670  -12.0530 C.3   341  LEU341      0.0270
    101  CG        74.9130  -51.6600  -12.7780 C.3   341  LEU341      0.0019
    102  CD1       75.4590  -52.8490  -11.9810 C.3   341  LEU341      0.0001
    103  CD2       74.5340  -52.0500  -14.1840 C.3   341  LEU341      0.0001
    104  N         74.1010  -57.8750   -7.3210 N.3   371  PHE371     -0.1227
    105  CA        73.8300  -56.4410   -7.3750 C.3   371  PHE371      0.1736
    106  C         75.0630  -55.6460   -6.9840 C.2   371  PHE371      0.2595
    107  O         75.9940  -56.1620   -6.3610 O.2   371  PHE371     -0.2718
    108  CB        72.6100  -56.0520   -6.5230 C.3   371  PHE371      0.0547
    109  CG        72.7480  -56.3530   -5.0540 C.ar  371  PHE371     -0.0202
    110  CD1       73.4290  -55.4970   -4.2000 C.ar  371  PHE371     -0.0042
    111  CD2       72.1550  -57.4900   -4.5240 C.ar  371  PHE371     -0.0042
    112  CE1       73.5320  -55.7870   -2.8590 C.ar  371  PHE371     -0.0003
    113  CE2       72.2590  -57.7800   -3.1870 C.ar  371  PHE371     -0.0003
    114  CZ        72.9480  -56.9310   -2.3540 C.ar  371  PHE371     -0.0000
    115  N         75.0500  -54.3770   -7.3860 N.am  372  ASN372     -0.1974
    116  CA        76.1060  -53.4240   -7.0820 C.3   372  ASN372      0.1688
    117  C         75.4300  -52.0900   -6.8200 C.2   372  ASN372      0.2292
    118  O         74.5410  -51.6870   -7.5770 O.2   372  ASN372     -0.2864
    119  CB        77.1080  -53.3150   -8.2380 C.3   372  ASN372      0.1181
    120  CG        78.1410  -52.2220   -8.0270 C.2   372  ASN372      0.2629
    121  OD1       78.0060  -51.1030   -8.5320 O.2   372  ASN372     -0.2716
    122  ND2       79.1980  -52.5530   -7.2960 N.am  372  ASN372     -0.0877
    123  N         75.9210  -47.9550   -6.0040 N.3   374  SER374     -0.1217
    124  CA        76.8110  -46.8170   -6.1230 C.3   374  SER374      0.1889
    125  C         76.2370  -45.6480   -5.3370 C.2   374  SER374      0.2288
    126  O         75.0190  -45.5370   -5.1480 O.2   374  SER374     -0.2866
    127  CB        77.0170  -46.4100   -7.5940 C.3   374  SER374      0.2089
    128  OG        77.7810  -47.3690   -8.3060 O.3   374  SER374     -0.2183
    129  N         82.6790  -43.6740   -6.5070 N.3   403  SER403     -0.1202
    130  CA        81.3610  -44.2490   -6.7950 C.3   403  SER403      0.2020
    131  C         80.8700  -45.1390   -5.6630 C.2   403  SER403      0.2618
    132  O         79.7620  -45.6780   -5.7530 O.2   403  SER403     -0.2717
    133  CB        81.3090  -45.0600   -8.1000 C.3   403  SER403      0.2103
    134  OG        81.1440  -44.2360   -9.2410 O.3   403  SER403     -0.2182
    135  N         81.6620  -45.3080   -4.5960 N.am  404  HIS404     -0.1975
    136  CA        81.2490  -45.9930   -3.3780 C.3   404  HIS404      0.1656
    137  C         81.5000  -45.1640   -2.1230 C.2   404  HIS404      0.2291
    138  O         81.2240  -45.6410   -1.0180 O.2   404  HIS404     -0.2864
    139  CB        81.9250  -47.3640   -3.2500 C.3   404  HIS404      0.0771
    140  CG        81.3890  -48.3970   -4.1970 C.ar  404  HIS404      0.0820
    141  ND1       81.9330  -48.6500   -5.4400 N.ar  404  HIS404     -0.2267
    142  CD2       80.3390  -49.2430   -4.0690 C.ar  404  HIS404      0.1154
    143  CE1       81.2450  -49.6120   -6.0310 C.ar  404  HIS404      0.1986
    144  NE2       80.2720  -49.9880   -5.2210 N.ar  404  HIS404     -0.2212
@<TRIPOS>BOND
     1    62    61    2
     2    74    73    2
     3    61    60    1
     4    73    72    1
     5    71    72    1
     6    63    60    1
     7    63    64    1
     8    66    68   ar
     9    66    64   ar
    10    60    59    1
    11    72    75    1
    12    68    69   ar
    13    64    65   ar
    14    76    75    1
    15    76    77    1
    16    77    78   ar
    17    77    79   ar
    18    69    70    1
    19    69    67   ar
    20    65    67   ar
    21    83    82    2
    22    80    81    1
    23    82    81    1
    24    81    84    1
    25    15    16    2
    26    15    14    1
    27    84    85    1
    28     1     2    1
    29    88    86   ar
    30     9     7   ar
    31     9    11   ar
    32     2     3    1
    33     2     5    1
    34     7     6   ar
    35     3     4    2
    36     3    13   am
    37    12    11    1
    38    13    14    1
    39    14    17    1
    40    85    86    1
    41    11    10   ar
    42    86    87   ar
    43     6     5    1
    44     6     8   ar
    45   103   101    1
    46    10     8   ar
    47    92    91    2
    48    89    90    1
    49   101   100    1
    50   101   102    1
    51    56    54   ar
    52    56    58   ar
    53    54    53   ar
    54   100    97    1
    55    91    90    1
    56    93    90    1
    57    93    95    1
    58    93    94    1
    59    51    50    2
    60    58    57   ar
    61    50    49    1
    62    53    52    1
    63    53    55   ar
    64    52    49    1
    65    96    97    1
    66    18    19    1
    67    49    48    1
    68    24    22    1
    69    57    55   ar
    70    97    98    1
    71    99    98    2
    72    23    22    1
    73    22    19    1
    74    43    42    2
    75    19    20    1
    76    48    42   am
    77    21    20    2
    78   134   133    1
    79    42    41    1
    80   121   120    2
    81    38    37   ar
    82    39    37   ar
    83   128   127    1
    84    37    36    1
    85   119   120    1
    86   119   116    1
    87   133   130    1
    88   120   122   am
    89    36    35    1
    90    41    44    1
    91    41    40    1
    92   127   124    1
    93   118   117    2
    94   115   116    1
    95   115   106   am
    96   105   104    1
    97   105   106    1
    98   105   108    1
    99    46    45   ar
   100   116   117    1
   101    44    45    1
   102   106   107    2
   103    45    47   ar
   104    40    33   am
   105   130   129    1
   106   130   131    1
   107    34    33    2
   108   108   109    1
   109    33    32    1
   110    35    32    1
   111   124   123    1
   112   124   125    1
   113   143   141   ar
   114   143   144   ar
   115    32    31    1
   116   132   131    2
   117   131   135   am
   118    29    30    1
   119    29    26    1
   120    25    26    1
   121   141   140   ar
   122   125   126    2
   123   144   142   ar
   124   109   111   ar
   125   109   110   ar
   126    26    27    1
   127   135   136    1
   128   111   113   ar
   129   110   112   ar
   130   140   142   ar
   131   140   139    1
   132    28    27    2
   133   136   139    1
   134   136   137    1
   135   113   114   ar
   136   112   114   ar
   137   137   138    2
