@<TRIPOS>MOLECULE
tmp/6fd2B01.pdb
 154 148 0 0 0
SMALL
GASTEIGER

@<TRIPOS>ATOM
      1  N         83.1310  -46.2730  -14.8070 N.3    24  ALA24      -0.1245
      2  CA        82.6410  -44.8960  -14.7600 C.3    24  ALA24       0.1562
      3  C         83.2020  -44.0860  -15.9310 C.2    24  ALA24       0.2260
      4  O         83.9370  -43.1110  -15.7590 O.2    24  ALA24      -0.2867
      5  CB        83.0060  -44.2380  -13.4290 C.3    24  ALA24       0.0290
      6  N         73.6800  -37.4360  -15.0400 N.3   210  TYR210     -0.1227
      7  CA        74.5920  -37.8980  -14.0080 C.3   210  TYR210      0.1736
      8  C         75.6550  -38.8710  -14.5020 C.2   210  TYR210      0.2596
      9  O         76.7640  -38.8670  -13.9600 O.2   210  TYR210     -0.2718
     10  CB        73.8220  -38.5500  -12.8550 C.3   210  TYR210      0.0548
     11  CG        72.8520  -39.6520  -13.2280 C.ar  210  TYR210     -0.0200
     12  CD1       71.5010  -39.3810  -13.4370 C.ar  210  TYR210     -0.0009
     13  CD2       73.2760  -40.9700  -13.3160 C.ar  210  TYR210     -0.0009
     14  CE1       70.6060  -40.4020  -13.7490 C.ar  210  TYR210      0.0417
     15  CE2       72.3940  -41.9940  -13.6300 C.ar  210  TYR210      0.0417
     16  CZ        71.0620  -41.7070  -13.8460 C.ar  210  TYR210      0.1957
     17  OH        70.1950  -42.7350  -14.1520 O.3   210  TYR210     -0.2866
     18  N         75.3640  -39.7020  -15.5210 N.am  211  CYS211     -0.1957
     19  CA        76.3150  -40.7480  -15.9010 C.3   211  CYS211      0.1828
     20  C         77.4710  -40.1880  -16.7360 C.2   211  CYS211      0.2467
     21  O         77.2560  -39.3540  -17.6230 O.2   211  CYS211     -0.2730
     22  CB        75.6290  -41.8540  -16.6770 C.3   211  CYS211      0.0996
     23  SG        76.8350  -43.0270  -17.3100 S.3   211  CYS211     -0.0797
     24  N         78.7070  -40.6330  -16.4720 N.am  212  PRO212     -0.2715
     25  CA        79.8610  -40.1510  -17.2470 C.3   212  PRO212      0.1536
     26  C         80.0980  -40.8630  -18.5770 C.2   212  PRO212      0.2598
     27  O         80.9620  -40.4080  -19.3410 O.2   212  PRO212     -0.2715
     28  CB        81.0340  -40.3930  -16.2890 C.3   212  PRO212      0.0310
     29  CG        80.6210  -41.6300  -15.5460 C.3   212  PRO212      0.0237
     30  CD        79.1220  -41.4940  -15.3480 C.3   212  PRO212      0.0939
     31  N         79.4030  -41.9660  -18.8760 N.am  213  TYR213     -0.1974
     32  CA        79.6660  -42.6840  -20.1260 C.3   213  TYR213      0.1639
     33  C         79.3950  -41.8280  -21.3600 C.2   213  TYR213      0.2290
     34  O         80.2420  -41.8150  -22.2720 O.2   213  TYR213     -0.2864
     35  CB        78.8640  -43.9930  -20.1640 C.3   213  TYR213      0.0560
     36  CG        79.5810  -45.1380  -19.4940 C.ar  213  TYR213     -0.0198
     37  CD1       79.2900  -45.4790  -18.1780 C.ar  213  TYR213     -0.0009
     38  CD2       80.5800  -45.8430  -20.1510 C.ar  213  TYR213     -0.0009
     39  CE1       79.9480  -46.5090  -17.5410 C.ar  213  TYR213      0.0417
     40  CE2       81.2490  -46.8800  -19.5180 C.ar  213  TYR213      0.0417
     41  CZ        80.9290  -47.2030  -18.2050 C.ar  213  TYR213      0.1957
     42  OH        81.5790  -48.2260  -17.5430 O.3   213  TYR213     -0.2866
     43  N         76.8370  -55.5010  -20.6690 N.3   277  GLU277     -0.1245
     44  CA        75.9260  -54.6790  -19.8850 C.3   277  GLU277      0.1567
     45  C         75.1200  -53.7890  -20.8190 C.2   277  GLU277      0.2260
     46  O         75.6580  -53.2500  -21.7950 O.2   277  GLU277     -0.2867
     47  CB        76.6600  -53.8470  -18.8350 C.3   277  GLU277      0.0388
     48  CG        77.5410  -52.7450  -19.3640 C.3   277  GLU277      0.1160
     49  CD        78.4930  -52.2380  -18.3000 C.2   277  GLU277      0.3649
     50  OE1       79.4890  -52.9480  -18.0140 O.co2 277  GLU277     -0.2457
     51  OE2       78.2300  -51.1440  -17.7460 O.co2 277  GLU277     -0.2457
     52  N         71.1140  -51.6120  -15.4590 N.3   302  GLY302     -0.1225
     53  CA        70.9380  -50.5300  -14.5150 C.3   302  GLY302      0.1811
     54  C         69.4840  -50.3440  -14.1360 C.2   302  GLY302      0.2280
     55  O         68.6550  -50.0150  -14.9900 O.2   302  GLY302     -0.2866
     56  N         68.9730  -48.6900  -10.9920 N.3   304  GLU304     -0.1245
     57  CA        69.2550  -47.4660  -10.2420 C.3   304  GLU304      0.1567
     58  C         68.4780  -47.3320   -8.9320 C.2   304  GLU304      0.2260
     59  O         69.0900  -47.1210   -7.8830 O.2   304  GLU304     -0.2867
     60  CB        69.0170  -46.2270  -11.1170 C.3   304  GLU304      0.0388
     61  CG        69.6460  -46.2660  -12.5180 C.3   304  GLU304      0.1160
     62  CD        71.0530  -46.8710  -12.5910 C.2   304  GLU304      0.3649
     63  OE1       71.7880  -46.8890  -11.5750 O.co2 304  GLU304     -0.2457
     64  OE2       71.4280  -47.3230  -13.7000 O.co2 304  GLU304     -0.2457
     65  N         64.9900  -42.7780  -16.9350 N.3   317  LYS317     -0.1245
     66  CA        64.9100  -43.8930  -17.8620 C.3   317  LYS317      0.1561
     67  C         63.4800  -44.3050  -18.1660 C.2   317  LYS317      0.2260
     68  O         63.2740  -45.1960  -18.9980 O.2   317  LYS317     -0.2867
     69  CB        65.6950  -45.0920  -17.3240 C.3   317  LYS317      0.0271
     70  CG        67.1670  -44.7960  -17.1450 C.3   317  LYS317      0.0035
     71  CD        67.9910  -46.0400  -17.4090 C.3   317  LYS317      0.0206
     72  CE        68.7340  -46.5080  -16.1750 C.3   317  LYS317      0.1093
     73  NZ        70.1600  -46.1130  -16.2790 N.3   317  LYS317     -0.1314
     74  N         72.3220  -52.8230  -11.2340 N.3   341  LEU341     -0.1231
     75  CA        73.0520  -51.6160  -10.8580 C.3   341  LEU341      0.1693
     76  C         72.0840  -50.6410  -10.1940 C.2   341  LEU341      0.2592
     77  O         71.1360  -50.1610  -10.8260 O.2   341  LEU341     -0.2718
     78  CB        73.7520  -50.9670  -12.0530 C.3   341  LEU341      0.0284
     79  CG        74.9130  -51.6600  -12.7780 C.3   341  LEU341      0.0019
     80  CD1       75.4590  -52.8490  -11.9810 C.3   341  LEU341      0.0001
     81  CD2       74.5340  -52.0500  -14.1840 C.3   341  LEU341      0.0001
     82  N         72.3150  -50.3730   -8.9120 N.am  342  PHE342     -0.1962
     83  CA        71.5070  -49.4430   -8.1430 C.3   342  PHE342      0.1771
     84  C         72.3360  -48.2250   -7.7580 C.2   342  PHE342      0.2619
     85  O         73.5700  -48.2760   -7.6990 O.2   342  PHE342     -0.2715
     86  CB        70.9430  -50.1100   -6.8990 C.3   342  PHE342      0.0574
     87  CG        69.9450  -51.1820   -7.1900 C.ar  342  PHE342     -0.0200
     88  CD1       70.3330  -52.5100   -7.2160 C.ar  342  PHE342     -0.0042
     89  CD2       68.6160  -50.8670   -7.4270 C.ar  342  PHE342     -0.0042
     90  CE1       69.4220  -53.5030   -7.4650 C.ar  342  PHE342     -0.0003
     91  CE2       67.6950  -51.8660   -7.6880 C.ar  342  PHE342     -0.0003
     92  CZ        68.1020  -53.1840   -7.7060 C.ar  342  PHE342     -0.0000
     93  N         71.6300  -47.1290   -7.4750 N.am  343  LEU343     -0.1977
     94  CA        72.2510  -45.8380   -7.2140 C.3   343  LEU343      0.1596
     95  C         71.5080  -45.1240   -6.0910 C.2   343  LEU343      0.2287
     96  O         70.2810  -44.9850   -6.1430 O.2   343  LEU343     -0.2864
     97  CB        72.2550  -44.9950   -8.4930 C.3   343  LEU343      0.0297
     98  CG        73.0210  -43.6780   -8.4900 C.3   343  LEU343      0.0022
     99  CD1       74.4750  -43.9600   -8.1950 C.3   343  LEU343      0.0001
    100  CD2       72.8550  -43.0060   -9.8520 C.3   343  LEU343      0.0001
    101  N         75.9210  -47.9550   -6.0040 N.3   374  SER374     -0.1202
    102  CA        76.8110  -46.8170   -6.1230 C.3   374  SER374      0.2020
    103  C         76.2370  -45.6480   -5.3370 C.2   374  SER374      0.2619
    104  O         75.0190  -45.5370   -5.1480 O.2   374  SER374     -0.2717
    105  CB        77.0170  -46.4100   -7.5940 C.3   374  SER374      0.2103
    106  OG        77.7810  -47.3690   -8.3060 O.3   374  SER374     -0.2182
    107  N         77.1250  -44.7930   -4.8500 N.am  375  VAL375     -0.1965
    108  CA        76.7380  -43.5360   -4.2260 C.3   375  VAL375      0.1727
    109  C         77.0400  -42.4390   -5.2350 C.2   375  VAL375      0.2616
    110  O         78.0840  -42.4630   -5.9030 O.2   375  VAL375     -0.2715
    111  CB        77.4580  -43.2720   -2.8870 C.3   375  VAL375      0.0290
    112  CG1       76.9830  -44.2300   -1.7980 C.3   375  VAL375      0.0023
    113  CG2       78.9290  -43.3850   -3.0660 C.3   375  VAL375      0.0023
    114  N         76.1270  -41.4760   -5.3350 N.am  376  ILE376     -0.1963
    115  CA        76.1730  -40.4930   -6.4090 C.3   376  ILE376      0.1727
    116  C         77.5030  -39.7510   -6.3890 C.2   376  ILE376      0.2616
    117  O         77.9080  -39.1770   -5.3710 O.2   376  ILE376     -0.2715
    118  CB        74.9800  -39.5400   -6.3110 C.3   376  ILE376      0.0290
    119  CG1       74.9860  -38.5730   -7.5020 C.3   376  ILE376      0.0022
    120  CG2       74.9490  -38.8360   -4.9600 C.3   376  ILE376      0.0023
    121  CD1       74.6090  -39.2280   -8.8310 C.3   376  ILE376      0.0001
    122  N         78.2120  -39.8010   -7.5120 N.am  377  THR377     -0.1951
    123  CA        79.4860  -39.1220   -7.6670 C.3   377  THR377      0.1897
    124  C         79.3560  -38.0600   -8.7460 C.2   377  THR377      0.2313
    125  O         79.0670  -38.4020   -9.9010 O.2   377  THR377     -0.2863
    126  CB        80.5670  -40.1360   -8.0380 C.3   377  THR377      0.1794
    127  OG1       80.5870  -41.1900   -7.0650 O.3   377  THR377     -0.2208
    128  CG2       81.9410  -39.4690   -8.1090 C.3   377  THR377      0.0378
    129  N         80.5750  -36.4180  -11.4870 N.3   379  TYR379     -0.1241
    130  CA        81.7420  -36.4720  -12.3530 C.3   379  TYR379      0.1605
    131  C         81.8630  -35.1560  -13.1070 C.2   379  TYR379      0.2264
    132  O         80.9270  -34.7710  -13.8200 O.2   379  TYR379     -0.2867
    133  CB        81.6600  -37.6490  -13.3130 C.3   379  TYR379      0.0534
    134  CG        81.6610  -38.9970  -12.6210 C.ar  379  TYR379     -0.0201
    135  CD1       82.8460  -39.5420  -12.1280 C.ar  379  TYR379     -0.0009
    136  CD2       80.4890  -39.7380  -12.4870 C.ar  379  TYR379     -0.0009
    137  CE1       82.8570  -40.7770  -11.4940 C.ar  379  TYR379      0.0417
    138  CE2       80.4880  -40.9760  -11.8630 C.ar  379  TYR379      0.0417
    139  CZ        81.6750  -41.4900  -11.3700 C.ar  379  TYR379      0.1957
    140  OH        81.6720  -42.7170  -10.7490 O.3   379  TYR379     -0.2866
    141  N         75.0270  -32.6360  -13.6620 N.3   384  LEU384     -0.1245
    142  CA        74.7890  -32.7590  -12.2260 C.3   384  LEU384      0.1561
    143  C         75.9570  -32.2130  -11.4170 C.2   384  LEU384      0.2260
    144  O         75.7510  -31.5540  -10.3950 O.2   384  LEU384     -0.2867
    145  CB        74.5300  -34.2170  -11.8520 C.3   384  LEU384      0.0270
    146  CG        74.6110  -34.4680  -10.3450 C.3   384  LEU384      0.0019
    147  CD1       73.4610  -33.7800   -9.6230 C.3   384  LEU384      0.0001
    148  CD2       74.6430  -35.9480  -10.0480 C.3   384  LEU384      0.0001
    149  N         82.6790  -43.6740   -6.5070 N.3   403  SER403     -0.1217
    150  CA        81.3610  -44.2490   -6.7950 C.3   403  SER403      0.1889
    151  C         80.8700  -45.1390   -5.6630 C.2   403  SER403      0.2288
    152  O         79.7620  -45.6780   -5.7530 O.2   403  SER403     -0.2866
    153  CB        81.3090  -45.0600   -8.1000 C.3   403  SER403      0.2089
    154  OG        81.1440  -44.2360   -9.2410 O.3   403  SER403     -0.2183
@<TRIPOS>BOND
     1    34    33    2
     2    46    45    2
     3    33    32    1
     4    45    44    1
     5    43    44    1
     6    35    32    1
     7    35    36    1
     8    38    40   ar
     9    38    36   ar
    10    32    31    1
    11    44    47    1
    12    40    41   ar
    13    36    37   ar
    14    48    47    1
    15    48    49    1
    16    27    26    2
    17    68    67    2
    18    31    26   am
    19    26    25    1
    20    49    50   ar
    21    49    51   ar
    22    41    42    1
    23    41    39   ar
    24    37    39   ar
    25    67    66    1
    26    66    69    1
    27    66    65    1
    28    21    20    2
    29    71    70    1
    30    71    72    1
    31    69    70    1
    32    23    22    1
    33    25    24    1
    34    25    28    1
    35    20    24   am
    36    20    19    1
    37    22    19    1
    38    24    30    1
    39    28    29    1
    40    73    72    1
    41     3     4    2
    42     3     2    1
    43    19    18    1
    44    29    30    1
    45    18     8   am
    46    52    53    1
    47     6     7    1
    48    55    54    2
    49     1     2    1
    50     2     5    1
    51    53    54    1
    52     8     7    1
    53     8     9    2
    54    81    79    1
    55    17    16    1
    56     7    10    1
    57    16    14   ar
    58    16    15   ar
    59   132   131    2
    60    14    12   ar
    61    64    62   ar
    62   141   142    1
    63    15    13   ar
    64    12    11   ar
    65    13    11   ar
    66   133   134    1
    67   133   130    1
    68    11    10    1
    69   131   130    1
    70    79    78    1
    71    79    80    1
    72   134   136   ar
    73   134   135   ar
    74    62    61    1
    75    62    63   ar
    76    61    60    1
    77   136   138   ar
    78   130   129    1
    79   142   145    1
    80   142   143    1
    81   135   137   ar
    82    78    75    1
    83   138   139   ar
    84   145   146    1
    85   137   139   ar
    86   143   144    2
    87   139   140    1
    88    74    75    1
    89    60    57    1
    90    56    57    1
    91    75    76    1
    92    77    76    2
    93   146   148    1
    94   146   147    1
    95    57    58    1
    96    76    82   am
    97   125   124    2
    98   100    98    1
    99   154   153    1
   100    58    59    2
   101    82    83    1
   102   121   119    1
   103   124   123    1
   104    97    98    1
   105    97    94    1
   106    98    99    1
   107   106   105    1
   108    83    84    1
   109    83    86    1
   110   128   126    1
   111   153   150    1
   112   126   123    1
   113   126   127    1
   114    84    85    2
   115    84    93   am
   116    92    91   ar
   117    92    90   ar
   118    91    89   ar
   119   123   122    1
   120   105   102    1
   121   122   116   am
   122   119   118    1
   123    93    94    1
   124    90    88   ar
   125    89    87   ar
   126    88    87   ar
   127    94    95    1
   128    87    86    1
   129   150   149    1
   130   150   151    1
   131   115   116    1
   132   115   118    1
   133   115   114    1
   134   116   117    2
   135   118   120    1
   136    96    95    2
   137   102   101    1
   138   102   103    1
   139   110   109    2
   140   152   151    2
   141   103   104    2
   142   103   107   am
   143   114   109   am
   144   109   108    1
   145   107   108    1
   146   108   111    1
   147   113   111    1
   148   111   112    1
