@<TRIPOS>MOLECULE
tmp/6fd3A00.pdb
 179 167 0 0 0
SMALL
GASTEIGER

@<TRIPOS>ATOM
      1  N         18.6040   88.4200   -4.4990 N.3    30  ILE30      -0.1231
      2  CA        18.3040   88.8210   -3.1280 C.3    30  ILE30       0.1692
      3  C         17.0340   88.1910   -2.5680 C.2    30  ILE30       0.2593
      4  O         16.8000   88.2960   -1.3530 O.2    30  ILE30      -0.2718
      5  CB        18.2300   90.3600   -2.9820 C.3    30  ILE30       0.0266
      6  CG1       17.1280   90.9450   -3.8620 C.3    30  ILE30       0.0019
      7  CG2       19.5770   90.9990   -3.3220 C.3    30  ILE30       0.0020
      8  CD1       16.8400   92.4170   -3.5830 C.3    30  ILE30       0.0001
      9  N         16.1960   87.5530   -3.3760 N.am   31  GLY31      -0.1942
     10  CA        14.9960   86.9520   -2.8130 C.3    31  GLY31       0.2014
     11  C         14.2630   86.1230   -3.8430 C.2    31  GLY31       0.2639
     12  O         14.5430   86.1870   -5.0420 O.2    31  GLY31      -0.2714
     13  N         13.3160   85.3280   -3.3520 N.am   32  GLN32      -0.1963
     14  CA        12.4740   84.5250   -4.2290 C.3    32  GLN32       0.1733
     15  C         11.1790   84.1980   -3.5070 C.2    32  GLN32       0.2617
     16  O         11.1950   83.8670   -2.3190 O.2    32  GLN32      -0.2715
     17  CB        13.1610   83.2270   -4.6790 C.3    32  GLN32       0.0408
     18  CG        12.2900   82.4020   -5.6380 C.3    32  GLN32       0.0908
     19  CD        13.0080   81.2260   -6.2460 C.2    32  GLN32       0.2608
     20  OE1       14.1250   80.8910   -5.8520 O.2    32  GLN32      -0.2717
     21  NE2       12.3600   80.5750   -7.2110 N.am   32  GLN32      -0.0878
     22  N         10.0640   84.2800   -4.2360 N.am   33  GLY33      -0.1940
     23  CA         8.7810   83.8260   -3.7280 C.3    33  GLY33       0.2014
     24  C          8.0240   82.9330   -4.6950 C.2    33  GLY33       0.2639
     25  O          8.6090   82.3550   -5.6150 O.2    33  GLY33      -0.2714
     26  N          6.7090   82.8190   -4.5060 N.am   34  ALA34      -0.1963
     27  CA         5.9170   81.9070   -5.3170 C.3    34  ALA34       0.1728
     28  C          5.8510   82.2980   -6.7900 C.2    34  ALA34       0.2617
     29  O          5.4490   81.4640   -7.6100 O.2    34  ALA34      -0.2715
     30  CB         4.5000   81.8010   -4.7500 C.3    34  ALA34       0.0334
     31  N          6.2260   83.5240   -7.1460 N.am   35  SER35      -0.1936
     32  CA         6.0990   83.9780   -8.5240 C.3    35  SER35       0.2055
     33  C          7.4330   84.2970   -9.1740 C.2    35  SER35       0.2643
     34  O          7.6880   83.8540  -10.3030 O.2    35  SER35      -0.2714
     35  CB         5.1940   85.2170   -8.6020 C.3    35  SER35       0.2130
     36  OG         5.1970   85.7180   -9.9310 O.3    35  SER35      -0.2179
     37  N          8.2940   85.0660   -8.5040 N.am   36  GLY36      -0.1954
     38  CA         9.4820   85.5800   -9.1490 C.3    36  GLY36       0.1869
     39  C         10.7360   85.4630   -8.3060 C.2    36  GLY36       0.2309
     40  O         10.6920   85.1890   -7.1030 O.2    36  GLY36      -0.2863
     41  N         14.1000   87.7890   -7.3740 N.3    38  VAL38      -0.1245
     42  CA        14.3990   89.2200   -7.3070 C.3    38  VAL38       0.1561
     43  C         15.9060   89.4100   -7.1760 C.2    38  VAL38       0.2260
     44  O         16.5630   88.7280   -6.3810 O.2    38  VAL38      -0.2867
     45  CB        13.6520   89.9090   -6.1530 C.3    38  VAL38       0.0252
     46  CG1       14.0030   91.4080   -6.1020 C.3    38  VAL38       0.0019
     47  CG2       12.1400   89.7160   -6.3050 C.3    38  VAL38       0.0019
     48  N         16.0580   97.0970   -7.8850 N.3    51  ALA51      -0.1245
     49  CA        15.6340   95.7120   -7.6990 C.3    51  ALA51       0.1562
     50  C         14.8520   95.2750   -8.9280 C.2    51  ALA51       0.2260
     51  O         14.0810   96.0590   -9.4920 O.2    51  ALA51      -0.2867
     52  CB        14.7630   95.5540   -6.4450 C.3    51  ALA51       0.0290
     53  N         12.5050   92.0790  -10.4520 N.3    53  LYS53      -0.1245
     54  CA        11.7570   90.8400  -10.2400 C.3    53  LYS53       0.1561
     55  C         11.5840   90.1390  -11.5810 C.2    53  LYS53       0.2260
     56  O         11.0370   90.7260  -12.5190 O.2    53  LYS53      -0.2867
     57  CB        10.4050   91.1660   -9.6120 C.3    53  LYS53       0.0271
     58  CG         9.4990   89.9670   -9.3850 C.3    53  LYS53       0.0035
     59  CD         8.2690   90.4150   -8.5840 C.3    53  LYS53       0.0206
     60  CE         7.3930   89.2530   -8.1820 C.3    53  LYS53       0.1093
     61  NZ         6.3050   89.6850   -7.2470 N.3    53  LYS53      -0.1314
     62  N          6.1070  100.1600   -2.6770 N.3    82  VAL82      -0.1245
     63  CA         7.3910  100.1510   -3.3730 C.3    82  VAL82       0.1561
     64  C          7.2580  100.8710   -4.7080 C.2    82  VAL82       0.2260
     65  O          6.2610  100.7200   -5.4260 O.2    82  VAL82      -0.2867
     66  CB         7.8910   98.7080   -3.5670 C.3    82  VAL82       0.0252
     67  CG1        6.9970   97.9520   -4.5340 C.3    82  VAL82       0.0019
     68  CG2        9.3410   98.7120   -4.0620 C.3    82  VAL82       0.0019
     69  N         12.0480   98.0180   -9.9750 N.3    98  MET98      -0.1230
     70  CA        11.4950   98.8380   -8.9010 C.3    98  MET98       0.1702
     71  C         12.6370   99.3240   -8.0160 C.2    98  MET98       0.2592
     72  O         13.7960   98.9350   -8.1980 O.2    98  MET98      -0.2718
     73  CB        10.4640   98.0560   -8.0860 C.3    98  MET98       0.0401
     74  CG        11.1270   97.0000   -7.2470 C.3    98  MET98       0.0596
     75  SD         9.9700   95.7690   -6.6170 S.3    98  MET98      -0.1393
     76  CE        10.1960   94.4870   -7.8550 C.3    98  MET98       0.0692
     77  N         12.3120  100.2200   -7.0800 N.am   99  GLU99      -0.1966
     78  CA        13.3460  100.6970   -6.1710 C.3    99  GLU99       0.1733
     79  C         13.8440   99.5430   -5.3060 C.2    99  GLU99       0.2616
     80  O         13.0900   98.6160   -4.9640 O.2    99  GLU99      -0.2715
     81  CB        12.8250  101.8270   -5.2780 C.3    99  GLU99       0.0429
     82  CG        11.7980  101.3700   -4.2820 C.3    99  GLU99       0.1163
     83  CD        11.3560  102.4550   -3.3150 C.2    99  GLU99       0.3649
     84  OE1       12.2170  103.1890   -2.7850 O.co2  99  GLU99      -0.2457
     85  OE2       10.1390  102.5420   -3.0690 O.co2  99  GLU99      -0.2457
     86  N         15.1250   99.6120   -4.9570 N.am  100  TYR100     -0.1960
     87  CA        15.7380   98.6350   -4.0690 C.3   100  TYR100      0.1771
     88  C         15.6760   99.1480   -2.6370 C.2   100  TYR100      0.2619
     89  O         16.1080  100.2740   -2.3530 O.2   100  TYR100     -0.2715
     90  CB        17.1900   98.3940   -4.4880 C.3   100  TYR100      0.0574
     91  CG        18.0240   97.6150   -3.4880 C.ar  100  TYR100     -0.0198
     92  CD1       17.5830   96.3910   -2.9860 C.ar  100  TYR100     -0.0009
     93  CD2       19.2420   98.1080   -3.0500 C.ar  100  TYR100     -0.0009
     94  CE1       18.3700   95.6740   -2.0770 C.ar  100  TYR100      0.0417
     95  CE2       20.0230   97.4000   -2.1450 C.ar  100  TYR100      0.0417
     96  CZ        19.5690   96.1930   -1.6590 C.ar  100  TYR100      0.1957
     97  OH        20.3530   95.4980   -0.7550 O.3   100  TYR100     -0.2866
     98  N         15.1390   98.3250   -1.7420 N.am  101  LEU101     -0.1977
     99  CA        15.0610   98.6440   -0.3170 C.3   101  LEU101      0.1596
    100  C         16.0710   97.7540    0.4000 C.2   101  LEU101      0.2287
    101  O         15.8290   96.5600    0.6060 O.2   101  LEU101     -0.2864
    102  CB        13.6270   98.4600    0.1910 C.3   101  LEU101      0.0297
    103  CG        12.7550   99.6360   -0.2830 C.3   101  LEU101      0.0022
    104  CD1       11.2830   99.3380   -0.2590 C.3   101  LEU101      0.0001
    105  CD2       13.0500  100.8820    0.5460 C.3   101  LEU101      0.0001
    106  N         15.9480   95.0450    3.3540 N.3   104  GLY104     -0.1210
    107  CA        15.4130   93.7060    3.1630 C.3   104  GLY104      0.1956
    108  C         13.9280   93.6310    3.4750 C.2   104  GLY104      0.2612
    109  O         13.1720   94.5830    3.2740 O.2   104  GLY104     -0.2717
    110  N         13.4970   92.4740    3.9550 N.am  105  SER105     -0.1952
    111  CA        12.0850   92.3070    4.2490 C.3   105  SER105      0.1924
    112  C         11.8640   92.2300    5.7510 C.2   105  SER105      0.2314
    113  O         12.7820   91.9990    6.5410 O.2   105  SER105     -0.2863
    114  CB        11.5190   91.0580    3.5760 C.3   105  SER105      0.2116
    115  OG        11.9790   89.9100    4.2450 O.3   105  SER105     -0.2180
    116  N         13.2170   89.1820    7.5500 N.3   108  ASP108     -0.1239
    117  CA        14.5840   89.1530    8.0640 C.3   108  ASP108      0.1674
    118  C         14.6300   89.6590    9.5030 C.2   108  ASP108      0.2266
    119  O         15.2970   89.0720   10.3620 O.2   108  ASP108     -0.2867
    120  CB        15.4970   90.0000    7.1720 C.3   108  ASP108      0.1410
    121  CG        15.4930   89.5430    5.7200 C.2   108  ASP108      0.3668
    122  OD1       15.3110   88.3280    5.4740 O.co2 108  ASP108     -0.2456
    123  OD2       15.6720   90.4040    4.8250 O.co2 108  ASP108     -0.2456
    124  N         -1.9920   89.0920   -0.2070 N.3   143  ASP143     -0.1239
    125  CA        -0.8120   88.3370    0.2100 C.3   143  ASP143      0.1674
    126  C         -0.0090   89.1450    1.2230 C.2   143  ASP143      0.2266
    127  O          1.2180   89.2290    1.1550 O.2   143  ASP143     -0.2867
    128  CB         0.0200   87.9360   -1.0090 C.3   143  ASP143      0.1410
    129  CG         0.9640   86.7780   -0.7240 C.2   143  ASP143      0.3668
    130  OD1        0.7170   86.0510    0.2650 O.co2 143  ASP143     -0.2456
    131  OD2        1.9300   86.5850   -1.5140 O.co2 143  ASP143     -0.2456
    132  N          1.9760   89.6590    4.4000 N.3   145  LYS145     -0.1245
    133  CA         2.8090   88.8050    5.2420 C.3   145  LYS145      0.1561
    134  C          4.1850   89.4540    5.2640 C.2   145  LYS145      0.2260
    135  O          4.4940   90.2890    4.4070 O.2   145  LYS145     -0.2867
    136  CB         2.9140   87.3600    4.7330 C.3   145  LYS145      0.0271
    137  CG         3.4190   87.1890    3.2920 C.3   145  LYS145      0.0035
    138  CD         3.4820   85.7120    2.9090 C.3   145  LYS145      0.0206
    139  CE         4.0520   85.5590    1.5180 C.3   145  LYS145      0.1093
    140  NZ         4.2590   84.1370    1.1240 N.3   145  LYS145     -0.1314
    141  N          7.2220   88.7020    4.4740 N.3   147  ASP147     -0.1225
    142  CA         8.0570   88.6410    3.2690 C.3   147  ASP147      0.1805
    143  C          7.7660   89.8070    2.3370 C.2   147  ASP147      0.2597
    144  O          8.6730   90.3490    1.6890 O.2   147  ASP147     -0.2718
    145  CB         7.8130   87.3270    2.5100 C.3   147  ASP147      0.1424
    146  CG         8.6880   86.1720    2.9800 C.2   147  ASP147      0.3668
    147  OD1        9.8880   86.3630    3.2690 O.co2 147  ASP147     -0.2456
    148  OD2        8.1670   85.0400    3.0120 O.co2 147  ASP147     -0.2456
    149  N          6.5030   90.1940    2.2420 N.am  148  ASN148     -0.1974
    150  CA         6.0580   91.1740    1.2670 C.3   148  ASN148      0.1688
    151  C          6.0820   92.5930    1.8220 C.2   148  ASN148      0.2292
    152  O          5.5680   93.5140    1.1770 O.2   148  ASN148     -0.2864
    153  CB         4.6620   90.8030    0.7640 C.3   148  ASN148      0.1181
    154  CG         4.6930   89.5940   -0.1430 C.2   148  ASN148      0.2629
    155  OD1        5.7590   89.2260   -0.6730 O.2   148  ASN148     -0.2716
    156  ND2        3.5390   88.9590   -0.3320 N.am  148  ASN148     -0.0877
    157  N          8.7660   95.4590    2.7260 N.3   150  LEU150     -0.1245
    158  CA        10.1580   95.8370    2.5420 C.3   150  LEU150      0.1561
    159  C         10.5270   96.9970    3.4620 C.2   150  LEU150      0.2260
    160  O          9.6850   97.8260    3.8200 O.2   150  LEU150     -0.2867
    161  CB        10.4180   96.2370    1.0910 C.3   150  LEU150      0.0270
    162  CG         9.9900   95.2310    0.0220 C.3   150  LEU150      0.0019
    163  CD1       10.2580   95.8420   -1.3420 C.3   150  LEU150      0.0001
    164  CD2       10.6860   93.8600    0.1730 C.3   150  LEU150      0.0001
    165  N          5.1050   95.4620   -1.0020 N.3   160  THR160     -0.1203
    166  CA         5.4010   95.0080   -2.3560 C.3   160  THR160      0.1994
    167  C          4.5850   93.7600   -2.6790 C.2   160  THR160      0.2617
    168  O          3.7250   93.3520   -1.8870 O.2   160  THR160     -0.2717
    169  CB         6.9020   94.7370   -2.5510 C.3   160  THR160      0.1784
    170  OG1        7.1670   94.6370   -3.9540 O.3   160  THR160     -0.2211
    171  CG2        7.3510   93.4670   -1.8460 C.3   160  THR160      0.0376
    172  N          4.8530   93.1650   -3.8490 N.am  161  ASP161     -0.1973
    173  CA         4.3110   91.8870   -4.3090 C.3   161  ASP161      0.1709
    174  C          2.8050   91.9520   -4.5140 C.2   161  ASP161      0.2293
    175  O          2.0240   91.4330   -3.7060 O.2   161  ASP161     -0.2864
    176  CB         4.6660   90.7360   -3.3540 C.3   161  ASP161      0.1436
    177  CG         4.3610   89.3810   -3.9620 C.2   161  ASP161      0.3671
    178  OD1        3.8890   89.3430   -5.1250 O.co2 161  ASP161     -0.2456
    179  OD2        4.6000   88.3650   -3.3000 O.co2 161  ASP161     -0.2456
@<TRIPOS>BOND
     1    56    55    2
     2    55    54    1
     3    53    54    1
     4    34    33    2
     5    54    57    1
     6    69    70    1
     7    36    35    1
     8    57    58    1
     9    51    50    2
    10    58    59    1
    11    33    32    1
    12    33    37   am
    13    38    37    1
    14    38    39    1
    15    50    49    1
    16    70    73    1
    17    70    71    1
    18    35    32    1
    19    59    60    1
    20    32    31    1
    21    39    40    2
    22    72    71    2
    23    60    61    1
    24    73    74    1
    25    71    77   am
    26    48    49    1
    27    76    75    1
    28    49    52    1
    29    29    28    2
    30    41    42    1
    31    42    43    1
    32    42    45    1
    33    74    75    1
    34    21    19   am
    35    43    44    2
    36    31    28   am
    37    77    78    1
    38    28    27    1
    39    47    45    1
    40    19    20    2
    41    19    18    1
    42    78    79    1
    43    78    81    1
    44    45    46    1
    45    18    17    1
    46    25    24    2
    47    65    64    2
    48    27    30    1
    49    27    26    1
    50    79    80    2
    51    79    86   am
    52    81    82    1
    53   178   177   ar
    54    12    11    2
    55    86    87    1
    56    64    63    1
    57    24    26   am
    58    24    23    1
    59    17    14    1
    60    67    66    1
    61   174   173    1
    62   174   175    2
    63     1     2    1
    64    90    87    1
    65    90    91    1
    66   173   172    1
    67   173   176    1
    68    82    83    1
    69    22    23    1
    70    22    15   am
    71    14    15    1
    72    14    13    1
    73    87    88    1
    74    68    66    1
    75   177   176    1
    76   177   179   ar
    77   170   169    1
    78     6     8    1
    79     6     5    1
    80   172   167   am
    81    11    13   am
    82    11    10    1
    83    66    63    1
    84    15    16    2
    85    91    93   ar
    86    91    92   ar
    87     9    10    1
    88     9     3   am
    89    63    62    1
    90     7     5    1
    91    83    85   ar
    92    83    84   ar
    93     2     5    1
    94     2     3    1
    95    93    95   ar
    96    92    94   ar
    97   167   166    1
    98   167   168    2
    99    88    89    2
   100    88    98   am
   101     3     4    2
   102   169   166    1
   103   169   171    1
   104   166   165    1
   105    95    96   ar
   106    94    96   ar
   107    98    99    1
   108    96    97    1
   109   131   129   ar
   110   163   162    1
   111   128   129    1
   112   128   125    1
   113   129   130   ar
   114   155   154    2
   115   156   154   am
   116    99   102    1
   117    99   100    1
   118   103   104    1
   119   103   102    1
   120   103   105    1
   121   124   125    1
   122   154   153    1
   123   162   164    1
   124   162   161    1
   125   125   126    1
   126   100   101    2
   127   153   150    1
   128   161   158    1
   129   140   139    1
   130   127   126    2
   131   152   151    2
   132   150   151    1
   133   150   149    1
   134   139   138    1
   135   144   143    2
   136   149   143   am
   137   143   142    1
   138   145   146    1
   139   145   142    1
   140   158   157    1
   141   158   159    1
   142   138   137    1
   143   146   148   ar
   144   146   147   ar
   145   107   106    1
   146   107   108    1
   147   142   141    1
   148   109   108    2
   149   137   136    1
   150   159   160    2
   151   108   110   am
   152   114   115    1
   153   114   111    1
   154   110   111    1
   155   111   112    1
   156   132   133    1
   157   135   134    2
   158   136   133    1
   159   123   121   ar
   160   133   134    1
   161   122   121   ar
   162   121   120    1
   163   112   113    2
   164   120   117    1
   165   116   117    1
   166   117   118    1
   167   118   119    2
