@<TRIPOS>MOLECULE
tmp/6fd9A00.pdb
 130 123 0 0 0
SMALL
GASTEIGER

@<TRIPOS>ATOM
      1  N        -11.6510   -6.4520   -3.7300 N.3    12  ARG12      -0.1231
      2  CA       -12.9110   -6.5480   -4.4730 C.3    12  ARG12       0.1694
      3  C        -14.0680   -7.1510   -3.6670 C.2    12  ARG12       0.2591
      4  O        -15.2060   -6.6640   -3.7310 O.2    12  ARG12      -0.2718
      5  CB       -12.7120   -7.3450   -5.7760 C.3    12  ARG12       0.0321
      6  CG       -11.8490   -6.6410   -6.8240 C.3    12  ARG12       0.0489
      7  CD       -11.7960   -7.4140   -8.1410 C.3    12  ARG12       0.2205
      8  NE       -13.0890   -7.4000   -8.8460 N.pl3  12  ARG12      -0.0865
      9  CZ       -13.3540   -8.0400   -9.9900 C.cat  12  ARG12       0.5346
     10  NH1      -12.4200   -8.7640  -10.6060 N.pl3  12  ARG12       0.1354
     11  NH2      -14.5690   -7.9540  -10.5290 N.pl3  12  ARG12       0.1354
     12  N        -13.7740   -8.2010   -2.9060 N.am   13  ILE13      -0.1980
     13  CA       -14.8240   -8.9110   -2.1730 C.3    13  ILE13       0.1595
     14  C        -15.4510   -8.0130   -1.0920 C.2    13  ILE13       0.2287
     15  O        -16.6780   -7.9460   -0.9980 O.2    13  ILE13      -0.2864
     16  CB       -14.3350  -10.3040   -1.6700 C.3    13  ILE13       0.0276
     17  CG1      -14.3860  -11.2890   -2.8500 C.3    13  ILE13       0.0022
     18  CG2      -15.1940  -10.8310   -0.5240 C.3    13  ILE13       0.0022
     19  CD1      -13.7550  -12.6510   -2.6340 C.3    13  ILE13       0.0001
     20  N        -13.1070  -19.6590   -7.5160 N.3    74  ASP74      -0.1239
     21  CA       -11.7430  -20.1310   -7.7300 C.3    74  ASP74       0.1674
     22  C        -11.1460  -20.7180   -6.4400 C.2    74  ASP74       0.2266
     23  O        -10.5700  -21.8010   -6.4700 O.2    74  ASP74      -0.2867
     24  CB       -10.8570  -19.0230   -8.3100 C.3    74  ASP74       0.1410
     25  CG       -10.7630  -17.8020   -7.4140 C.2    74  ASP74       0.3668
     26  OD1      -11.8080  -17.2970   -6.9490 O.co2  74  ASP74      -0.2456
     27  OD2       -9.6330  -17.3420   -7.1780 O.co2  74  ASP74      -0.2456
     28  N        -17.3960   -9.7740   -7.8880 N.3    93  ALA93      -0.1245
     29  CA       -15.9750  -10.0660   -8.0740 C.3    93  ALA93       0.1562
     30  C        -15.8330  -11.0720   -9.2110 C.2    93  ALA93       0.2260
     31  O        -15.2220  -12.1370   -9.0590 O.2    93  ALA93      -0.2867
     32  CB       -15.3570  -10.5940   -6.7760 C.3    93  ALA93       0.0290
     33  N        -14.8530  -12.9520  -12.6400 N.3    95  CYS95      -0.1235
     34  CA       -13.6630  -13.1820  -13.4530 C.3    95  CYS95       0.1677
     35  C        -13.6840  -14.5910  -14.0610 C.2    95  CYS95       0.2270
     36  O        -14.6880  -15.3060  -13.9720 O.2    95  CYS95      -0.2867
     37  CB       -12.4050  -12.9430  -12.6140 C.3    95  CYS95       0.0956
     38  SG       -12.2460  -14.0360  -11.1910 S.3    95  CYS95      -0.0801
     39  N         -3.4070  -22.5770   -8.4960 N.3   118  TYR118     -0.1241
     40  CA        -4.5820  -23.4440   -8.4900 C.3   118  TYR118      0.1605
     41  C         -4.1840  -24.8330   -8.9800 C.2   118  TYR118      0.2264
     42  O         -4.4730  -25.2110  -10.1150 O.2   118  TYR118     -0.2867
     43  CB        -5.6980  -22.8430   -9.3470 C.3   118  TYR118      0.0534
     44  CG        -6.0550  -21.4320   -8.9750 C.ar  118  TYR118     -0.0201
     45  CD1       -5.3990  -20.3540   -9.5570 C.ar  118  TYR118     -0.0009
     46  CD2       -7.0450  -21.1690   -8.0370 C.ar  118  TYR118     -0.0009
     47  CE1       -5.7220  -19.0540   -9.2180 C.ar  118  TYR118      0.0417
     48  CE2       -7.3810  -19.8710   -7.6990 C.ar  118  TYR118      0.0417
     49  CZ        -6.7150  -18.8190   -8.2900 C.ar  118  TYR118      0.1957
     50  OH        -7.0420  -17.5290   -7.9590 O.3   118  TYR118     -0.2866
     51  N          2.0300  -14.4350  -13.9640 N.3   143  GLU143     -0.1245
     52  CA         2.4390  -13.8400  -15.2550 C.3   143  GLU143      0.1567
     53  C          3.9510  -13.7920  -15.5290 C.2   143  GLU143      0.2260
     54  O          4.3440  -13.6910  -16.6890 O.2   143  GLU143     -0.2867
     55  CB         1.8150  -12.4430  -15.4700 C.3   143  GLU143      0.0388
     56  CG         2.2400  -11.3590  -14.4780 C.3   143  GLU143      0.1160
     57  CD         1.4120  -11.3110  -13.2110 C.2   143  GLU143      0.3649
     58  OE1        0.6330  -12.2490  -12.9680 O.co2 143  GLU143     -0.2457
     59  OE2        1.5570  -10.3320  -12.4480 O.co2 143  GLU143     -0.2457
     60  N         -4.5520  -19.1290  -14.0320 N.3   156  ASP156     -0.1225
     61  CA        -4.8170  -17.9930  -13.1640 C.3   156  ASP156      0.1805
     62  C         -6.1860  -17.3580  -13.4370 C.2   156  ASP156      0.2598
     63  O         -6.8470  -17.6500  -14.4500 O.2   156  ASP156     -0.2718
     64  CB        -3.6890  -16.9530  -13.3200 C.3   156  ASP156      0.1424
     65  CG        -3.5720  -15.9900  -12.1280 C.2   156  ASP156      0.3668
     66  OD1       -4.3170  -16.1210  -11.1390 O.co2 156  ASP156     -0.2456
     67  OD2       -2.7030  -15.0970  -12.1800 O.co2 156  ASP156     -0.2456
     68  N         -6.6270  -16.5260  -12.4940 N.am  157  VAL157     -0.1966
     69  CA        -7.8240  -15.7190  -12.6890 C.3   157  VAL157      0.1727
     70  C         -7.4970  -14.5000  -13.5610 C.2   157  VAL157      0.2616
     71  O         -6.4560  -13.8640  -13.4230 O.2   157  VAL157     -0.2715
     72  CB        -8.5600  -15.3580  -11.3730 C.3   157  VAL157      0.0290
     73  CG1       -9.0280  -16.6280  -10.6820 C.3   157  VAL157      0.0023
     74  CG2       -7.7130  -14.5200  -10.4200 C.3   157  VAL157      0.0023
     75  N         -8.3950  -14.2310  -14.4960 N.am  158  VAL158     -0.1963
     76  CA        -8.2650  -13.1520  -15.4600 C.3   158  VAL158      0.1727
     77  C         -9.5710  -12.3770  -15.4270 C.2   158  VAL158      0.2616
     78  O        -10.6310  -12.9780  -15.5280 O.2   158  VAL158     -0.2715
     79  CB        -8.0470  -13.7250  -16.8680 C.3   158  VAL158      0.0290
     80  CG1       -7.9780  -12.6210  -17.9110 C.3   158  VAL158      0.0023
     81  CG2       -6.7840  -14.5740  -16.9020 C.3   158  VAL158      0.0023
     82  N         -9.4910  -11.0550  -15.2930 N.am  159  ASP159     -0.1957
     83  CA       -10.6560  -10.1790  -15.4160 C.3   159  ASP159      0.1840
     84  C        -10.6140   -9.4460  -16.7710 C.2   159  ASP159      0.2623
     85  O        -11.2480   -9.8890  -17.7310 O.2   159  ASP159     -0.2715
     86  CB       -10.7310   -9.2390  -14.2030 C.3   159  ASP159      0.1450
     87  CG       -11.8600   -8.2230  -14.2920 C.2   159  ASP159      0.3671
     88  OD1      -12.7210   -8.3220  -15.1850 O.co2 159  ASP159     -0.2456
     89  OD2      -11.8730   -7.3110  -13.4490 O.co2 159  ASP159     -0.2456
     90  N         -9.8630   -8.3560  -16.8620 N.am  160  THR160     -0.1937
     91  CA        -9.7750   -7.6020  -18.0970 C.3   160  THR160      0.2028
     92  C         -8.8250   -8.2170  -19.1100 C.2   160  THR160      0.2643
     93  O         -8.9080   -7.8780  -20.2880 O.2   160  THR160     -0.2714
     94  CB        -9.2470   -6.1800  -17.8360 C.3   160  THR160      0.1808
     95  OG1       -7.9340   -6.2710  -17.2730 O.3   160  THR160     -0.2208
     96  CG2      -10.2030   -5.3950  -16.8940 C.3   160  THR160      0.0379
     97  N         -7.8810   -9.0490  -18.6510 N.am  161  GLY161     -0.1939
     98  CA        -6.7840   -9.5040  -19.4850 C.3   161  GLY161      0.2014
     99  C         -5.5910   -8.5590  -19.5940 C.2   161  GLY161      0.2639
    100  O         -4.5940   -8.8920  -20.2560 O.2   161  GLY161     -0.2714
    101  N         -5.6490   -7.4030  -18.9410 N.am  162  ASN162     -0.1958
    102  CA        -4.5640   -6.4000  -19.0500 C.3   162  ASN162      0.1819
    103  C         -3.2140   -6.8850  -18.5130 C.2   162  ASN162      0.2622
    104  O         -2.1740   -6.5490  -19.0840 O.2   162  ASN162     -0.2715
    105  CB        -4.9330   -5.1080  -18.3180 C.3   162  ASN162      0.1195
    106  CG        -6.0450   -4.3480  -18.9870 C.2   162  ASN162      0.2630
    107  OD1       -6.4530   -4.6710  -20.1030 O.2   162  ASN162     -0.2716
    108  ND2       -6.5600   -3.3260  -18.2960 N.am  162  ASN162     -0.0877
    109  N         -3.2360   -7.6420  -17.4150 N.am  163  THR163     -0.1937
    110  CA        -2.0110   -8.2090  -16.8390 C.3   163  THR163      0.2028
    111  C         -1.3290   -9.1110  -17.8440 C.2   163  THR163      0.2642
    112  O         -0.1290   -8.9790  -18.0920 O.2   163  THR163     -0.2714
    113  CB        -2.2770   -9.0230  -15.5560 C.3   163  THR163      0.1808
    114  OG1       -2.9760   -8.2120  -14.6110 O.3   163  THR163     -0.2208
    115  CG2       -0.9530   -9.4930  -14.9230 C.3   163  THR163      0.0379
    116  N         -2.1010  -10.0150  -18.4300 N.am  164  LEU164     -0.1977
    117  CA        -1.5690  -10.9320  -19.4420 C.3   164  LEU164      0.1596
    118  C         -0.9450  -10.1730  -20.6150 C.2   164  LEU164      0.2287
    119  O          0.2060  -10.4420  -20.9920 O.2   164  LEU164     -0.2864
    120  CB        -2.6630  -11.8660  -19.9530 C.3   164  LEU164      0.0297
    121  CG        -3.2560  -12.8760  -18.9720 C.3   164  LEU164      0.0022
    122  CD1       -4.3640  -13.6330  -19.6730 C.3   164  LEU164      0.0001
    123  CD2       -2.2060  -13.8370  -18.4570 C.3   164  LEU164      0.0001
    124  N        -15.9720  -17.3990  -12.7310 N.3   178  VAL178     -0.1245
    125  CA       -15.7760  -17.3390  -11.3050 C.3   178  VAL178      0.1561
    126  C        -16.5660  -16.1640  -10.7730 C.2   178  VAL178      0.2260
    127  O        -16.5810  -15.0990  -11.3790 O.2   178  VAL178     -0.2867
    128  CB       -14.2870  -17.1520  -10.9870 C.3   178  VAL178      0.0252
    129  CG1      -14.0840  -16.7430   -9.5330 C.3   178  VAL178      0.0019
    130  CG2      -13.5300  -18.4360  -11.3200 C.3   178  VAL178      0.0019
@<TRIPOS>BOND
     1   119   118    2
     2   118   117    1
     3    93    92    2
     4   100    99    2
     5   107   106    2
     6   120   117    1
     7   120   121    1
     8   122   121    1
     9    99    98    1
    10    99   101   am
    11    98    97    1
    12   117   116    1
    13    92    97   am
    14    92    91    1
    15   104   103    2
    16   102   101    1
    17   102   103    1
    18   102   105    1
    19   106   105    1
    20   106   108   am
    21   121   123    1
    22   103   109   am
    23   116   111   am
    24    91    94    1
    25    91    90    1
    26   112   111    2
    27    80    79    1
    28   111   110    1
    29    94    95    1
    30    94    96    1
    31    85    84    2
    32   109   110    1
    33    81    79    1
    34    79    76    1
    35    90    84   am
    36   110   113    1
    37    84    83    1
    38    54    53    2
    39   113   115    1
    40   113   114    1
    41    53    52    1
    42    78    77    2
    43    55    52    1
    44    55    56    1
    45    76    77    1
    46    76    75    1
    47    77    82   am
    48    83    82    1
    49    83    86    1
    50    52    51    1
    51    88    87   ar
    52    75    70   am
    53    56    57    1
    54    63    62    2
    55    87    86    1
    56    87    89   ar
    57    35    36    2
    58    35    34    1
    59    60    61    1
    60    70    71    2
    61    70    69    1
    62    34    33    1
    63    34    37    1
    64    62    61    1
    65    62    68   am
    66    64    61    1
    67    64    65    1
    68    57    58   ar
    69    57    59   ar
    70   124   125    1
    71    69    68    1
    72    69    72    1
    73    37    38    1
    74    67    65   ar
    75    65    66   ar
    76   127   126    2
    77    72    73    1
    78    72    74    1
    79   130   128    1
    80   125   128    1
    81   125   126    1
    82   128   129    1
    83    10     9    1
    84    11     9    1
    85    42    41    2
    86     9     8    2
    87    45    47   ar
    88    45    44   ar
    89    43    44    1
    90    43    40    1
    91    47    49   ar
    92    30    31    2
    93    30    29    1
    94    41    40    1
    95    44    46   ar
    96     8     7    1
    97    39    40    1
    98    24    21    1
    99    24    25    1
   100    49    50    1
   101    49    48   ar
   102     7     6    1
   103    29    28    1
   104    29    32    1
   105    46    48   ar
   106    21    20    1
   107    21    22    1
   108    25    27   ar
   109    25    26   ar
   110     6     5    1
   111    23    22    2
   112     5     2    1
   113     2     1    1
   114     2     3    1
   115     4     3    2
   116     3    12   am
   117    12    13    1
   118    17    19    1
   119    17    16    1
   120    13    16    1
   121    13    14    1
   122    16    18    1
   123    14    15    2
