@<TRIPOS>MOLECULE
tmp/6fdcB00.pdb
 179 176 0 0 0
SMALL
GASTEIGER

@<TRIPOS>ATOM
      1  N         -7.8430  201.0840  152.8820 N.3    70  TYR70      -0.1227
      2  CA        -6.9410  200.7670  153.9800 C.3    70  TYR70       0.1736
      3  C         -6.2940  202.0230  154.5620 C.2    70  TYR70       0.2595
      4  O         -6.3730  202.2710  155.7630 O.2    70  TYR70      -0.2718
      5  CB        -5.8730  199.7520  153.5540 C.3    70  TYR70       0.0548
      6  CG        -4.9150  199.3880  154.6710 C.ar   70  TYR70      -0.0200
      7  CD1       -3.8160  200.1990  154.9610 C.ar   70  TYR70      -0.0009
      8  CD2       -5.1000  198.2330  155.4320 C.ar   70  TYR70      -0.0009
      9  CE1       -2.9400  199.8790  155.9800 C.ar   70  TYR70       0.0417
     10  CE2       -4.2250  197.9070  156.4570 C.ar   70  TYR70       0.0417
     11  CZ        -3.1500  198.7300  156.7250 C.ar   70  TYR70       0.1957
     12  OH        -2.2810  198.4250  157.7320 O.3    70  TYR70      -0.2866
     13  N         -5.6620  202.8240  153.7080 N.am   71  HIS71      -0.1975
     14  CA        -4.9010  203.9720  154.1850 C.3    71  HIS71       0.1656
     15  C         -5.7620  205.1750  154.4950 C.2    71  HIS71       0.2291
     16  O         -5.6720  206.2120  153.8420 O.2    71  HIS71      -0.2864
     17  CB        -3.7990  204.3370  153.1900 C.3    71  HIS71       0.0771
     18  CG        -2.6740  203.3550  153.1900 C.ar   71  HIS71       0.0820
     19  ND1       -2.4990  202.4130  152.1970 N.ar   71  HIS71      -0.2267
     20  CD2       -1.6850  203.1450  154.0930 C.ar   71  HIS71       0.1154
     21  CE1       -1.4390  201.6760  152.4820 C.ar   71  HIS71       0.1986
     22  NE2       -0.9280  202.0990  153.6270 N.ar   71  HIS71      -0.2212
     23  N          8.4450  201.6480  153.0340 N.3   184  MET184     -0.1245
     24  CA         8.8040  200.2390  153.0250 C.3   184  MET184      0.1570
     25  C         10.1060  199.9450  152.2930 C.2   184  MET184      0.2261
     26  O         10.7370  198.9180  152.5340 O.2   184  MET184     -0.2867
     27  CB         7.6770  199.3850  152.4340 C.3   184  MET184      0.0387
     28  CG         6.5890  199.0280  153.4240 C.3   184  MET184      0.0595
     29  SD         7.2020  198.0680  154.8300 S.3   184  MET184     -0.1393
     30  CE         8.0310  196.7080  154.0160 C.3   184  MET184      0.0692
     31  N          3.0230  200.2510  162.3910 N.3   229  ASP229     -0.1225
     32  CA         2.4910  200.3400  161.0420 C.3   229  ASP229      0.1805
     33  C          2.2750  198.9240  160.4770 C.2   229  ASP229      0.2597
     34  O          1.3260  198.6740  159.7300 O.2   229  ASP229     -0.2718
     35  CB         3.4850  201.1440  160.1960 C.3   229  ASP229      0.1424
     36  CG         2.8920  201.6850  158.9170 C.2   229  ASP229      0.3668
     37  OD1        1.6650  201.9060  158.8050 O.co2 229  ASP229     -0.2456
     38  OD2        3.7060  201.9410  158.0050 O.co2 229  ASP229     -0.2456
     39  N          3.1610  198.0070  160.8510 N.am  230  LEU230     -0.1979
     40  CA         3.1120  196.6130  160.4040 C.3   230  LEU230      0.1596
     41  C          2.5780  195.6760  161.4960 C.2   230  LEU230      0.2287
     42  O          3.0330  194.5280  161.6380 O.2   230  LEU230     -0.2864
     43  CB         4.5110  196.1690  159.9590 C.3   230  LEU230      0.0297
     44  CG         5.0270  196.8380  158.6790 C.3   230  LEU230      0.0022
     45  CD1        6.4680  196.3910  158.3960 C.3   230  LEU230      0.0001
     46  CD2        4.1180  196.5120  157.4970 C.3   230  LEU230      0.0001
     47  N         -0.8080  194.8010  161.9500 N.3   232  ASN232     -0.1226
     48  CA        -2.0890  194.1110  161.7060 C.3   232  ASN232      0.1770
     49  C         -2.0470  192.5930  161.9630 C.2   232  ASN232      0.2439
     50  O         -2.9450  192.0620  162.6230 O.2   232  ASN232     -0.2733
     51  CB        -2.6120  194.3240  160.2810 C.3   232  ASN232      0.1168
     52  CG        -2.8960  195.7880  159.9280 C.2   232  ASN232      0.2627
     53  OD1       -2.9560  196.1190  158.7440 O.2   232  ASN232     -0.2716
     54  ND2       -3.0850  196.6430  160.9190 N.am  232  ASN232     -0.0877
     55  N         -1.0210  191.8880  161.4430 N.am  233  PRO233     -0.2729
     56  CA        -1.0370  190.4230  161.6140 C.3   233  PRO233      0.1401
     57  C         -0.7620  189.9640  163.0500 C.2   233  PRO233      0.2269
     58  O         -0.8520  188.7540  163.3350 O.2   233  PRO233     -0.2865
     59  CB         0.0710  189.9430  160.6730 C.3   233  PRO233      0.0296
     60  CG         0.2290  191.0800  159.6570 C.3   233  PRO233      0.0237
     61  CD         0.0080  192.3190  160.4750 C.3   233  PRO233      0.0939
     62  N         -7.4320  191.3840  162.3390 N.3   240  TYR240     -0.1241
     63  CA        -6.4790  191.1260  161.2640 C.3   240  TYR240      0.1605
     64  C         -7.2040  190.8230  159.9580 C.2   240  TYR240      0.2264
     65  O         -6.8730  191.3650  158.9080 O.2   240  TYR240     -0.2867
     66  CB        -5.5690  189.9580  161.6630 C.3   240  TYR240      0.0534
     67  CG        -4.5290  189.5200  160.6490 C.ar  240  TYR240     -0.0201
     68  CD1       -4.0670  190.3740  159.6460 C.ar  240  TYR240     -0.0009
     69  CD2       -3.9990  188.2380  160.7050 C.ar  240  TYR240     -0.0009
     70  CE1       -3.1090  189.9440  158.7340 C.ar  240  TYR240      0.0417
     71  CE2       -3.0470  187.8030  159.8060 C.ar  240  TYR240      0.0417
     72  CZ        -2.6010  188.6560  158.8190 C.ar  240  TYR240      0.1957
     73  OH        -1.6570  188.2030  157.9240 O.3   240  TYR240     -0.2866
     74  N         -8.4510  193.9640  158.3860 N.3   243  TRP243     -0.1227
     75  CA        -7.3770  194.7630  157.7840 C.3   243  TRP243      0.1737
     76  C         -6.9590  194.1670  156.4480 C.2   243  TRP243      0.2596
     77  O         -6.6690  194.8890  155.4890 O.2   243  TRP243     -0.2718
     78  CB        -6.1670  194.8470  158.7190 C.3   243  TRP243      0.0564
     79  CG        -6.3860  195.7240  159.8950 C.ar  243  TRP243      0.0003
     80  CD1       -6.3240  195.3650  161.2160 C.ar  243  TRP243      0.0946
     81  CD2       -6.7200  197.1150  159.8750 C.ar  243  TRP243      0.0152
     82  NE1       -6.5900  196.4510  162.0140 N.ar  243  TRP243     -0.2442
     83  CE2       -6.8400  197.5360  161.2200 C.ar  243  TRP243      0.0810
     84  CE3       -6.9340  198.0500  158.8520 C.ar  243  TRP243      0.0012
     85  CZ2       -7.1580  198.8500  161.5660 C.ar  243  TRP243      0.0191
     86  CZ3       -7.2490  199.3510  159.1990 C.ar  243  TRP243      0.0001
     87  CH2       -7.3580  199.7380  160.5440 C.ar  243  TRP243      0.0015
     88  N         -6.9270  192.8430  156.3780 N.am  244  THR244     -0.1953
     89  CA        -6.5280  192.1620  155.1550 C.3   244  THR244      0.1897
     90  C         -7.5350  192.4140  154.0340 C.2   244  THR244      0.2313
     91  O         -7.1530  192.6600  152.8910 O.2   244  THR244     -0.2863
     92  CB        -6.3340  190.6550  155.3910 C.3   244  THR244      0.1794
     93  OG1       -5.2450  190.4580  156.3000 O.3   244  THR244     -0.2208
     94  CG2       -6.0230  189.9470  154.0790 C.3   244  THR244      0.0378
     95  N         -6.7970  196.0310  152.7620 N.3   247  ILE247     -0.1231
     96  CA        -5.6040  196.2480  151.9510 C.3   247  ILE247      0.1692
     97  C         -5.7640  195.6010  150.5800 C.2   247  ILE247      0.2591
     98  O         -5.3360  196.1670  149.5770 O.2   247  ILE247     -0.2718
     99  CB        -4.2980  195.7960  152.6490 C.3   247  ILE247      0.0266
    100  CG1       -3.0750  196.4140  151.9600 C.3   247  ILE247      0.0019
    101  CG2       -4.1730  194.2880  152.6700 C.3   247  ILE247      0.0020
    102  CD1       -2.9850  197.9250  152.0890 C.3   247  ILE247      0.0001
    103  N         -6.4140  194.4420  150.5180 N.am  248  MET248     -0.1979
    104  CA        -6.6150  193.7890  149.2280 C.3   248  MET248      0.1605
    105  C         -7.5480  194.5970  148.3350 C.2   248  MET248      0.2287
    106  O         -7.3160  194.7110  147.1270 O.2   248  MET248     -0.2864
    107  CB        -7.1160  192.3500  149.3950 C.3   248  MET248      0.0413
    108  CG        -6.0970  191.4410  150.0650 C.3   248  MET248      0.0598
    109  SD        -4.4260  191.4470  149.3470 S.3   248  MET248     -0.1393
    110  CE        -4.6940  190.7090  147.7380 C.3   248  MET248      0.0692
    111  N         -5.3470  197.4160  147.0400 N.3   251  PHE251     -0.1241
    112  CA        -4.4320  196.8860  146.0390 C.3   251  PHE251      0.1605
    113  C         -5.1360  196.5730  144.7250 C.2   251  PHE251      0.2264
    114  O         -4.6210  196.8670  143.6510 O.2   251  PHE251     -0.2867
    115  CB        -3.7450  195.6250  146.5400 C.3   251  PHE251      0.0534
    116  CG        -2.6110  195.8810  147.4940 C.ar  251  PHE251     -0.0203
    117  CD1       -2.3670  197.1460  147.9960 C.ar  251  PHE251     -0.0042
    118  CD2       -1.7920  194.8490  147.8760 C.ar  251  PHE251     -0.0042
    119  CE1       -1.3130  197.3680  148.8760 C.ar  251  PHE251     -0.0003
    120  CE2       -0.7420  195.0710  148.7350 C.ar  251  PHE251     -0.0003
    121  CZ        -0.5090  196.3280  149.2450 C.ar  251  PHE251     -0.0000
    122  N          0.2240  191.1440  143.6910 N.3   268  MET268     -0.1245
    123  CA        -0.8930  191.1670  144.6360 C.3   268  MET268      0.1570
    124  C         -1.9750  192.1930  144.3140 C.2   268  MET268      0.2261
    125  O         -2.8770  192.4310  145.1210 O.2   268  MET268     -0.2867
    126  CB        -0.3760  191.3530  146.0600 C.3   268  MET268      0.0387
    127  CG         0.6240  190.2880  146.4400 C.3   268  MET268      0.0595
    128  SD         1.6280  190.7540  147.8450 S.3   268  MET268     -0.1393
    129  CE         2.2900  192.3290  147.3050 C.3   268  MET268      0.0692
    130  N         -0.4750  185.3290  150.0330 N.3   279  SER279     -0.1202
    131  CA         0.1420  186.6430  150.1690 C.3   279  SER279      0.2020
    132  C          0.3300  187.0470  151.6340 C.2   279  SER279      0.2618
    133  O          1.3580  187.6300  151.9940 O.2   279  SER279     -0.2717
    134  CB        -0.6510  187.6870  149.3860 C.3   279  SER279      0.2103
    135  OG        -0.4940  187.4700  147.9950 O.3   279  SER279     -0.2182
    136  N         -0.6430  186.7320  152.4870 N.am  280  GLN280     -0.1979
    137  CA        -0.4660  187.0040  153.9190 C.3   280  GLN280      0.1601
    138  C          0.6350  186.1500  154.5510 C.2   280  GLN280      0.2287
    139  O          1.4220  186.6340  155.3560 O.2   280  GLN280     -0.2864
    140  CB        -1.7700  186.8610  154.7060 C.3   280  GLN280      0.0394
    141  CG        -2.7510  187.9930  154.4780 C.3   280  GLN280      0.0908
    142  CD        -2.1090  189.3490  154.6840 C.2   280  GLN280      0.2608
    143  OE1       -1.5920  189.6440  155.7580 O.2   280  GLN280     -0.2717
    144  NE2       -2.1230  190.1730  153.6440 N.am  280  GLN280     -0.0878
    145  N          3.2120  184.9890  153.0540 N.3   282  GLY282     -0.1210
    146  CA         4.4350  185.5930  152.5500 C.3   282  GLY282      0.1956
    147  C          4.7830  186.8870  153.2800 C.2   282  GLY282      0.2611
    148  O          5.9420  187.0890  153.6520 O.2   282  GLY282     -0.2717
    149  N          3.7870  187.7470  153.4870 N.am  283  PHE283     -0.1976
    150  CA         3.9670  189.0260  154.2010 C.3   283  PHE283      0.1639
    151  C          4.5110  188.7520  155.5990 C.2   283  PHE283      0.2290
    152  O          5.4570  189.3890  156.0570 O.2   283  PHE283     -0.2864
    153  CB         2.6040  189.7120  154.2900 C.3   283  PHE283      0.0560
    154  CG         2.6000  191.0920  154.9260 C.ar  283  PHE283     -0.0200
    155  CD1        3.5630  192.0400  154.6290 C.ar  283  PHE283     -0.0042
    156  CD2        1.5580  191.4480  155.7690 C.ar  283  PHE283     -0.0042
    157  CE1        3.4930  193.3130  155.1960 C.ar  283  PHE283     -0.0003
    158  CE2        1.4900  192.7020  156.3370 C.ar  283  PHE283     -0.0003
    159  CZ         2.4580  193.6300  156.0440 C.ar  283  PHE283     -0.0000
    160  N          8.2520  186.9720  155.3830 N.3   286  TYR286     -0.1227
    161  CA         9.3620  187.7340  154.8220 C.3   286  TYR286      0.1736
    162  C          9.5040  189.1450  155.3760 C.2   286  TYR286      0.2595
    163  O         10.5910  189.7190  155.2900 O.2   286  TYR286     -0.2718
    164  CB         9.2730  187.7680  153.2980 C.3   286  TYR286      0.0548
    165  CG         9.4980  186.4200  152.6660 C.ar  286  TYR286     -0.0200
    166  CD1       10.7830  185.9390  152.4590 C.ar  286  TYR286     -0.0009
    167  CD2        8.4270  185.6160  152.3030 C.ar  286  TYR286     -0.0009
    168  CE1       10.9950  184.6930  151.8910 C.ar  286  TYR286      0.0417
    169  CE2        8.6270  184.3720  151.7360 C.ar  286  TYR286      0.0417
    170  CZ         9.9120  183.9170  151.5350 C.ar  286  TYR286      0.1957
    171  OH        10.1130  182.6780  150.9690 O.3   286  TYR286     -0.2866
    172  N          8.4370  189.6890  155.9560 N.am  287  ILE287     -0.1980
    173  CA         8.4820  191.0720  156.4570 C.3   287  ILE287      0.1595
    174  C          8.0940  191.1710  157.9290 C.2   287  ILE287      0.2287
    175  O          8.8860  191.6160  158.7710 O.2   287  ILE287     -0.2864
    176  CB         7.5690  191.9990  155.6280 C.3   287  ILE287      0.0276
    177  CG1        8.0250  192.0220  154.1710 C.3   287  ILE287      0.0022
    178  CG2        7.5560  193.4080  156.2050 C.3   287  ILE287      0.0022
    179  CD1        7.1370  192.8240  153.2960 C.3   287  ILE287      0.0001
@<TRIPOS>BOND
     1   114   113    2
     2   122   123    1
     3   124   123    1
     4   124   125    2
     5   123   126    1
     6   113   112    1
     7   112   115    1
     8   112   111    1
     9   126   127    1
    10   127   128    1
    11   115   116    1
    12   106   105    2
    13   129   128    1
    14   116   118   ar
    15   116   117   ar
    16   110   109    1
    17   118   120   ar
    18   135   134    1
    19   117   119   ar
    20   105   104    1
    21   120   121   ar
    22   119   121   ar
    23   104   107    1
    24   104   103    1
    25   109   108    1
    26   134   131    1
    27   107   108    1
    28    98    97    2
    29   130   131    1
    30   131   132    1
    31   103    97   am
    32    97    96    1
    33   171   170    1
    34   170   169   ar
    35   170   168   ar
    36   132   133    2
    37   132   136   am
    38   169   167   ar
    39   168   166   ar
    40    96    99    1
    41    96    95    1
    42   100   102    1
    43   100    99    1
    44    19    21   ar
    45    19    18   ar
    46    25    26    2
    47    25    24    1
    48   167   165   ar
    49    27    24    1
    50    27    28    1
    51   166   165   ar
    52    21    22   ar
    53   136   137    1
    54   146   145    1
    55   146   147    1
    56    99   101    1
    57   165   164    1
    58     1     2    1
    59    91    90    2
    60    24    23    1
    61    18    17    1
    62    18    20   ar
    63    17    14    1
    64   147   149   am
    65   147   148    2
    66   179   177    1
    67   164   161    1
    68    28    29    1
    69   149   150    1
    70     5     2    1
    71     5     6    1
    72    22    20   ar
    73   144   142   am
    74    13    14    1
    75    13     3   am
    76    16    15    2
    77   137   138    1
    78   137   140    1
    79     2     3    1
    80    30    29    1
    81    90    89    1
    82    94    92    1
    83   177   176    1
    84    14    15    1
    85   150   153    1
    86   150   151    1
    87   153   154    1
    88   141   142    1
    89   141   140    1
    90   138   139    2
    91     3     4    2
    92   155   154   ar
    93   155   157   ar
    94     6     7   ar
    95     6     8   ar
    96   142   143    2
    97   161   162    1
    98   161   160    1
    99   154   156   ar
   100     7     9   ar
   101    89    92    1
   102    89    88    1
   103   157   159   ar
   104   163   162    2
   105   162   172   am
   106    92    93    1
   107     8    10   ar
   108    77    76    2
   109   151   152    2
   110   176   178    1
   111   176   173    1
   112   156   158   ar
   113   172   173    1
   114     9    11   ar
   115   159   158   ar
   116    88    76   am
   117    76    75    1
   118    10    11   ar
   119   173   174    1
   120    11    12    1
   121    46    44    1
   122    75    74    1
   123    75    78    1
   124    73    72    1
   125   174   175    2
   126    38    36   ar
   127    45    44    1
   128    44    43    1
   129    78    79    1
   130    70    72   ar
   131    70    68   ar
   132    53    52    2
   133    37    36   ar
   134    72    71   ar
   135    84    86   ar
   136    84    81   ar
   137    65    64    2
   138    36    35    1
   139    86    87   ar
   140    68    67   ar
   141    60    61    1
   142    60    59    1
   143    34    33    2
   144    71    69   ar
   145    81    79   ar
   146    81    83   ar
   147    79    80   ar
   148    52    51    1
   149    52    54   am
   150    64    63    1
   151    43    40    1
   152    35    32    1
   153    51    48    1
   154    40    39    1
   155    40    41    1
   156    61    55    1
   157    33    39   am
   158    33    32    1
   159    87    85   ar
   160    67    69   ar
   161    67    66    1
   162    59    56    1
   163    32    31    1
   164    80    82   ar
   165    83    85   ar
   166    83    82   ar
   167    63    66    1
   168    63    62    1
   169    55    56    1
   170    55    49   am
   171    41    42    2
   172    56    57    1
   173    48    47    1
   174    48    49    1
   175    49    50    2
   176    57    58    2
