@<TRIPOS>MOLECULE
tmp/6fdcA00.pdb
 240 235 0 0 0
SMALL
GASTEIGER

@<TRIPOS>ATOM
      1  N         24.8830  235.7140  142.3030 N.3    77  TYR77      -0.1227
      2  CA        25.7340  234.5710  141.9980 C.3    77  TYR77       0.1736
      3  C         24.9410  233.4310  141.3650 C.2    77  TYR77       0.2595
      4  O         25.2850  232.9640  140.2830 O.2    77  TYR77      -0.2718
      5  CB        26.4750  234.0840  143.2510 C.3    77  TYR77       0.0548
      6  CG        27.4040  232.9230  142.9680 C.ar   77  TYR77      -0.0200
      7  CD1       26.9440  231.6080  143.0220 C.ar   77  TYR77      -0.0009
      8  CD2       28.7250  233.1390  142.6350 C.ar   77  TYR77      -0.0009
      9  CE1       27.7710  230.5510  142.7620 C.ar   77  TYR77       0.0417
     10  CE2       29.5800  232.0770  142.3770 C.ar   77  TYR77       0.0417
     11  CZ        29.0950  230.7820  142.4350 C.ar   77  TYR77       0.1957
     12  OH        29.9160  229.7070  142.1720 O.3    77  TYR77      -0.2866
     13  N         23.8910  232.9750  142.0460 N.am   78  HIS78      -0.1975
     14  CA        23.1530  231.8040  141.5920 C.3    78  HIS78       0.1656
     15  C         22.1600  232.1200  140.4980 C.2    78  HIS78       0.2291
     16  O         20.9540  231.9850  140.6690 O.2    78  HIS78      -0.2864
     17  CB        22.4810  231.1190  142.7780 C.3    78  HIS78       0.0771
     18  CG        23.4440  230.3800  143.6440 C.ar   78  HIS78       0.0820
     19  ND1       23.8350  230.8370  144.8830 N.ar   78  HIS78      -0.2267
     20  CD2       24.1220  229.2240  143.4330 C.ar   78  HIS78       0.1154
     21  CE1       24.7090  229.9910  145.4030 C.ar   78  HIS78       0.1986
     22  NE2       24.8930  228.9980  144.5470 N.ar   78  HIS78      -0.2212
     23  N         16.8740  229.3420  141.9960 N.3   122  HIS122     -0.1241
     24  CA        17.5450  229.6430  143.2570 C.3   122  HIS122      0.1621
     25  C         17.1400  231.0360  143.7510 C.2   122  HIS122      0.2264
     26  O         17.2310  232.0070  143.0050 O.2   122  HIS122     -0.2867
     27  CB        19.0660  229.5630  143.0770 C.3   122  HIS122      0.0745
     28  CG        19.8230  229.3600  144.3560 C.ar  122  HIS122      0.0817
     29  ND1       19.8280  230.2900  145.3770 N.ar  122  HIS122     -0.2268
     30  CD2       20.6320  228.3480  144.7620 C.ar  122  HIS122      0.1154
     31  CE1       20.5820  229.8430  146.3690 C.ar  122  HIS122      0.1986
     32  NE2       21.0810  228.6680  146.0200 N.ar  122  HIS122     -0.2212
     33  N         19.2500  232.5680  148.7570 N.3   125  VAL125     -0.1231
     34  CA        19.4560  232.2920  150.1690 C.3   125  VAL125      0.1692
     35  C         19.6950  230.8020  150.3560 C.2   125  VAL125      0.2593
     36  O         19.3290  229.9950  149.4970 O.2   125  VAL125     -0.2718
     37  CB        18.2670  232.7690  151.0430 C.3   125  VAL125      0.0266
     38  CG1       18.1800  234.2960  151.0550 C.3   125  VAL125      0.0020
     39  CG2       16.9680  232.1520  150.5730 C.3   125  VAL125      0.0020
     40  N         20.3160  230.4440  151.4720 N.am  126  SER126     -0.1938
     41  CA        20.7810  229.0870  151.7260 C.3   126  SER126      0.2055
     42  C         19.6670  228.1680  152.2180 C.2   126  SER126      0.2643
     43  O         18.6090  228.6310  152.6550 O.2   126  SER126     -0.2714
     44  CB        21.8660  229.1370  152.7940 C.3   126  SER126      0.2130
     45  OG        21.3070  229.5210  154.0420 O.3   126  SER126     -0.2179
     46  N         19.9290  226.8600  152.1740 N.am  127  ASN127     -0.1957
     47  CA        19.0170  225.8950  152.7770 C.3   127  ASN127      0.1819
     48  C         18.7470  226.2340  154.2330 C.2   127  ASN127      0.2621
     49  O         17.6050  226.2210  154.6760 O.2   127  ASN127     -0.2715
     50  CB        19.5820  224.4830  152.6870 C.3   127  ASN127      0.1195
     51  CG        19.3160  223.8450  151.3500 C.2   127  ASN127      0.2630
     52  OD1       18.3210  224.1480  150.7080 O.2   127  ASN127     -0.2716
     53  ND2       20.2010  222.9630  150.9220 N.am  127  ASN127     -0.0877
     54  N         19.8010  226.5540  154.9760 N.am  128  GLN128     -0.1977
     55  CA        19.6150  226.8350  156.3940 C.3   128  GLN128      0.1601
     56  C         18.7330  228.0670  156.6280 C.2   128  GLN128      0.2287
     57  O         17.9300  228.0840  157.5490 O.2   128  GLN128     -0.2864
     58  CB        20.9560  226.9900  157.1150 C.3   128  GLN128      0.0394
     59  CG        20.7990  226.9510  158.6310 C.3   128  GLN128      0.0908
     60  CD        20.3120  225.6030  159.1180 C.2   128  GLN128      0.2608
     61  OE1       20.9120  224.5700  158.8160 O.2   128  GLN128     -0.2717
     62  NE2       19.2110  225.6000  159.8600 N.am  128  GLN128     -0.0878
     63  N         16.7470  223.1660  148.6390 N.3   147  LEU147     -0.1245
     64  CA        16.9770  223.7970  147.3520 C.3   147  LEU147      0.1561
     65  C         17.1840  222.7810  146.2330 C.2   147  LEU147      0.2260
     66  O         16.6440  222.9300  145.1430 O.2   147  LEU147     -0.2867
     67  CB        18.1860  224.7230  147.4110 C.3   147  LEU147      0.0270
     68  CG        18.0510  226.0240  148.2000 C.3   147  LEU147      0.0019
     69  CD1       19.4370  226.5220  148.5930 C.3   147  LEU147      0.0001
     70  CD2       17.3680  227.0470  147.3490 C.3   147  LEU147      0.0001
     71  N         25.7390  221.2540  149.5150 N.3   191  MET191     -0.1245
     72  CA        27.0350  221.4050  150.1620 C.3   191  MET191      0.1570
     73  C         27.1350  220.6430  151.4780 C.2   191  MET191      0.2261
     74  O         28.2280  220.3330  151.9440 O.2   191  MET191     -0.2867
     75  CB        27.3750  222.8920  150.3700 C.3   191  MET191      0.0387
     76  CG        27.4160  223.7450  149.0960 C.3   191  MET191      0.0595
     77  SD        28.6830  223.2670  147.9020 S.3   191  MET191     -0.1393
     78  CE        29.8990  222.5290  148.9870 C.3   191  MET191      0.0692
     79  N         30.8840  222.7920  140.1220 N.3   236  ASP236     -0.1225
     80  CA        30.1550  223.7560  140.9540 C.3   236  ASP236      0.1805
     81  C         31.1370  224.5360  141.8410 C.2   236  ASP236      0.2597
     82  O         30.9450  225.7320  142.1010 O.2   236  ASP236     -0.2718
     83  CB        29.1580  222.9610  141.8100 C.3   236  ASP236      0.1424
     84  CG        27.9620  223.7650  142.2820 C.2   236  ASP236      0.3668
     85  OD1       27.6230  224.8400  141.7340 O.co2 236  ASP236     -0.2456
     86  OD2       27.2830  223.2240  143.1910 O.co2 236  ASP236     -0.2456
     87  N         32.2180  223.8730  142.2590 N.am  237  LEU237     -0.1979
     88  CA        33.2360  224.4630  143.1350 C.3   237  LEU237      0.1596
     89  C         34.5090  224.7980  142.3550 C.2   237  LEU237      0.2287
     90  O         35.6240  224.6550  142.8710 O.2   237  LEU237     -0.2864
     91  CB        33.5600  223.5260  144.3050 C.3   237  LEU237      0.0297
     92  CG        32.4380  223.3500  145.3300 C.3   237  LEU237      0.0022
     93  CD1       32.8310  222.3760  146.4270 C.3   237  LEU237      0.0001
     94  CD2       32.0870  224.7150  145.9080 C.3   237  LEU237      0.0001
     95  N         35.2420  227.8360  140.7360 N.3   239  ASN239     -0.1226
     96  CA        35.6100  229.2500  140.5850 C.3   239  ASN239      0.1770
     97  C         37.0660  229.5490  140.9620 C.2   239  ASN239      0.2439
     98  O         37.7570  230.2510  140.2170 O.2   239  ASN239     -0.2733
     99  CB        34.7080  230.2070  141.3950 C.3   239  ASN239      0.1168
    100  CG        33.2230  230.1530  141.0140 C.2   239  ASN239      0.2627
    101  OD1       32.3840  230.5410  141.8260 O.2   239  ASN239     -0.2716
    102  ND2       32.9000  229.7040  139.8110 N.am  239  ASN239     -0.0877
    103  N         37.5290  229.0490  142.1170 N.am  240  PRO240     -0.2729
    104  CA        38.8930  229.4170  142.5290 C.3   240  PRO240      0.1401
    105  C         39.9750  228.7700  141.6760 C.2   240  PRO240      0.2269
    106  O         41.1510  229.1120  141.8490 O.2   240  PRO240     -0.2865
    107  CB        38.9740  228.9160  143.9780 C.3   240  PRO240      0.0296
    108  CG        37.5260  228.8490  144.4350 C.3   240  PRO240      0.0237
    109  CD        36.8070  228.3510  143.1950 C.3   240  PRO240      0.0939
    110  N         37.7100  234.3720  138.6400 N.3   247  TYR247     -0.1241
    111  CA        37.6040  234.1200  140.0700 C.3   247  TYR247      0.1605
    112  C         37.3010  235.3940  140.8720 C.2   247  TYR247      0.2264
    113  O         36.4360  235.4020  141.7520 O.2   247  TYR247     -0.2867
    114  CB        38.8860  233.4280  140.5600 C.3   247  TYR247      0.0534
    115  CG        38.9430  233.0380  142.0220 C.ar  247  TYR247     -0.0201
    116  CD1       37.7830  232.8170  142.7730 C.ar  247  TYR247     -0.0009
    117  CD2       40.1760  232.8610  142.6540 C.ar  247  TYR247     -0.0009
    118  CE1       37.8600  232.4570  144.1170 C.ar  247  TYR247      0.0417
    119  CE2       40.2610  232.5050  143.9770 C.ar  247  TYR247      0.0417
    120  CZ        39.1030  232.3060  144.7200 C.ar  247  TYR247      0.1957
    121  OH        39.2050  231.9540  146.0440 O.3   247  TYR247     -0.2866
    122  N         33.6470  236.1600  140.3720 N.3   250  TRP250     -0.1227
    123  CA        32.7780  235.2280  141.0690 C.3   250  TRP250      0.1737
    124  C         32.7480  235.5390  142.5600 C.2   250  TRP250      0.2596
    125  O         31.7010  235.4510  143.2020 O.2   250  TRP250     -0.2718
    126  CB        33.2240  233.7770  140.8430 C.3   250  TRP250      0.0564
    127  CG        32.9450  233.2690  139.4580 C.ar  250  TRP250      0.0003
    128  CD1       33.8710  232.7880  138.5560 C.ar  250  TRP250      0.0946
    129  CD2       31.6640  233.1670  138.8060 C.ar  250  TRP250      0.0152
    130  NE1       33.2370  232.4010  137.4000 N.ar  250  TRP250     -0.2442
    131  CE2       31.8920  232.6390  137.5180 C.ar  250  TRP250      0.0810
    132  CE3       30.3550  233.5000  139.1770 C.ar  250  TRP250      0.0012
    133  CZ2       30.8590  232.4060  136.6130 C.ar  250  TRP250      0.0191
    134  CZ3       29.3200  233.2710  138.2610 C.ar  250  TRP250      0.0001
    135  CH2       29.5860  232.7330  136.9970 C.ar  250  TRP250      0.0015
    136  N         33.9010  235.9010  143.1150 N.am  251  THR251     -0.1953
    137  CA        33.9810  236.2230  144.5240 C.3   251  THR251      0.1897
    138  C         33.1460  237.4540  144.8490 C.2   251  THR251      0.2313
    139  O         32.3980  237.4550  145.8260 O.2   251  THR251     -0.2863
    140  CB        35.4480  236.3920  144.9640 C.3   251  THR251      0.1794
    141  OG1       36.1170  235.1350  144.8010 O.3   251  THR251     -0.2208
    142  CG2       35.5500  236.8470  146.4260 C.3   251  THR251      0.0378
    143  N         29.3960  236.2560  144.7870 N.3   254  ILE254     -0.1231
    144  CA        28.9210  235.4580  145.9130 C.3   254  ILE254      0.1692
    145  C         28.8350  236.3000  147.1740 C.2   254  ILE254      0.2591
    146  O         27.9240  236.1280  147.9840 O.2   254  ILE254     -0.2718
    147  CB        29.7640  234.1730  146.1400 C.3   254  ILE254      0.0266
    148  CG1       29.0000  233.1820  147.0330 C.3   254  ILE254      0.0019
    149  CG2       31.1380  234.5060  146.7310 C.3   254  ILE254      0.0020
    150  CD1       27.7010  232.6480  146.4260 C.3   254  ILE254      0.0001
    151  N         29.7780  237.2200  147.3460 N.am  255  MET255     -0.1979
    152  CA        29.7270  238.0750  148.5250 C.3   255  MET255      0.1605
    153  C         28.5200  239.0020  148.4930 C.2   255  MET255      0.2287
    154  O         27.8670  239.2120  149.5150 O.2   255  MET255     -0.2864
    155  CB        31.0220  238.8710  148.6830 C.3   255  MET255      0.0413
    156  CG        32.2400  237.9980  148.9620 C.3   255  MET255      0.0598
    157  SD        32.0560  236.7890  150.2970 S.3   255  MET255     -0.1393
    158  CE        31.4680  237.8050  151.6540 C.3   255  MET255      0.0692
    159  N         25.6790  238.2900  147.0980 N.3   257  GLU257     -0.1231
    160  CA        24.5470  237.4440  147.4130 C.3   257  GLU257      0.1699
    161  C         24.4900  237.1040  148.9040 C.2   257  GLU257      0.2592
    162  O         23.4210  237.2020  149.5280 O.2   257  GLU257     -0.2718
    163  CB        24.6060  236.1800  146.5580 C.3   257  GLU257      0.0402
    164  CG        23.4120  235.2610  146.7510 C.3   257  GLU257      0.1161
    165  CD        23.3550  234.1480  145.7210 C.2   257  GLU257      0.3649
    166  OE1       23.6090  234.4040  144.5300 O.co2 257  GLU257     -0.2457
    167  OE2       23.0070  233.0280  146.1320 O.co2 257  GLU257     -0.2457
    168  N         25.6290  236.7330  149.4850 N.am  258  PHE258     -0.1976
    169  CA        25.6960  236.4250  150.9070 C.3   258  PHE258      0.1639
    170  C         25.2800  237.6370  151.7410 C.2   258  PHE258      0.2290
    171  O         24.5360  237.5030  152.7140 O.2   258  PHE258     -0.2864
    172  CB        27.1070  235.9950  151.3210 C.3   258  PHE258      0.0560
    173  CG        27.4580  234.5630  150.9720 C.ar  258  PHE258     -0.0200
    174  CD1       26.5960  233.7610  150.2370 C.ar  258  PHE258     -0.0042
    175  CD2       28.6580  234.0310  151.3970 C.ar  258  PHE258     -0.0042
    176  CE1       26.9430  232.4500  149.9280 C.ar  258  PHE258     -0.0003
    177  CE2       28.9970  232.7150  151.1010 C.ar  258  PHE258     -0.0003
    178  CZ        28.1370  231.9390  150.3580 C.ar  258  PHE258     -0.0000
    179  N         21.6580  238.1330  151.9340 N.3   261  GLN261     -0.1245
    180  CA        21.0270  237.2160  152.8730 C.3   261  GLN261      0.1566
    181  C         21.2140  237.6890  154.3070 C.2   261  GLN261      0.2260
    182  O         20.2940  237.6330  155.1200 O.2   261  GLN261     -0.2867
    183  CB        21.5750  235.7910  152.7380 C.3   261  GLN261      0.0367
    184  CG        21.0180  234.8440  153.8190 C.3   261  GLN261      0.0905
    185  CD        21.5310  233.4290  153.7070 C.2   261  GLN261      0.2608
    186  OE1       21.6600  232.8980  152.6040 O.2   261  GLN261     -0.2717
    187  NE2       21.8510  232.8220  154.8450 N.am  261  GLN261     -0.0878
    188  N         24.3420  234.7100  159.3490 N.3   273  SER273     -0.1203
    189  CA        25.0940  233.5150  158.9630 C.3   273  SER273      0.2005
    190  C         26.5510  233.8350  158.7060 C.2   273  SER273      0.2461
    191  O         26.8840  234.9620  158.3610 O.2   273  SER273     -0.2732
    192  CB        24.4920  232.8580  157.7180 C.3   273  SER273      0.2103
    193  OG        23.2290  232.2800  158.0050 O.3   273  SER273     -0.2182
    194  N         27.4240  232.8340  158.8680 N.am  274  PRO274     -0.2717
    195  CA        28.8490  233.0140  158.5770 C.3   274  PRO274      0.1535
    196  C         29.0620  233.6140  157.1940 C.2   274  PRO274      0.2598
    197  O         28.4600  233.1540  156.2100 O.2   274  PRO274     -0.2715
    198  CB        29.3890  231.5810  158.6020 C.3   274  PRO274      0.0310
    199  CG        28.4600  230.8430  159.5030 C.3   274  PRO274      0.0237
    200  CD        27.1060  231.4550  159.2840 C.3   274  PRO274      0.0939
    201  N         29.8970  234.6500  157.1350 N.am  275  MET275     -0.1964
    202  CA        30.2930  235.3000  155.8870 C.3   275  MET275      0.1736
    203  C         29.1930  236.1480  155.2550 C.2   275  MET275      0.2616
    204  O         29.3430  236.6380  154.1340 O.2   275  MET275     -0.2715
    205  CB        30.7890  234.2710  154.8760 C.3   275  MET275      0.0427
    206  CG        31.7400  233.2580  155.4620 C.3   275  MET275      0.0599
    207  SD        32.6590  232.6080  154.0790 S.3   275  MET275     -0.1393
    208  CE        33.1240  234.2000  153.4010 C.3   275  MET275      0.0692
    209  N         28.0870  236.3290  155.9660 N.am  276  CYS276     -0.1968
    210  CA        26.9750  237.1000  155.4020 C.3   276  CYS276      0.1712
    211  C         26.8000  238.4960  155.9950 C.2   276  CYS276      0.2296
    212  O         25.8540  239.1810  155.6480 O.2   276  CYS276     -0.2864
    213  CB        25.6540  236.3380  155.5340 C.3   276  CYS276      0.0983
    214  SG        25.6100  234.8180  154.5740 S.3   276  CYS276     -0.0798
    215  N         38.4380  234.8440  153.9150 N.3   286  SER286     -0.1202
    216  CA        37.4240  233.8100  153.7440 C.3   286  SER286      0.2020
    217  C         37.6430  232.9810  152.4800 C.2   286  SER286      0.2618
    218  O         37.3840  231.7790  152.4810 O.2   286  SER286     -0.2717
    219  CB        36.0280  234.4260  153.7530 C.3   286  SER286      0.2103
    220  OG        35.6820  234.8320  155.0680 O.3   286  SER286     -0.2182
    221  N         38.1200  233.6070  151.4130 N.am  287  GLN287     -0.1979
    222  CA        38.4890  232.8660  150.2110 C.3   287  GLN287      0.1601
    223  C         39.6550  231.9280  150.4800 C.2   287  GLN287      0.2287
    224  O         39.6630  230.7900  150.0010 O.2   287  GLN287     -0.2864
    225  CB        38.8350  233.7980  149.0490 C.3   287  GLN287      0.0394
    226  CG        37.6220  234.3790  148.3340 C.3   287  GLN287      0.0908
    227  CD        36.6100  233.2990  147.9710 C.2   287  GLN287      0.2608
    228  OE1       36.9320  232.3370  147.2740 O.2   287  GLN287     -0.2717
    229  NE2       35.3840  233.4420  148.4660 N.am  287  GLN287     -0.0878
    230  N         38.2110  229.0400  152.3360 N.3   290  PHE290     -0.1241
    231  CA        37.3960  228.2540  151.3960 C.3   290  PHE290      0.1605
    232  C         38.2960  227.3090  150.6050 C.2   290  PHE290      0.2264
    233  O         38.0060  226.1170  150.4710 O.2   290  PHE290     -0.2867
    234  CB        36.6640  229.2270  150.4690 C.3   290  PHE290      0.0534
    235  CG        35.7150  228.5840  149.4800 C.ar  290  PHE290     -0.0203
    236  CD1       34.8520  227.5750  149.8680 C.ar  290  PHE290     -0.0042
    237  CD2       35.6550  229.0450  148.1720 C.ar  290  PHE290     -0.0042
    238  CE1       33.9550  227.0270  148.9530 C.ar  290  PHE290     -0.0003
    239  CE2       34.7730  228.5010  147.2610 C.ar  290  PHE290     -0.0003
    240  CZ        33.9220  227.4870  147.6580 C.ar  290  PHE290     -0.0000
@<TRIPOS>BOND
     1   133   135   ar
     2   133   131   ar
     3   135   134   ar
     4   130   131   ar
     5   130   128   ar
     6   131   129   ar
     7   134   132   ar
     8   128   127   ar
     9   110   111    1
    10   129   132   ar
    11   129   127   ar
    12   127   126    1
    13   102   100   am
    14   111   114    1
    15   111   112    1
    16    79    80    1
    17    98    97    2
    18     4     3    2
    19   122   123    1
    20    15    16    2
    21    15    14    1
    22   114   115    1
    23    96    95    1
    24    96    97    1
    25    96    99    1
    26   126   123    1
    27   112   113    2
    28    80    83    1
    29    80    81    1
    30    97   103   am
    31   100    99    1
    32   100   101    2
    33   123   124    1
    34     3     2    1
    35     3    13   am
    36    14    13    1
    37    14    17    1
    38   105   106    2
    39   105   104    1
    40    85    84   ar
    41    83    84    1
    42    81    82    2
    43    81    87   am
    44    23    24    1
    45     2     1    1
    46     2     5    1
    47   115   117   ar
    48   115   116   ar
    49   103   104    1
    50   103   109    1
    51    12    11    1
    52    87    88    1
    53    84    86   ar
    54    89    90    2
    55    89    88    1
    56    10    11   ar
    57    10     8   ar
    58    11     9   ar
    59   104   107    1
    60   124   136   am
    61   124   125    2
    62     8     6   ar
    63   117   119   ar
    64     9     7   ar
    65   116   118   ar
    66    17    18    1
    67     6     7   ar
    68     6     5    1
    69    26    25    2
    70    27    24    1
    71    27    28    1
    72   136   137    1
    73    88    91    1
    74   109   108    1
    75    24    25    1
    76    20    18   ar
    77    20    22   ar
    78    18    19   ar
    79   119   120   ar
    80   107   108    1
    81   118   120   ar
    82    91    92    1
    83    28    30   ar
    84    28    29   ar
    85   137   138    1
    86   137   140    1
    87   166   165   ar
    88    22    21   ar
    89   120   121    1
    90    30    32   ar
    91   143   144    1
    92   141   140    1
    93   138   139    2
    94    19    21   ar
    95   140   142    1
    96    66    65    2
    97    92    94    1
    98    92    93    1
    99    29    31   ar
   100   165   167   ar
   101   165   164    1
   102   144   147    1
   103   144   145    1
   104    32    31   ar
   105   147   149    1
   106   147   148    1
   107    65    64    1
   108   150   148    1
   109   163   164    1
   110   163   160    1
   111   159   160    1
   112   145   151   am
   113   145   146    2
   114   239   240   ar
   115   239   237   ar
   116   228   227    2
   117   151   152    1
   118    70    68    1
   119    64    67    1
   120    64    63    1
   121    67    68    1
   122   160   161    1
   123   240   238   ar
   124    77    78    1
   125    77    76    1
   126   227   226    1
   127   227   229   am
   128   237   235   ar
   129    68    69    1
   130   226   225    1
   131   153   152    1
   132   153   154    2
   133   152   155    1
   134   155   156    1
   135    33    34    1
   136   161   168   am
   137   161   162    2
   138   238   236   ar
   139   156   157    1
   140   225   222    1
   141    76    75    1
   142   235   236   ar
   143   235   234    1
   144   168   169    1
   145    36    35    2
   146    71    72    1
   147   176   174   ar
   148   176   178   ar
   149   224   223    2
   150    72    75    1
   151    72    73    1
   152    34    35    1
   153    34    37    1
   154   222   223    1
   155   222   221    1
   156   174   173   ar
   157   157   158    1
   158    35    40   am
   159   178   177   ar
   160   234   231    1
   161   233   232    2
   162    39    37    1
   163   232   231    1
   164    52    51    2
   165   169   172    1
   166   169   170    1
   167    53    51   am
   168   173   172    1
   169   173   175   ar
   170    37    38    1
   171   177   175   ar
   172    51    50    1
   173   231   230    1
   174   221   217   am
   175    40    41    1
   176    73    74    2
   177    41    42    1
   178    41    44    1
   179   170   171    2
   180   179   180    1
   181    46    42   am
   182    46    47    1
   183    42    43    2
   184   217   218    2
   185   217   216    1
   186   186   185    2
   187    50    47    1
   188   183   180    1
   189   183   184    1
   190    47    48    1
   191    44    45    1
   192   180   181    1
   193   208   207    1
   194   185   184    1
   195   185   187   am
   196   216   219    1
   197   216   215    1
   198   219   220    1
   199   207   206    1
   200   204   203    2
   201    48    49    2
   202    48    54   am
   203   181   182    2
   204   214   213    1
   205   205   206    1
   206   205   202    1
   207    54    55    1
   208   203   202    1
   209   203   209   am
   210   210   213    1
   211   210   209    1
   212   210   211    1
   213   212   211    2
   214   202   201    1
   215   197   196    2
   216    55    56    1
   217    55    58    1
   218    56    57    2
   219    58    59    1
   220   201   196   am
   221   196   195    1
   222   192   193    1
   223   192   189    1
   224   191   190    2
   225   195   198    1
   226   195   194    1
   227   198   199    1
   228    59    60    1
   229   190   194   am
   230   190   189    1
   231    61    60    2
   232   194   200    1
   233   189   188    1
   234    60    62   am
   235   200   199    1
