@<TRIPOS>MOLECULE
tmp/6fdfA00.pdb
 179 173 0 0 0
SMALL
GASTEIGER

@<TRIPOS>ATOM
      1  N        -37.0110   21.5760  106.7800 N.3     8  TYR8       -0.1227
      2  CA       -38.0760   21.7810  105.7910 C.3     8  TYR8        0.1736
      3  C        -38.9750   20.5420  105.7410 C.2     8  TYR8        0.2596
      4  O        -39.1850   19.9310  104.6900 O.2     8  TYR8       -0.2718
      5  CB       -37.5170   22.0880  104.3880 C.3     8  TYR8        0.0548
      6  CG       -36.4240   23.1420  104.2650 C.ar    8  TYR8       -0.0200
      7  CD1      -35.0780   22.7980  104.3760 C.ar    8  TYR8       -0.0009
      8  CD2      -36.7370   24.4680  103.9730 C.ar    8  TYR8       -0.0009
      9  CE1      -34.0770   23.7480  104.2280 C.ar    8  TYR8        0.0417
     10  CE2      -35.7390   25.4300  103.8330 C.ar    8  TYR8        0.0417
     11  CZ       -34.4120   25.0580  103.9540 C.ar    8  TYR8        0.1957
     12  OH       -33.4160   25.9860  103.7850 O.3     8  TYR8       -0.2866
     13  N        -39.4980   20.1760  106.9150 N.am    9  SER9       -0.1938
     14  CA       -40.0590   18.8410  107.1060 C.3     9  SER9        0.2055
     15  C        -41.4070   18.6430  106.4190 C.2     9  SER9        0.2644
     16  O        -41.7550   17.5050  106.0840 O.2     9  SER9       -0.2714
     17  CB       -40.2080   18.5480  108.5950 C.3     9  SER9        0.2130
     18  OG       -40.6770   19.6870  109.2960 O.3     9  SER9       -0.2179
     19  N        -42.1780   19.7070  106.2130 N.am   10  GLY10      -0.1939
     20  CA       -43.4680   19.5390  105.5510 C.3    10  GLY10       0.2014
     21  C        -44.3480   18.5670  106.3190 C.2    10  GLY10       0.2639
     22  O        -44.4530   18.6320  107.5480 O.2    10  GLY10      -0.2714
     23  N        -44.9700   17.6270  105.6040 N.am   11  ILE11      -0.1963
     24  CA       -45.8090   16.6420  106.2800 C.3    11  ILE11       0.1727
     25  C        -45.0060   15.3830  106.5910 C.2    11  ILE11       0.2617
     26  O        -45.5730   14.3520  106.9670 O.2    11  ILE11      -0.2715
     27  CB       -47.0650   16.3030  105.4570 C.3    11  ILE11       0.0290
     28  CG1      -46.6770   15.6940  104.1060 C.3    11  ILE11       0.0022
     29  CG2      -47.9410   17.5350  105.2760 C.3    11  ILE11       0.0023
     30  CD1      -47.8680   15.2510  103.2740 C.3    11  ILE11       0.0001
     31  N        -43.6830   15.4640  106.4870 N.am   12  GLY12      -0.1940
     32  CA       -42.8460   14.3720  106.9460 C.3    12  GLY12       0.2014
     33  C        -42.5370   13.2950  105.9320 C.2    12  GLY12       0.2639
     34  O        -42.3330   12.1360  106.3230 O.2    12  GLY12      -0.2714
     35  N        -42.4960   13.6370  104.6420 N.am   13  GLY13      -0.1939
     36  CA       -42.0840   12.6620  103.6440 C.3    13  GLY13       0.2014
     37  C        -40.7760   11.9780  103.9930 C.2    13  GLY13       0.2638
     38  O        -40.6450   10.7630  103.8330 O.2    13  GLY13      -0.2714
     39  N        -39.7880   12.7470  104.4790 N.am   14  MET14      -0.1976
     40  CA       -38.4920   12.1580  104.8250 C.3    14  MET14       0.1605
     41  C        -38.6260   11.1410  105.9500 C.2    14  MET14       0.2287
     42  O        -37.9810   10.0850  105.9250 O.2    14  MET14      -0.2864
     43  CB       -37.4890   13.2450  105.2270 C.3    14  MET14       0.0413
     44  CG       -37.0750   14.2200  104.1370 C.3    14  MET14       0.0598
     45  SD       -36.0630   13.4180  102.8680 S.3    14  MET14      -0.1393
     46  CE       -35.6380   14.8340  101.8600 C.3    14  MET14       0.0692
     47  N        -38.2650   20.6410  111.4040 N.3    31  ILE31      -0.1231
     48  CA       -38.3890   22.0970  111.4050 C.3    31  ILE31       0.1692
     49  C        -39.1240   22.5430  110.1530 C.2    31  ILE31       0.2592
     50  O        -38.7040   22.2280  109.0320 O.2    31  ILE31      -0.2718
     51  CB       -37.0180   22.7800  111.4980 C.3    31  ILE31       0.0266
     52  CG1      -36.3180   22.3710  112.7960 C.3    31  ILE31       0.0019
     53  CG2      -37.1850   24.2870  111.4510 C.3    31  ILE31       0.0020
     54  CD1      -35.0050   23.0790  113.0290 C.3    31  ILE31       0.0001
     55  N        -40.2070   23.2940  110.3450 N.am   32  ASP32      -0.1960
     56  CA       -40.9400   23.8900  109.2380 C.3    32  ASP32       0.1840
     57  C        -41.6310   25.1410  109.7550 C.2    32  ASP32       0.2622
     58  O        -42.0780   25.1930  110.9040 O.2    32  ASP32      -0.2715
     59  CB       -41.9530   22.9050  108.6320 C.3    32  ASP32       0.1450
     60  CG       -42.3590   23.2750  107.2120 C.2    32  ASP32       0.3671
     61  OD1      -42.9430   24.3640  107.0210 O.co2  32  ASP32      -0.2456
     62  OD2      -42.0860   22.4750  106.2870 O.co2  32  ASP32      -0.2456
     63  N        -41.7220   26.1480  108.8860 N.am   33  ILE33      -0.1963
     64  CA       -42.3510   27.4150  109.2460 C.3    33  ILE33       0.1727
     65  C        -43.8610   27.3840  109.0520 C.2    33  ILE33       0.2616
     66  O        -44.5640   28.2670  109.5680 O.2    33  ILE33      -0.2715
     67  CB       -41.6960   28.5440  108.4240 C.3    33  ILE33       0.0290
     68  CG1      -41.9460   29.9100  109.0590 C.3    33  ILE33       0.0022
     69  CG2      -42.1810   28.5040  106.9730 C.3    33  ILE33       0.0023
     70  CD1      -41.2400   31.0380  108.3410 C.3    33  ILE33       0.0001
     71  N        -44.3830   26.3820  108.3470 N.am   34  ASN34      -0.1972
     72  CA       -45.7980   26.3100  108.0070 C.3    34  ASN34       0.1688
     73  C        -46.5280   25.5690  109.1210 C.2    34  ASN34       0.2292
     74  O        -46.3530   24.3490  109.2560 O.2    34  ASN34      -0.2864
     75  CB       -45.9770   25.5950  106.6670 C.3    34  ASN34       0.1181
     76  CG       -47.4340   25.5230  106.2060 C.2    34  ASN34       0.2629
     77  OD1      -48.3630   25.4980  107.0060 O.2    34  ASN34      -0.2716
     78  ND2      -47.6260   25.4840  104.8970 N.am   34  ASN34      -0.0877
     79  N        -48.4500   22.3980  107.9770 N.3    37  ALA37      -0.1245
     80  CA       -47.5920   21.2300  107.7920 C.3    37  ALA37       0.1562
     81  C        -47.2580   20.5960  109.1340 C.2    37  ALA37       0.2260
     82  O        -47.3130   19.3690  109.2920 O.2    37  ALA37      -0.2867
     83  CB       -46.3130   21.6260  107.0570 C.3    37  ALA37       0.0290
     84  N        -40.0510   27.1450  113.2490 N.3    52  MET52      -0.1230
     85  CA       -38.8130   27.9040  113.3340 C.3    52  MET52       0.1702
     86  C        -38.3570   28.2780  111.9310 C.2    52  MET52       0.2592
     87  O        -38.4570   27.4700  111.0070 O.2    52  MET52      -0.2718
     88  CB       -37.7360   27.0950  114.0630 C.3    52  MET52       0.0401
     89  CG       -36.3450   27.6760  114.0060 C.3    52  MET52       0.0596
     90  SD       -35.2770   26.9750  115.2770 S.3    52  MET52      -0.1393
     91  CE       -36.2010   25.5200  115.7800 C.3    52  MET52       0.0692
     92  N        -37.8680   29.5090  111.7880 N.am   53  ASP53      -0.1960
     93  CA       -37.3040   29.9890  110.5300 C.3    53  ASP53       0.1840
     94  C        -35.8830   29.4500  110.4120 C.2    53  ASP53       0.2621
     95  O        -35.0000   29.8350  111.1860 O.2    53  ASP53      -0.2715
     96  CB       -37.3340   31.5160  110.4960 C.3    53  ASP53       0.1450
     97  CG       -36.7390   32.1000  109.2230 C.2    53  ASP53       0.3671
     98  OD1      -36.3270   31.3400  108.3190 O.co2  53  ASP53      -0.2456
     99  OD2      -36.6800   33.3440  109.1330 O.co2  53  ASP53      -0.2456
    100  N        -35.6540   28.5700  109.4330 N.am   54  ILE54      -0.1977
    101  CA       -34.3480   27.9380  109.2700 C.3    54  ILE54       0.1596
    102  C        -33.2470   28.9610  109.0260 C.2    54  ILE54       0.2287
    103  O        -32.0800   28.7070  109.3440 O.2    54  ILE54      -0.2864
    104  CB       -34.4580   26.8820  108.1470 C.3    54  ILE54       0.0276
    105  CG1      -35.2150   25.6650  108.6840 C.3    54  ILE54       0.0022
    106  CG2      -33.0890   26.4720  107.5900 C.3    54  ILE54       0.0022
    107  CD1      -35.6660   24.6800  107.6330 C.3    54  ILE54       0.0001
    108  N        -35.1710   19.6460  102.1690 N.3    73  SER73      -0.1203
    109  CA       -35.7900   19.9310  100.8750 C.3    73  SER73       0.2005
    110  C        -35.9360   21.4460  100.8160 C.2    73  SER73       0.2461
    111  O        -37.0270   21.9950  101.0320 O.2    73  SER73      -0.2732
    112  CB       -37.1280   19.2040  100.7140 C.3    73  SER73       0.2103
    113  OG       -37.5980   19.2990   99.3750 O.3    73  SER73      -0.2182
    114  N        -34.8440   22.1610  100.5540 N.am   74  PRO74      -0.2717
    115  CA       -34.8520   23.6130  100.7520 C.3    74  PRO74       0.1535
    116  C        -35.6470   24.3410   99.6800 C.2    74  PRO74       0.2599
    117  O        -35.9800   23.7990   98.6240 O.2    74  PRO74      -0.2715
    118  CB       -33.3670   23.9910  100.6930 C.3    74  PRO74       0.0310
    119  CG       -32.7310   22.8900   99.8920 C.3    74  PRO74       0.0237
    120  CD       -33.4910   21.6470  100.2690 C.3    74  PRO74       0.0939
    121  N        -35.9600   25.5930   99.9820 N.am   75  SER75      -0.1950
    122  CA       -36.6790   26.4820   99.0760 C.3    75  SER75       0.1924
    123  C        -35.6240   27.3670   98.4280 C.2    75  SER75       0.2314
    124  O        -35.1040   28.2930   99.0560 O.2    75  SER75      -0.2863
    125  CB       -37.7280   27.2990   99.8260 C.3    75  SER75       0.2116
    126  OG       -38.2790   28.3090   98.9970 O.3    75  SER75      -0.2180
    127  N        -36.0300   36.3680  104.7540 N.3    91  PRO91      -0.2102
    128  CA       -35.1280   35.2420  104.4750 C.3    91  PRO91       0.1504
    129  C        -35.9010   34.0960  103.8390 C.2    91  PRO91       0.2575
    130  O        -36.6410   33.3700  104.5100 O.2    91  PRO91      -0.2718
    131  CB       -34.6050   34.8750  105.8660 C.3    91  PRO91       0.0282
    132  CG       -34.6410   36.1440  106.6270 C.3    91  PRO91       0.0208
    133  CD       -35.8470   36.8960  106.1180 C.3    91  PRO91       0.0893
    134  N        -35.7050   33.9190  102.5320 N.am   92  ARG92      -0.1980
    135  CA       -36.3780   32.8980  101.7370 C.3    92  ARG92       0.1597
    136  C        -35.4480   31.7280  101.4780 C.2    92  ARG92       0.2287
    137  O        -35.4750   30.7020  102.1660 O.2    92  ARG92      -0.2864
    138  CB       -36.8100   33.4730  100.3890 C.3    92  ARG92       0.0334
    139  CG       -36.4800   34.9590  100.1380 C.3    92  ARG92       0.0492
    140  CD       -34.9520   35.2520  100.1550 C.3    92  ARG92       0.2205
    141  NE       -34.4890   36.4590   99.4590 N.pl3  92  ARG92      -0.0865
    142  CZ       -35.1160   37.6340   99.3840 C.cat  92  ARG92       0.5346
    143  NH1      -36.2730   37.8610   99.9950 N.pl3  92  ARG92       0.1354
    144  NH2      -34.5510   38.6180   98.7000 N.pl3  92  ARG92       0.1354
    145  N        -32.3850   31.0240  103.9430 N.3    95  ALA95      -0.1245
    146  CA       -32.3480   29.8900  104.8570 C.3    95  ALA95       0.1562
    147  C        -31.3880   28.8080  104.3740 C.2    95  ALA95       0.2260
    148  O        -30.6280   28.2550  105.1760 O.2    95  ALA95      -0.2867
    149  CB       -33.7520   29.3070  105.0190 C.3    95  ALA95       0.0290
    150  N        -50.0430   20.9100  100.2740 N.3   302  LEU302     -0.1245
    151  CA       -48.9290   20.3120  100.9980 C.3   302  LEU302      0.1561
    152  C        -48.3280   19.1600  100.2040 C.2   302  LEU302      0.2260
    153  O        -47.1040   18.9990  100.1560 O.2   302  LEU302     -0.2867
    154  CB       -49.4000   19.8320  102.3730 C.3   302  LEU302      0.0270
    155  CG       -49.8750   20.9220  103.3360 C.3   302  LEU302      0.0019
    156  CD1      -50.4320   20.3200  104.6280 C.3   302  LEU302      0.0001
    157  CD2      -48.7300   21.8840  103.6300 C.3   302  LEU302      0.0001
    158  N        -45.9440   20.0230   97.2290 N.3   305  ASN305     -0.1225
    159  CA       -44.5740   20.3690   97.5860 C.3   305  ASN305      0.1785
    160  C        -43.8230   19.2370   98.2740 C.2   305  ASN305      0.2598
    161  O        -42.7470   19.4730   98.8300 O.2   305  ASN305     -0.2718
    162  CB       -44.5660   21.5900   98.5080 C.3   305  ASN305      0.1169
    163  CG       -44.9230   22.8550   97.7890 C.2   305  ASN305      0.2627
    164  OD1      -44.6040   23.0210   96.6120 O.2   305  ASN305     -0.2716
    165  ND2      -45.5850   23.7700   98.4920 N.am  305  ASN305     -0.0877
    166  N        -44.3580   18.0190   98.2520 N.am  306  SER306     -0.1938
    167  CA       -43.7800   16.8970   98.9780 C.3   306  SER306      0.2055
    168  C        -42.8810   16.0580   98.0740 C.2   306  SER306      0.2642
    169  O        -42.9470   16.1300   96.8450 O.2   306  SER306     -0.2714
    170  CB       -44.8820   16.0120   99.5700 C.3   306  SER306      0.2130
    171  OG       -45.6530   16.7180  100.5260 O.3   306  SER306     -0.2179
    172  N        -42.0340   15.2470   98.7080 N.am  307  ILE307     -0.1977
    173  CA       -41.1520   14.3410   97.9800 C.3   307  ILE307      0.1596
    174  C        -41.9350   13.1190   97.5350 C.2   307  ILE307      0.2287
    175  O        -43.0720   12.9040   97.9700 O.2   307  ILE307     -0.2864
    176  CB       -39.9640   13.9110   98.8570 C.3   307  ILE307      0.0276
    177  CG1      -40.4900   13.1420  100.0820 C.3   307  ILE307      0.0022
    178  CG2      -39.1390   15.1160   99.2530 C.3   307  ILE307      0.0022
    179  CD1      -39.4550   12.3420  100.8210 C.3   307  ILE307      0.0001
@<TRIPOS>BOND
     1   164   163    2
     2   169   168    2
     3   158   159    1
     4   174   175    2
     5   174   173    1
     6   159   160    1
     7   159   162    1
     8   163   165   am
     9   163   162    1
    10   173   172    1
    11   173   176    1
    12   168   172   am
    13   168   167    1
    14   166   160   am
    15   166   167    1
    16   160   161    2
    17   123   124    2
    18   123   122    1
    19   117   116    2
    20   144   142    1
    21   176   178    1
    22   176   177    1
    23   167   170    1
    24   126   125    1
    25   122   125    1
    26   122   121    1
    27   113   112    1
    28   142   141    2
    29   142   143    1
    30   141   140    1
    31   170   171    1
    32   116   121   am
    33   116   115    1
    34   119   120    1
    35   119   118    1
    36   177   179    1
    37   139   140    1
    38   139   138    1
    39   153   152    2
    40   152   151    1
    41   120   114    1
    42   150   151    1
    43   138   135    1
    44   114   115    1
    45   114   110   am
    46   118   115    1
    47   112   109    1
    48   110   109    1
    49   110   111    2
    50   109   108    1
    51   151   154    1
    52   136   135    1
    53   136   137    2
    54   135   134    1
    55    46    45    1
    56   154   155    1
    57   134   129   am
    58    45    44    1
    59    30    28    1
    60   155   157    1
    61   155   156    1
    62    36    37    1
    63    36    35    1
    64    12    11    1
    65    10    11   ar
    66    10     8   ar
    67    38    37    2
    68   129   128    1
    69   129   130    2
    70   145   146    1
    71    11     9   ar
    72     8     6   ar
    73    37    39   am
    74    28    27    1
    75    44    43    1
    76     9     7   ar
    77     6     7   ar
    78     6     5    1
    79   147   146    1
    80   147   148    2
    81     5     2    1
    82   128   127    1
    83   128   131    1
    84    39    40    1
    85    35    33   am
    86     4     3    2
    87   127   133    1
    88    40    43    1
    89    40    41    1
    90   146   149    1
    91    78    76   am
    92    29    27    1
    93    27    24    1
    94    20    19    1
    95    20    21    1
    96    23    24    1
    97    23    21   am
    98     3     2    1
    99     3    13   am
   100     2     1    1
   101   131   132    1
   102    42    41    2
   103    33    34    2
   104    33    32    1
   105    16    15    2
   106   133   132    1
   107    76    75    1
   108    76    77    2
   109    19    15   am
   110    24    25    1
   111    62    60   ar
   112    21    22    2
   113    15    14    1
   114    31    25   am
   115    31    32    1
   116    25    26    2
   117    75    72    1
   118    13    14    1
   119    69    67    1
   120    61    60   ar
   121    83    80    1
   122    14    17    1
   123    60    59    1
   124   106   104    1
   125   107   105    1
   126    80    79    1
   127    80    81    1
   128    72    71    1
   129    72    73    1
   130   104   105    1
   131   104   101    1
   132    98    97   ar
   133    70    68    1
   134    71    65   am
   135    67    68    1
   136    67    64    1
   137    17    18    1
   138    59    56    1
   139    63    64    1
   140    63    57   am
   141   102   101    1
   142   102   103    2
   143    50    49    2
   144    65    64    1
   145    65    66    2
   146    73    74    2
   147    99    97   ar
   148    81    82    2
   149    97    96    1
   150    56    57    1
   151    56    55    1
   152   101   100    1
   153   100    94   am
   154    57    58    2
   155    49    55   am
   156    49    48    1
   157    94    93    1
   158    94    95    2
   159    96    93    1
   160    93    92    1
   161    87    86    2
   162    47    48    1
   163    48    51    1
   164    53    51    1
   165    51    52    1
   166    92    86   am
   167    86    85    1
   168    52    54    1
   169    84    85    1
   170    85    88    1
   171    89    88    1
   172    89    90    1
   173    90    91    1
