@<TRIPOS>MOLECULE
tmp/6fdmA00.pdb
 146 138 0 0 0
SMALL
GASTEIGER

@<TRIPOS>ATOM
      1  N         48.2820   14.3440  186.1260 N.3    92  ASN92      -0.1240
      2  CA        48.6750   15.1450  184.9820 C.3    92  ASN92       0.1653
      3  C         49.3130   14.2850  183.8860 C.2    92  ASN92       0.2266
      4  O         49.9880   13.2930  184.1920 O.2    92  ASN92      -0.2867
      5  CB        49.6860   16.2070  185.4540 C.3    92  ASN92       0.1155
      6  CG        49.2100   17.0580  186.6360 C.2    92  ASN92       0.2627
      7  OD1       49.9420   17.2940  187.6130 O.2    92  ASN92      -0.2716
      8  ND2       47.9600   17.5060  186.5980 N.am   92  ASN92      -0.0877
      9  N         52.1090   13.6570  181.6200 N.3    94  MET94      -0.1230
     10  CA        53.4810   14.0750  181.7260 C.3    94  MET94       0.1702
     11  C         54.1910   14.2230  180.4100 C.2    94  MET94       0.2592
     12  O         54.9880   15.1460  180.2700 O.2    94  MET94      -0.2718
     13  CB        54.2510   13.2880  182.7840 C.3    94  MET94       0.0401
     14  CG        54.2380   11.8170  182.6020 C.3    94  MET94       0.0596
     15  SD        55.2100   11.1330  183.9490 S.3    94  MET94      -0.1393
     16  CE        54.6580    9.5010  183.9190 C.3    94  MET94       0.0692
     17  N         53.8350   13.4030  179.4330 N.am   95  GLY95      -0.1957
     18  CA        54.4570   13.4540  178.1200 C.3    95  GLY95       0.1869
     19  C         53.7880   12.5840  177.0830 C.2    95  GLY95       0.2309
     20  O         52.6140   12.2200  177.2020 O.2    95  GLY95      -0.2863
     21  N         51.3860    9.7000  178.1000 N.3   102  ILE102     -0.1245
     22  CA        51.9620    9.2560  179.3670 C.3   102  ILE102      0.1561
     23  C         51.4170   10.0890  180.5170 C.2   102  ILE102      0.2260
     24  O         51.4480   11.3140  180.4360 O.2   102  ILE102     -0.2867
     25  CB        53.5130    9.2820  179.3380 C.3   102  ILE102      0.0252
     26  CG1       54.0680    8.6520  178.0180 C.3   102  ILE102      0.0019
     27  CG2       54.0780    8.5790  180.6010 C.3   102  ILE102      0.0019
     28  CD1       55.6260    8.8230  177.7880 C.3   102  ILE102      0.0001
     29  N         50.9660   10.2240  185.1150 N.3   104  ILE104     -0.1245
     30  CA        51.3370    9.7420  186.4450 C.3   104  ILE104      0.1561
     31  C         50.0260    9.2280  187.0060 C.2   104  ILE104      0.2260
     32  O         48.9800    9.8740  186.8460 O.2   104  ILE104     -0.2867
     33  CB        51.9590   10.8140  187.4020 C.3   104  ILE104      0.0252
     34  CG1       53.2770   11.3770  186.8490 C.3   104  ILE104      0.0019
     35  CG2       52.2310   10.2110  188.7900 C.3   104  ILE104      0.0019
     36  CD1       53.7500   12.7010  187.5400 C.3   104  ILE104      0.0001
     37  N         53.7840    5.1140  186.2360 N.3   114  ALA114     -0.1245
     38  CA        53.5670    5.7350  184.9520 C.3   114  ALA114      0.1562
     39  C         52.5130    4.9210  184.2220 C.2   114  ALA114      0.2260
     40  O         52.5120    3.6890  184.2990 O.2   114  ALA114     -0.2867
     41  CB        54.8620    5.7780  184.1530 C.3   114  ALA114      0.0290
     42  N         50.8160    4.5050  180.3910 N.3   116  LYS116     -0.1245
     43  CA        50.9040    4.8090  178.9780 C.3   116  LYS116      0.1561
     44  C         49.6190    4.3550  178.3070 C.2   116  LYS116      0.2260
     45  O         49.2760    3.1800  178.3730 O.2   116  LYS116     -0.2867
     46  CB        52.1340    4.1610  178.3280 C.3   116  LYS116      0.0271
     47  CG        53.4390    4.8340  178.7670 C.3   116  LYS116      0.0035
     48  CD        54.6590    4.3410  177.9860 C.3   116  LYS116      0.0206
     49  CE        54.7480    4.9040  176.5810 C.3   116  LYS116      0.1093
     50  NZ        55.8400    4.2680  175.8050 N.3   116  LYS116     -0.1314
     51  N         61.5680    0.6640  182.3050 N.3   153  PRO153     -0.2116
     52  CA        60.7880    0.6350  183.5470 C.3   153  PRO153      0.1372
     53  C         60.3020   -0.7890  183.8480 C.2   153  PRO153      0.2244
     54  O         60.1180   -1.5720  182.9290 O.2   153  PRO153     -0.2868
     55  CB        59.5780    1.5400  183.2360 C.3   153  PRO153      0.0268
     56  CG        59.9510    2.3280  182.0430 C.3   153  PRO153      0.0207
     57  CD        60.8570    1.4120  181.2490 C.3   153  PRO153      0.0892
     58  N         53.4450    0.9390  184.5030 N.3   165  MET165     -0.1230
     59  CA        54.8460    0.6050  184.7150 C.3   165  MET165      0.1702
     60  C         55.4310    1.4770  185.7970 C.2   165  MET165      0.2595
     61  O         54.8030    2.4450  186.2250 O.2   165  MET165     -0.2718
     62  CB        55.6430    0.8030  183.4030 C.3   165  MET165      0.0401
     63  CG        55.6980    2.2530  182.9620 C.3   165  MET165      0.0596
     64  SD        56.0870    2.4880  181.2160 S.3   165  MET165     -0.1393
     65  CE        54.6230    1.8070  180.4790 C.3   165  MET165      0.0692
     66  N         56.6640    1.1720  186.1670 N.am  166  GLU166     -0.1920
     67  CA        57.4620    1.9000  187.1530 C.3   166  GLU166      0.1949
     68  C         57.6290    3.3550  186.7150 C.2   166  GLU166      0.2659
     69  O         57.8950    3.6050  185.5520 O.2   166  GLU166     -0.2711
     70  CB        58.8490    1.2400  187.2220 C.2   166  GLU166      0.0111
     71  CG        59.8230    1.8870  188.1930 C.2   166  GLU166      0.0838
     72  CD        61.2600    1.4180  188.0850 C.2   166  GLU166      0.3877
     73  OE1       61.5470    0.4770  187.3100 O.co2 166  GLU166     -0.2406
     74  OE2       62.1070    1.9970  188.7990 O.co2 166  GLU166     -0.2406
     75  N         57.4480    4.2980  187.6360 N.am  167  LEU167     -0.1961
     76  CA        57.6720    5.7140  187.3600 C.3   167  LEU167      0.1728
     77  C         59.1660    5.9680  187.5910 C.2   167  LEU167      0.2616
     78  O         59.6530    5.7530  188.6930 O.2   167  LEU167     -0.2715
     79  CB        56.8560    6.5800  188.3290 C.3   167  LEU167      0.0311
     80  CG        57.0130    8.1010  188.1910 C.3   167  LEU167      0.0022
     81  CD1       56.4510    8.5560  186.8880 C.3   167  LEU167      0.0001
     82  CD2       56.2580    8.8330  189.2930 C.3   167  LEU167      0.0001
     83  N         59.8920    6.3900  186.5520 N.am  168  ILE168     -0.1963
     84  CA        61.3240    6.6750  186.6580 C.3   168  ILE168      0.1727
     85  C         61.4820    8.0570  187.2650 C.2   168  ILE168      0.2616
     86  O         60.8080    8.9670  186.8350 O.2   168  ILE168     -0.2715
     87  CB        62.0350    6.5570  185.2770 C.3   168  ILE168      0.0290
     88  CG1       61.7630    5.1750  184.6040 C.3   168  ILE168      0.0022
     89  CG2       63.5580    6.8710  185.3940 C.3   168  ILE168      0.0023
     90  CD1       62.2070    3.8870  185.4860 C.3   168  ILE168      0.0001
     91  N         62.3480    8.2200  188.2640 N.am  169  ASN169     -0.1958
     92  CA        62.5820    9.5250  188.8360 C.3   169  ASN169      0.1819
     93  C         63.6260   10.2560  188.0120 C.2   169  ASN169      0.2622
     94  O         64.8000   10.1720  188.3040 O.2   169  ASN169     -0.2715
     95  CB        62.9540    9.4110  190.3140 C.3   169  ASN169      0.1195
     96  CG        61.8320    8.9110  191.1910 C.2   169  ASN169      0.2630
     97  OD1       60.6670    9.3190  191.0760 O.2   169  ASN169     -0.2716
     98  ND2       62.1670    8.0280  192.1050 N.am  169  ASN169     -0.0877
     99  N         63.1860   10.9420  186.9720 N.am  170  GLY170     -0.1940
    100  CA        64.0610   11.6850  186.0700 C.3   170  GLY170      0.2014
    101  C         63.3030   12.4850  185.0340 C.2   170  GLY170      0.2639
    102  O         62.1060   12.6630  185.1680 O.2   170  GLY170     -0.2714
    103  N         63.9800   12.9750  184.0040 N.am  171  TYR171     -0.1960
    104  CA        63.3750   13.7950  182.9560 C.3   171  TYR171      0.1756
    105  C         63.8240   13.3310  181.6100 C.2   171  TYR171      0.2461
    106  O         64.9540   12.8620  181.5270 O.2   171  TYR171     -0.2730
    107  CB        63.7490   15.2860  183.1450 C.3   171  TYR171      0.0574
    108  CG        63.2600   15.8220  184.4690 C.ar  171  TYR171     -0.0198
    109  CD1       61.9150   16.1340  184.6630 C.ar  171  TYR171     -0.0009
    110  CD2       64.1150   15.9190  185.5600 C.ar  171  TYR171     -0.0009
    111  CE1       61.4290   16.5070  185.9130 C.ar  171  TYR171      0.0417
    112  CE2       63.6530   16.3490  186.8000 C.ar  171  TYR171      0.0417
    113  CZ        62.3050   16.6320  186.9740 C.ar  171  TYR171      0.1957
    114  OH        61.8220   17.0130  188.1960 O.3   171  TYR171     -0.2866
    115  N         63.0240   13.5060  180.5210 N.am  172  PRO172     -0.2727
    116  CA        63.5300   13.1170  179.2040 C.3   172  PRO172      0.1402
    117  C         64.7100   13.9890  178.8840 C.2   172  PRO172      0.2269
    118  O         64.7640   15.1560  179.3030 O.2   172  PRO172     -0.2865
    119  CB        62.3540   13.3630  178.2410 C.3   172  PRO172      0.0296
    120  CG        61.3940   14.1740  178.9670 C.3   172  PRO172      0.0237
    121  CD        61.6680   14.0790  180.4270 C.3   172  PRO172      0.0939
    122  N         64.5240   17.6540  177.7640 N.3   175  GLN175     -0.1245
    123  CA        64.2900   18.7170  178.7560 C.3   175  GLN175      0.1566
    124  C         65.5360   19.0490  179.5910 C.2   175  GLN175      0.2260
    125  O         65.4750   19.9400  180.4380 O.2   175  GLN175     -0.2867
    126  CB        63.1020   18.3660  179.6660 C.3   175  GLN175      0.0367
    127  CG        61.7670   18.1890  178.9200 C.3   175  GLN175      0.0905
    128  CD        61.2410   19.4200  178.1900 C.2   175  GLN175      0.2608
    129  OE1       60.8910   20.4510  178.7970 O.2   175  GLN175     -0.2717
    130  NE2       61.1160   19.3090  176.8650 N.am  175  GLN175     -0.0878
    131  N         65.0610    8.7320  179.4240 N.3   212  ILE212     -0.1245
    132  CA        64.9260    9.4580  180.6810 C.3   212  ILE212      0.1561
    133  C         66.2320    9.4250  181.4470 C.2   212  ILE212      0.2260
    134  O         66.8170    8.3610  181.6150 O.2   212  ILE212     -0.2867
    135  CB        63.7540    8.9050  181.5440 C.3   212  ILE212      0.0252
    136  CG1       62.4140    8.8100  180.7650 C.3   212  ILE212      0.0019
    137  CG2       63.6040    9.6680  182.8650 C.3   212  ILE212      0.0019
    138  CD1       61.8600   10.0780  180.1560 C.3   212  ILE212      0.0001
    139  N         62.0180    4.3780  177.5810 N.3   222  ILE222     -0.1245
    140  CA        60.5810    4.3250  177.9590 C.3   222  ILE222      0.1561
    141  C         59.5660    4.1610  176.8080 C.2   222  ILE222      0.2260
    142  O         58.3590    4.1210  177.0630 O.2   222  ILE222     -0.2867
    143  CB        60.1920    5.5530  178.8570 C.3   222  ILE222      0.0252
    144  CG1       60.3220    6.8880  178.0650 C.3   222  ILE222      0.0019
    145  CG2       60.9600    5.5560  180.1890 C.3   222  ILE222      0.0019
    146  CD1       59.3980    7.9720  178.4140 C.3   222  ILE222      0.0001
@<TRIPOS>BOND
     1    50    49    1
     2    49    48    1
     3   141   142    2
     4   141   140    1
     5   130   128   am
     6    19    20    2
     7    19    18    1
     8   139   140    1
     9   122   123    1
    10    28    26    1
    11   140   143    1
    12    48    47    1
    13    26    25    1
    14   144   146    1
    15   144   143    1
    16    21    22    1
    17    18    17    1
    18   128   129    2
    19   128   127    1
    20   119   120    1
    21   119   116    1
    22    44    45    2
    23    44    43    1
    24    46    47    1
    25    46    43    1
    26   123   124    1
    27   123   126    1
    28   143   145    1
    29   117   116    1
    30   117   118    2
    31   127   126    1
    32   120   121    1
    33    43    42    1
    34   116   115    1
    35    25    22    1
    36    25    27    1
    37    22    23    1
    38   131   132    1
    39    17    11   am
    40   124   125    2
    41   138   136    1
    42    12    11    2
    43    11    10    1
    44   121   115    1
    45    24    23    2
    46    65    64    1
    47   115   105   am
    48   132   133    1
    49   132   135    1
    50   136   135    1
    51    64    63    1
    52    57    56    1
    53    57    51    1
    54   133   134    2
    55   106   105    2
    56   135   137    1
    57   105   104    1
    58     9    10    1
    59    10    13    1
    60    56    55    1
    61    51    52    1
    62    14    13    1
    63    14    15    1
    64    54    53    2
    65   104   107    1
    66   104   103    1
    67    63    62    1
    68   107   108    1
    69    55    52    1
    70    62    59    1
    71    52    53    1
    72     3     4    2
    73     3     2    1
    74    16    15    1
    75   103   101   am
    76    41    38    1
    77    39    40    2
    78    39    38    1
    79   108   109   ar
    80   108   110   ar
    81    58    59    1
    82    88    87    1
    83    88    90    1
    84   109   111   ar
    85    59    60    1
    86    38    37    1
    87     2     5    1
    88     2     1    1
    89   101   102    2
    90   101   100    1
    91    29    30    1
    92    87    89    1
    93    87    84    1
    94     5     6    1
    95    69    68    2
    96   110   112   ar
    97    60    66   am
    98    60    61    2
    99   111   113   ar
   100   100    99    1
   101    66    67    1
   102    30    31    1
   103    30    33    1
   104    83    84    1
   105    83    77   am
   106     8     6   am
   107     6     7    2
   108    84    85    1
   109    68    67    1
   110    68    75   am
   111   112   113   ar
   112    86    85    2
   113    32    31    2
   114    34    33    1
   115    34    36    1
   116    81    80    1
   117    99    93   am
   118   113   114    1
   119    67    70    1
   120    70    71    2
   121    85    91   am
   122    73    72   ar
   123    76    77    1
   124    76    75    1
   125    76    79    1
   126    33    35    1
   127    77    78    2
   128    93    94    2
   129    93    92    1
   130    72    71    1
   131    72    74   ar
   132    80    79    1
   133    80    82    1
   134    91    92    1
   135    92    95    1
   136    95    96    1
   137    97    96    2
   138    96    98   am
