@<TRIPOS>MOLECULE
tmp/6fdqB00.pdb
 150 149 0 0 0
SMALL
GASTEIGER

@<TRIPOS>ATOM
      1  N        -71.4750  -25.3580   42.5420 N.3    11  ALA11      -0.1231
      2  CA       -71.3840  -24.0180   43.0380 C.3    11  ALA11       0.1694
      3  C        -70.6160  -23.9190   44.3660 C.2    11  ALA11       0.2592
      4  O        -70.9550  -24.6180   45.3200 O.2    11  ALA11      -0.2718
      5  CB       -72.7860  -23.4780   43.2200 C.3    11  ALA11       0.0304
      6  N        -69.5850  -23.0680   44.4030 N.am   12  TRP12      -0.1962
      7  CA       -68.9350  -22.6820   45.6970 C.3    12  TRP12       0.1771
      8  C        -69.6190  -21.4800   46.3260 C.2    12  TRP12       0.2620
      9  O        -69.5880  -20.4050   45.7960 O.2    12  TRP12      -0.2715
     10  CB       -67.4050  -22.4760   45.5620 C.3    12  TRP12       0.0590
     11  CG       -66.5980  -23.7560   45.7190 C.ar   12  TRP12       0.0006
     12  CD1      -67.0650  -25.0610   45.7210 C.ar   12  TRP12       0.0946
     13  CD2      -65.1890  -23.8480   45.9680 C.ar   12  TRP12       0.0152
     14  NE1      -66.0100  -25.9490   45.9210 N.ar   12  TRP12      -0.2442
     15  CE2      -64.8620  -25.2290   46.0780 C.ar   12  TRP12       0.0810
     16  CE3      -64.1820  -22.9050   46.1120 C.ar   12  TRP12       0.0012
     17  CZ2      -63.5880  -25.6550   46.2980 C.ar   12  TRP12       0.0191
     18  CZ3      -62.9270  -23.3270   46.3280 C.ar   12  TRP12       0.0001
     19  CH2      -62.6230  -24.6950   46.4160 C.ar   12  TRP12       0.0015
     20  N        -70.2570  -21.7000   47.4590 N.am   13  ASP13      -0.1957
     21  CA       -70.9920  -20.6550   48.1240 C.3    13  ASP13       0.1840
     22  C        -70.0150  -19.9130   49.0170 C.2    13  ASP13       0.2622
     23  O        -68.8260  -20.1920   48.9670 O.2    13  ASP13      -0.2715
     24  CB       -72.1700  -21.2550   48.9130 C.3    13  ASP13       0.1450
     25  CG       -71.7390  -21.8380   50.2780 C.2    13  ASP13       0.3671
     26  OD1      -70.9180  -22.7880   50.2930 O.co2  13  ASP13      -0.2456
     27  OD2      -72.2070  -21.2990   51.3250 O.co2  13  ASP13      -0.2456
     28  N        -70.5010  -18.9840   49.8220 N.am   14  SER14      -0.1950
     29  CA       -69.6230  -18.1440   50.6120 C.3    14  SER14       0.1924
     30  C        -68.8440  -18.9380   51.7030 C.2    14  SER14       0.2314
     31  O        -67.6930  -18.6220   51.9800 O.2    14  SER14      -0.2863
     32  CB       -70.4610  -17.0390   51.2470 C.3    14  SER14       0.2116
     33  OG       -71.4150  -17.6360   52.1110 O.3    14  SER14      -0.2180
     34  N        -69.8910  -10.4030   45.4120 N.3    93  TRP93      -0.1241
     35  CA       -71.1010  -11.0780   44.9480 C.3    93  TRP93       0.1605
     36  C        -71.8990  -10.1010   44.1080 C.2    93  TRP93       0.2264
     37  O        -72.3550   -9.0560   44.6060 O.2    93  TRP93      -0.2867
     38  CB       -71.9470  -11.5520   46.1180 C.3    93  TRP93       0.0550
     39  CG       -73.0760  -12.4860   45.6940 C.ar   93  TRP93       0.0003
     40  CD1      -73.0080  -13.8390   45.5760 C.ar   93  TRP93       0.0946
     41  CD2      -74.4320  -12.1160   45.3640 C.ar   93  TRP93       0.0152
     42  NE1      -74.2200  -14.3310   45.2630 N.ar   93  TRP93      -0.2442
     43  CE2      -75.1170  -13.3110   45.0960 C.ar   93  TRP93       0.0810
     44  CE3      -75.1160  -10.9040   45.2510 C.ar   93  TRP93       0.0012
     45  CZ2      -76.4810  -13.3510   44.6790 C.ar   93  TRP93       0.0191
     46  CZ3      -76.5050  -10.9420   44.9040 C.ar   93  TRP93       0.0001
     47  CH2      -77.1450  -12.1700   44.5920 C.ar   93  TRP93       0.0015
     48  N        -79.6390  -11.6910   47.0990 N.3   108  MET108     -0.1245
     49  CA       -78.7590  -12.7520   47.5780 C.3   108  MET108      0.1570
     50  C        -79.4830  -13.7090   48.5320 C.2   108  MET108      0.2261
     51  O        -79.4590  -14.9170   48.3340 O.2   108  MET108     -0.2867
     52  CB       -77.5410  -12.1530   48.2840 C.3   108  MET108      0.0387
     53  CG       -76.4470  -13.1510   48.5430 C.3   108  MET108      0.0595
     54  SD       -75.1130  -12.5360   49.5920 S.3   108  MET108     -0.1393
     55  CE       -74.2620  -14.1400   49.7280 C.3   108  MET108      0.0692
     56  N        -82.1250  -15.7360   46.4480 N.3   111  LEU111     -0.1231
     57  CA       -81.5050  -16.8230   45.6990 C.3   111  LEU111      0.1693
     58  C        -80.9540  -17.9960   46.5050 C.2   111  LEU111      0.2591
     59  O        -80.7590  -19.0700   45.9350 O.2   111  LEU111     -0.2718
     60  CB       -80.3920  -16.2790   44.8140 C.3   111  LEU111      0.0284
     61  CG       -80.8640  -15.5230   43.5970 C.3   111  LEU111      0.0019
     62  CD1      -79.6570  -14.8490   42.9480 C.3   111  LEU111      0.0001
     63  CD2      -81.5390  -16.5120   42.6550 C.3   111  LEU111      0.0001
     64  N        -80.6710  -17.7890   47.7950 N.am  112  ALA112     -0.1980
     65  CA       -80.2620  -18.8710   48.7310 C.3   112  ALA112      0.1597
     66  C        -81.4140  -19.8280   48.9330 C.2   112  ALA112      0.2287
     67  O        -81.2410  -21.0320   48.7150 O.2   112  ALA112     -0.2864
     68  CB       -79.8150  -18.3070   50.0770 C.3   112  ALA112      0.0319
     69  N        -82.1010  -21.6720   46.1360 N.3   115  GLY115     -0.1210
     70  CA       -81.0180  -22.6310   46.0440 C.3   115  GLY115      0.1956
     71  C        -80.3970  -22.7430   44.6720 C.2   115  GLY115      0.2613
     72  O        -79.9770  -23.8130   44.2930 O.2   115  GLY115     -0.2717
     73  N        -80.3650  -21.6580   43.9050 N.am  116  SER116     -0.1938
     74  CA       -79.7060  -21.6440   42.6040 C.3   116  SER116      0.2055
     75  C        -78.8240  -20.4120   42.5280 C.2   116  SER116      0.2642
     76  O        -79.0690  -19.4050   43.1990 O.2   116  SER116     -0.2714
     77  CB       -80.7150  -21.6310   41.4280 C.3   116  SER116      0.2130
     78  OG       -80.0570  -21.5050   40.1580 O.3   116  SER116     -0.2179
     79  N        -77.7620  -20.5500   41.7280 N.am  117  VAL117     -0.1977
     80  CA       -77.0530  -19.4360   41.0780 C.3   117  VAL117      0.1596
     81  C        -77.9710  -18.2730   40.6090 C.2   117  VAL117      0.2287
     82  O        -77.7490  -17.1020   40.9670 O.2   117  VAL117     -0.2864
     83  CB       -76.1860  -19.9420   39.8570 C.3   117  VAL117      0.0276
     84  CG1      -76.9910  -20.7670   38.8190 C.3   117  VAL117      0.0022
     85  CG2      -75.4710  -18.7550   39.1400 C.3   117  VAL117      0.0022
     86  N        -76.6380  -14.8690   39.4220 N.3   120  SER120     -0.1202
     87  CA       -75.5990  -14.3980   40.3800 C.3   120  SER120      0.2020
     88  C        -74.1570  -14.8840   40.0940 C.2   120  SER120      0.2619
     89  O        -73.9670  -15.8880   39.4510 O.2   120  SER120     -0.2717
     90  CB       -76.0280  -14.6890   41.7950 C.3   120  SER120      0.2103
     91  OG       -75.8140  -16.0530   42.0630 O.3   120  SER120     -0.2182
     92  N        -73.1720  -14.0990   40.5300 N.am  121  HIS121     -0.1961
     93  CA       -71.7390  -14.2830   40.1450 C.3   121  HIS121      0.1787
     94  C        -70.8090  -13.8590   41.2930 C.2   121  HIS121      0.2620
     95  O        -71.1620  -12.9750   42.1240 O.2   121  HIS121     -0.2715
     96  CB       -71.4250  -13.4000   38.9800 C.3   121  HIS121      0.0785
     97  CG       -70.1740  -13.7300   38.2310 C.ar  121  HIS121      0.0821
     98  ND1      -69.7500  -15.0160   38.0270 N.ar  121  HIS121     -0.2267
     99  CD2      -69.3140  -12.9310   37.5420 C.ar  121  HIS121      0.1154
    100  CE1      -68.6540  -14.9980   37.2880 C.ar  121  HIS121      0.1986
    101  NE2      -68.3480  -13.7420   37.0020 N.ar  121  HIS121     -0.2212
    102  N        -69.6200  -14.4700   41.3130 N.am  122  TRP122     -0.1974
    103  CA       -68.5470  -14.0390   42.2010 C.3   122  TRP122      0.1640
    104  C        -67.4610  -13.4930   41.3540 C.2   122  TRP122      0.2290
    105  O        -67.0280  -14.1080   40.3220 O.2   122  TRP122     -0.2864
    106  CB       -67.9510  -15.1700   42.9870 C.3   122  TRP122      0.0576
    107  CG       -68.8040  -15.7250   44.0110 C.ar  122  TRP122      0.0006
    108  CD1      -69.4840  -16.9120   43.9480 C.ar  122  TRP122      0.0946
    109  CD2      -69.0470  -15.1740   45.2930 C.ar  122  TRP122      0.0152
    110  NE1      -70.1790  -17.1010   45.1140 N.ar  122  TRP122     -0.2442
    111  CE2      -69.8950  -16.0660   45.9720 C.ar  122  TRP122      0.0810
    112  CE3      -68.5820  -14.0470   45.9600 C.ar  122  TRP122      0.0012
    113  CZ2      -70.3120  -15.8480   47.2940 C.ar  122  TRP122      0.0191
    114  CZ3      -69.0340  -13.7990   47.2520 C.ar  122  TRP122      0.0001
    115  CH2      -69.8860  -14.6990   47.9060 C.ar  122  TRP122      0.0015
    116  N        -64.7550  -19.4060   32.3920 N.3   184  GLN184     -0.1245
    117  CA       -65.6840  -20.5100   32.6460 C.3   184  GLN184      0.1566
    118  C        -66.6790  -20.7740   31.5080 C.2   184  GLN184      0.2260
    119  O        -67.8540  -20.9100   31.7790 O.2   184  GLN184     -0.2867
    120  CB       -66.4660  -20.3330   33.9380 C.3   184  GLN184      0.0367
    121  CG       -67.4620  -19.1980   34.0030 C.3   184  GLN184      0.0905
    122  CD       -68.2950  -19.2420   35.2460 C.2   184  GLN184      0.2608
    123  OE1      -69.4170  -19.6930   35.2320 O.2   184  GLN184     -0.2717
    124  NE2      -67.7920  -18.7220   36.2890 N.am  184  GLN184     -0.0878
    125  N        -72.3930  -22.4930   34.3490 N.3   188  GLY188     -0.1210
    126  CA       -72.9930  -21.4000   35.0840 C.3   188  GLY188      0.1956
    127  C        -72.7420  -21.5150   36.5960 C.2   188  GLY188      0.2613
    128  O        -73.2250  -20.6920   37.3590 O.2   188  GLY188     -0.2717
    129  N        -71.9720  -22.5170   37.0190 N.am  189  SER189     -0.1938
    130  CA       -71.8670  -22.8620   38.4240 C.3   189  SER189      0.2055
    131  C        -70.4460  -22.6940   38.9800 C.2   189  SER189      0.2644
    132  O        -70.2820  -22.6520   40.2040 O.2   189  SER189     -0.2714
    133  CB       -72.2790  -24.3270   38.6010 C.3   189  SER189      0.2130
    134  OG       -71.3710  -25.1750   37.8740 O.3   189  SER189     -0.2179
    135  N        -69.4220  -22.5890   38.1120 N.am  190  SER190     -0.1935
    136  CA       -68.0340  -22.8160   38.4960 C.3   190  SER190      0.2055
    137  C        -67.2480  -21.5930   39.0050 C.2   190  SER190      0.2643
    138  O        -66.0250  -21.6530   39.1250 O.2   190  SER190     -0.2714
    139  CB       -67.2810  -23.4180   37.3220 C.3   190  SER190      0.2130
    140  OG       -67.2130  -22.5600   36.2450 O.3   190  SER190     -0.2179
    141  N        -67.9540  -20.5000   39.3180 N.am  191  CYS191     -0.1953
    142  CA       -67.3310  -19.2000   39.3590 C.3   191  CYS191      0.1843
    143  C        -66.5920  -19.0290   40.6690 C.2   191  CYS191      0.2626
    144  O        -65.5460  -18.4750   40.6460 O.2   191  CYS191     -0.2714
    145  CB       -68.3330  -18.0410   39.0880 C.3   191  CYS191      0.0997
    146  SG       -69.4880  -17.6900   40.3130 S.3   191  CYS191     -0.0797
    147  N        -67.1560  -19.4720   41.7830 N.am  192  GLY192     -0.1954
    148  CA       -66.4510  -19.5060   43.0840 C.3   192  GLY192      0.1869
    149  C        -65.1410  -20.2930   42.9950 C.2   192  GLY192      0.2309
    150  O        -64.0760  -19.7400   43.1780 O.2   192  GLY192     -0.2863
@<TRIPOS>BOND
     1   118   119    2
     2   118   117    1
     3   116   117    1
     4   117   120    1
     5   120   121    1
     6   121   122    1
     7   125   126    1
     8   126   127    1
     9   123   122    2
    10   122   124   am
    11   140   139    1
    12   127   129   am
    13   127   128    2
    14   101   100   ar
    15   101    99   ar
    16   129   130    1
    17   100    98   ar
    18   139   136    1
    19    99    97   ar
    20   134   133    1
    21    98    97   ar
    22   135   136    1
    23   135   131   am
    24    97    96    1
    25   130   133    1
    26   130   131    1
    27   136   137    1
    28    84    83    1
    29   131   132    2
    30    96    93    1
    31   137   138    2
    32   137   141   am
    33   145   142    1
    34   145   146    1
    35    85    83    1
    36   141   142    1
    37   142   143    1
    38    86    87    1
    39    89    88    2
    40    83    80    1
    41    88    87    1
    42    88    92   am
    43    93    92    1
    44    93    94    1
    45    78    77    1
    46   105   104    2
    47    87    90    1
    48    81    82    2
    49    81    80    1
    50   144   143    2
    51   143   147   am
    52    80    79    1
    53    94   102   am
    54    94    95    2
    55   102   103    1
    56   104   103    1
    57    77    74    1
    58    79    75   am
    59   147   148    1
    60    90    91    1
    61   103   106    1
    62    75    74    1
    63    75    76    2
    64     1     2    1
    65    74    73    1
    66    63    61    1
    67    62    61    1
    68   106   107    1
    69   149   148    1
    70   149   150    2
    71     2     5    1
    72     2     3    1
    73    61    60    1
    74    73    71   am
    75   108   107   ar
    76   108   110   ar
    77   107   109   ar
    78    36    37    2
    79    36    35    1
    80    72    71    2
    81     3     6   am
    82     3     4    2
    83     6     7    1
    84    47    45   ar
    85    47    46   ar
    86    71    70    1
    87    45    43   ar
    88    60    57    1
    89    46    44   ar
    90    35    34    1
    91    35    38    1
    92    43    42   ar
    93    43    41   ar
    94   110   111   ar
    95    44    41   ar
    96    42    40   ar
    97   109   112   ar
    98   109   111   ar
    99    41    39   ar
   100    10     7    1
   101    10    11    1
   102    40    39   ar
   103    39    38    1
   104     7     8    1
   105    57    56    1
   106    57    58    1
   107    11    12   ar
   108    11    13   ar
   109    12    14   ar
   110     9     8    2
   111    14    15   ar
   112    59    58    2
   113   112   114   ar
   114    13    15   ar
   115    13    16   ar
   116   111   113   ar
   117    70    69    1
   118    15    17   ar
   119    16    18   ar
   120    17    19   ar
   121     8    20   am
   122    18    19   ar
   123    58    64   am
   124    48    49    1
   125   114   115   ar
   126   113   115   ar
   127    20    21    1
   128    49    52    1
   129    49    50    1
   130    64    65    1
   131    21    24    1
   132    21    22    1
   133    52    53    1
   134    51    50    2
   135    53    54    1
   136    67    66    2
   137    65    66    1
   138    65    68    1
   139    24    25    1
   140    23    22    2
   141    22    28   am
   142    54    55    1
   143    28    29    1
   144    25    26   ar
   145    25    27   ar
   146    29    32    1
   147    29    30    1
   148    32    33    1
   149    30    31    2
