@<TRIPOS>MOLECULE
tmp/6fduB00.pdb
 185 181 0 0 0
SMALL
GASTEIGER

@<TRIPOS>ATOM
      1  N        -38.3380  -10.6780  157.5800 N.3     3  ALA3       -0.1231
      2  CA       -37.8140   -9.3180  157.4020 C.3     3  ALA3        0.1694
      3  C        -37.7010   -8.6100  158.7600 C.2     3  ALA3        0.2592
      4  O        -38.6120   -8.7080  159.5950 O.2     3  ALA3       -0.2718
      5  CB       -38.7130   -8.5340  156.5050 C.3     3  ALA3        0.0304
      6  N        -36.6050   -7.8560  158.9120 N.am    4  TRP4       -0.1962
      7  CA       -36.2080   -7.1500  160.1460 C.3     4  TRP4        0.1771
      8  C        -37.0750   -5.9100  160.4290 C.2     4  TRP4        0.2620
      9  O        -36.9620   -4.9000  159.7560 O.2     4  TRP4       -0.2715
     10  CB       -34.7130   -6.7840  160.0700 C.3     4  TRP4        0.0590
     11  CG       -33.8010   -7.9170  160.4400 C.ar    4  TRP4        0.0006
     12  CD1      -34.0930   -9.2470  160.4330 C.ar    4  TRP4        0.0946
     13  CD2      -32.4180   -7.8130  160.8310 C.ar    4  TRP4        0.0152
     14  NE1      -32.9870   -9.9800  160.7830 N.ar    4  TRP4       -0.2442
     15  CE2      -31.9460   -9.1260  161.0340 C.ar    4  TRP4        0.0810
     16  CE3      -31.5220   -6.7490  160.9680 C.ar    4  TRP4        0.0012
     17  CZ2      -30.6370   -9.3890  161.4120 C.ar    4  TRP4        0.0191
     18  CZ3      -30.2390   -7.0150  161.3710 C.ar    4  TRP4        0.0001
     19  CH2      -29.8060   -8.3120  161.5990 C.ar    4  TRP4        0.0015
     20  N        -37.9230   -6.0170  161.4540 N.am    5  ASP5       -0.1957
     21  CA       -38.7750   -4.9240  161.9610 C.3     5  ASP5        0.1840
     22  C        -37.9680   -4.0960  162.9860 C.2     5  ASP5        0.2622
     23  O        -36.8060   -4.3930  163.2470 O.2     5  ASP5       -0.2715
     24  CB       -40.0700   -5.4770  162.5900 C.3     5  ASP5        0.1450
     25  CG       -39.8640   -6.4220  163.7890 C.2     5  ASP5        0.3671
     26  OD1      -38.7660   -6.4150  164.3860 O.co2   5  ASP5       -0.2456
     27  OD2      -40.8050   -7.2000  164.1230 O.co2   5  ASP5       -0.2456
     28  N        -38.6240   -3.1070  163.6170 N.am    6  SER6       -0.1950
     29  CA       -38.0120   -2.2170  164.5640 C.3     6  SER6        0.1924
     30  C        -37.4420   -2.9890  165.7660 C.2     6  SER6        0.2314
     31  O        -36.4270   -2.5980  166.2640 O.2     6  SER6       -0.2863
     32  CB       -38.9340   -1.1080  164.9800 C.3     6  SER6        0.2116
     33  OG       -40.2110   -1.6180  165.2400 O.3     6  SER6       -0.2180
     34  N        -35.9930    2.5350  168.0610 N.3    28  THR28      -0.1203
     35  CA       -36.5920    2.4780  166.7140 C.3    28  THR28       0.1994
     36  C        -38.1330    2.4870  166.7610 C.2    28  THR28       0.2617
     37  O        -38.7330    2.3740  165.7140 O.2    28  THR28      -0.2717
     38  CB       -36.0800    1.2290  165.9700 C.3    28  THR28       0.1784
     39  OG1      -36.3950    0.0630  166.7210 O.3    28  THR28      -0.2211
     40  CG2      -34.5830    1.2260  165.7830 C.3    28  THR28       0.0376
     41  N        -38.6870    2.7010  167.9630 N.am   29  PHE29      -0.1975
     42  CA       -40.1020    2.6380  168.3000 C.3    29  PHE29       0.1639
     43  C        -40.4260    3.7860  169.2620 C.2    29  PHE29       0.2290
     44  O        -40.0490    3.7060  170.4320 O.2    29  PHE29      -0.2864
     45  CB       -40.4210    1.2840  168.9530 C.3    29  PHE29       0.0560
     46  CG       -39.4100    0.8250  169.9860 C.ar   29  PHE29      -0.0200
     47  CD1      -38.2120    0.2510  169.5910 C.ar   29  PHE29      -0.0042
     48  CD2      -39.6130    1.0590  171.3360 C.ar   29  PHE29      -0.0042
     49  CE1      -37.2640   -0.1240  170.5200 C.ar   29  PHE29      -0.0003
     50  CE2      -38.6600    0.6790  172.2630 C.ar   29  PHE29      -0.0003
     51  CZ       -37.4980    0.0630  171.8580 C.ar   29  PHE29      -0.0000
     52  N        -40.0330    5.4410  165.4120 N.3    31  PRO31      -0.2116
     53  CA       -38.7840    5.6890  164.7010 C.3    31  PRO31       0.1372
     54  C        -38.8330    7.1340  164.2290 C.2    31  PRO31       0.2244
     55  O        -39.8610    7.7300  164.2560 O.2    31  PRO31      -0.2868
     56  CB       -38.8140    4.7470  163.5070 C.3    31  PRO31       0.0268
     57  CG       -40.3030    4.5930  163.2200 C.3    31  PRO31       0.0207
     58  CD       -41.0660    4.9200  164.4980 C.3    31  PRO31       0.0892
     59  N        -38.0370    5.4290  159.2250 N.3    85  TRP85      -0.1241
     60  CA       -39.1040    4.7180  158.6090 C.3    85  TRP85       0.1605
     61  C        -39.7840    5.6620  157.6030 C.2    85  TRP85       0.2264
     62  O        -40.2350    6.7020  157.9910 O.2    85  TRP85      -0.2867
     63  CB       -40.0780    4.2570  159.6920 C.3    85  TRP85       0.0550
     64  CG       -41.1020    3.3130  159.1820 C.ar   85  TRP85       0.0003
     65  CD1      -40.9800    1.9610  159.1470 C.ar   85  TRP85       0.0946
     66  CD2      -42.3550    3.6160  158.5480 C.ar   85  TRP85       0.0152
     67  NE1      -42.0870    1.4050  158.5720 N.ar   85  TRP85      -0.2442
     68  CE2      -42.9580    2.3900  158.2140 C.ar   85  TRP85       0.0810
     69  CE3      -43.0310    4.7980  158.2010 C.ar   85  TRP85       0.0012
     70  CZ2      -44.1930    2.3000  157.5750 C.ar   85  TRP85       0.0191
     71  CZ3      -44.2640    4.7040  157.5740 C.ar   85  TRP85       0.0001
     72  CH2      -44.8280    3.4750  157.2640 C.ar   85  TRP85       0.0015
     73  N        -47.8440    3.8320  159.4310 N.3   100  MET100     -0.1230
     74  CA       -46.9670    2.8090  159.9680 C.3   100  MET100      0.1702
     75  C        -47.7530    1.8290  160.8560 C.2   100  MET100      0.2592
     76  O        -47.5980    0.5980  160.7300 O.2   100  MET100     -0.2718
     77  CB       -45.8910    3.5560  160.7580 C.3   100  MET100      0.0401
     78  CG       -44.8250    2.7420  161.4270 C.3   100  MET100      0.0596
     79  SD       -43.7930    3.8610  162.4770 S.3   100  MET100     -0.1393
     80  CE       -44.9590    4.1760  163.8030 C.3   100  MET100      0.0692
     81  N        -48.5990    2.3800  161.7390 N.am  101  LYS101     -0.1980
     82  CA       -49.4980    1.5860  162.6150 C.3   101  LYS101      0.1596
     83  C        -50.4440    0.7320  161.7700 C.2   101  LYS101      0.2287
     84  O        -50.8450   -0.3370  162.2000 O.2   101  LYS101     -0.2864
     85  CB       -50.3640    2.4370  163.5550 C.3   101  LYS101      0.0298
     86  CG       -49.9330    2.5240  165.0150 C.3   101  LYS101      0.0038
     87  CD       -49.0420    1.3970  165.5670 C.3   101  LYS101      0.0206
     88  CE       -49.5300   -0.0490  165.4420 C.3   101  LYS101      0.1093
     89  NZ       -51.0030   -0.2330  165.3780 N.3   101  LYS101     -0.1314
     90  N        -49.9050   -0.4650  158.5120 N.3   103  LEU103     -0.1231
     91  CA       -49.1910   -1.5210  157.8150 C.3   103  LEU103      0.1693
     92  C        -48.7360   -2.5950  158.8160 C.2   103  LEU103      0.2591
     93  O        -48.6270   -3.7620  158.4030 O.2   103  LEU103     -0.2718
     94  CB       -48.0240   -0.9240  157.0150 C.3   103  LEU103      0.0284
     95  CG       -48.4330   -0.1710  155.7360 C.3   103  LEU103      0.0019
     96  CD1      -47.6050    1.0870  155.5500 C.3   103  LEU103      0.0001
     97  CD2      -48.3350   -1.0480  154.4860 C.3   103  LEU103      0.0001
     98  N        -48.5430   -2.2230  160.1030 N.am  104  ALA104     -0.1980
     99  CA       -48.2140   -3.1740  161.2180 C.3   104  ALA104      0.1597
    100  C        -49.2880   -4.2750  161.3950 C.2   104  ALA104      0.2287
    101  O        -48.9670   -5.4560  161.4150 O.2   104  ALA104     -0.2864
    102  CB       -48.0150   -2.4060  162.5050 C.3   104  ALA104      0.0319
    103  N        -51.2600   -5.1040  159.0850 N.3   106  LYS106     -0.1245
    104  CA       -51.6060   -5.5770  157.6970 C.3   106  LYS106      0.1561
    105  C        -50.5680   -6.5470  157.0920 C.2   106  LYS106      0.2260
    106  O        -49.4960   -6.7870  157.6390 O.2   106  LYS106     -0.2867
    107  CB       -51.7800   -4.3740  156.7580 C.3   106  LYS106      0.0271
    108  CG       -53.0540   -3.5570  156.9630 C.3   106  LYS106      0.0035
    109  CD       -54.2900   -4.0680  156.2380 C.3   106  LYS106      0.0206
    110  CE       -54.1960   -3.9860  154.7280 C.3   106  LYS106      0.1093
    111  NZ       -53.9070   -2.6070  154.2770 N.3   106  LYS106     -0.1314
    112  N        -46.6520   -6.6920  150.6850 N.3   109  VAL109     -0.1231
    113  CA       -45.1910   -6.3780  150.9990 C.3   109  VAL109      0.1692
    114  C        -45.0380   -4.8790  151.3540 C.2   109  VAL109      0.2592
    115  O        -44.4140   -4.5190  152.3610 O.2   109  VAL109     -0.2718
    116  CB       -44.2060   -6.8640  149.9060 C.3   109  VAL109      0.0266
    117  CG1      -44.9150   -7.7790  148.9220 C.3   109  VAL109      0.0020
    118  CG2      -43.4380   -5.7520  149.1920 C.3   109  VAL109      0.0020
    119  N        -45.6590   -4.0130  150.5540 N.am  110  GLY110     -0.1957
    120  CA       -45.8970   -2.6290  150.9360 C.3   110  GLY110      0.1869
    121  C        -44.8300   -1.6920  150.3970 C.2   110  GLY110      0.2309
    122  O        -43.7920   -2.1000  149.8930 O.2   110  GLY110     -0.2863
    123  N        -43.3960    0.6740  152.2550 N.3   112  SER112     -0.1202
    124  CA       -42.6150    1.2210  153.3590 C.3   112  SER112      0.2020
    125  C        -41.1490    0.7860  153.2540 C.2   112  SER112      0.2619
    126  O        -40.8030   -0.2000  152.6180 O.2   112  SER112     -0.2717
    127  CB       -43.2050    0.8380  154.6840 C.3   112  SER112      0.2103
    128  OG       -43.1490   -0.5650  154.8400 O.3   112  SER112     -0.2182
    129  N        -40.2920    1.5260  153.9550 N.am  113  HIS113     -0.1961
    130  CA       -38.8840    1.3730  153.7500 C.3   113  HIS113      0.1787
    131  C        -38.0900    1.8830  154.9500 C.2   113  HIS113      0.2620
    132  O        -38.5130    2.7970  155.5830 O.2   113  HIS113     -0.2715
    133  CB       -38.5220    2.1600  152.5010 C.3   113  HIS113      0.0785
    134  CG       -37.1200    2.0140  152.0730 C.ar  113  HIS113      0.0821
    135  ND1      -36.4960    0.7960  152.0300 N.ar  113  HIS113     -0.2267
    136  CD2      -36.2600    2.9080  151.5530 C.ar  113  HIS113      0.1154
    137  CE1      -35.2710    0.9550  151.5500 C.ar  113  HIS113      0.1986
    138  NE2      -35.1020    2.2440  151.2390 N.ar  113  HIS113     -0.2212
    139  N        -36.9200    1.2830  155.1980 N.am  114  TRP114     -0.1974
    140  CA       -35.9900    1.7570  156.1890 C.3   114  TRP114      0.1640
    141  C        -34.8310    2.5080  155.5230 C.2   114  TRP114      0.2290
    142  O        -34.1580    1.9740  154.6340 O.2   114  TRP114     -0.2864
    143  CB       -35.4500    0.5950  157.0220 C.3   114  TRP114      0.0576
    144  CG       -36.4210    0.0270  157.9930 C.ar  114  TRP114      0.0006
    145  CD1      -37.0580   -1.1750  157.8830 C.ar  114  TRP114      0.0946
    146  CD2      -36.8460    0.5980  159.2390 C.ar  114  TRP114      0.0152
    147  NE1      -37.8800   -1.3760  158.9650 N.ar  114  TRP114     -0.2442
    148  CE2      -37.7530   -0.3050  159.8130 C.ar  114  TRP114      0.0810
    149  CE3      -36.5700    1.7860  159.9210 C.ar  114  TRP114      0.0012
    150  CZ2      -38.3740   -0.0480  161.0320 C.ar  114  TRP114      0.0191
    151  CZ3      -37.1960    2.0410  161.1140 C.ar  114  TRP114      0.0001
    152  CH2      -38.1090    1.1440  161.6430 C.ar  114  TRP114      0.0015
    153  N        -32.3530    1.3570  148.2710 N.3   132  LEU132     -0.1245
    154  CA       -33.0720    1.4860  147.0010 C.3   132  LEU132      0.1561
    155  C        -32.5460    2.6930  146.2330 C.2   132  LEU132      0.2260
    156  O        -33.1180    3.0300  145.2600 O.2   132  LEU132     -0.2867
    157  CB       -34.5830    1.5310  147.2470 C.3   132  LEU132      0.0270
    158  CG       -35.1810    0.2650  147.8680 C.3   132  LEU132      0.0019
    159  CD1      -36.6190    0.5030  148.3430 C.3   132  LEU132      0.0001
    160  CD2      -35.1300   -0.9530  146.9290 C.3   132  LEU132      0.0001
    161  N        -30.2470   -3.1320  146.9470 N.3   176  GLN176     -0.1245
    162  CA       -31.3020   -4.1350  147.1720 C.3   176  GLN176      0.1566
    163  C        -32.0670   -4.3180  145.8590 C.2   176  GLN176      0.2260
    164  O        -33.0070   -3.6250  145.6100 O.2   176  GLN176     -0.2867
    165  CB       -32.1800   -3.6570  148.3400 C.3   176  GLN176      0.0367
    166  CG       -33.4760   -4.3990  148.5310 C.3   176  GLN176      0.0905
    167  CD       -34.3070   -3.8490  149.6630 C.2   176  GLN176      0.2608
    168  OE1      -35.4470   -4.2420  149.8390 O.2   176  GLN176     -0.2717
    169  NE2      -33.7790   -2.9400  150.4510 N.am  176  GLN176     -0.0878
    170  N        -37.6570   -7.8840  148.1280 N.3   180  GLY180     -0.1210
    171  CA       -38.6580   -6.9400  148.5810 C.3   180  GLY180      0.1956
    172  C        -38.4850   -6.5290  150.0410 C.2   180  GLY180      0.2612
    173  O        -38.9890   -5.4920  150.4790 O.2   180  GLY180     -0.2717
    174  N        -37.7330   -7.3110  150.8220 N.am  181  SER181     -0.1952
    175  CA       -37.9530   -7.3620  152.2690 C.3   181  SER181      0.1924
    176  C        -36.7010   -7.0090  153.1000 C.2   181  SER181      0.2314
    177  O        -36.7860   -6.9070  154.3030 O.2   181  SER181     -0.2863
    178  CB       -38.4160   -8.7560  152.5500 C.3   181  SER181      0.2116
    179  OG       -37.6580   -9.6250  151.6990 O.3   181  SER181     -0.2180
    180  N        -34.5180   -4.4660  153.6210 N.3   183  CYS183     -0.1235
    181  CA       -33.9800   -3.1050  153.7060 C.3   183  CYS183      0.1677
    182  C        -33.4270   -2.8810  155.1300 C.2   183  CYS183      0.2270
    183  O        -32.3780   -2.3350  155.2870 O.2   183  CYS183     -0.2867
    184  CB       -34.9960   -2.0180  153.3610 C.3   183  CYS183      0.0956
    185  SG       -36.4330   -2.1130  154.3400 S.3   183  CYS183     -0.0801
@<TRIPOS>BOND
     1   156   155    2
     2   164   163    2
     3   163   162    1
     4   155   154    1
     5   160   158    1
     6   161   162    1
     7   154   157    1
     8   154   153    1
     9   162   165    1
    10   157   158    1
    11   158   159    1
    12   170   171    1
    13   165   166    1
    14   166   167    1
    15   171   172    1
    16   117   116    1
    17   118   116    1
    18   167   168    2
    19   167   169   am
    20   122   121    2
    21   116   113    1
    22   172   173    2
    23   172   174   am
    24   121   120    1
    25   119   120    1
    26   119   114   am
    27   112   113    1
    28   174   175    1
    29   113   114    1
    30   138   137   ar
    31   138   136   ar
    32   114   115    2
    33   137   135   ar
    34   136   134   ar
    35   179   178    1
    36   135   134   ar
    37   134   133    1
    38   123   124    1
    39   175   178    1
    40   175   176    1
    41   133   130    1
    42   126   125    2
    43   176   177    2
    44   125   124    1
    45   125   129   am
    46   124   127    1
    47   184   181    1
    48   184   185    1
    49   180   181    1
    50   181   182    1
    51   130   129    1
    52   130   131    1
    53   111   110    1
    54    97    95    1
    55   142   141    2
    56   127   128    1
    57   110   109    1
    58   131   139   am
    59   131   132    2
    60   182   183    2
    61   139   140    1
    62   141   140    1
    63    96    95    1
    64    95    94    1
    65   140   143    1
    66   109   108    1
    67     5     2    1
    68   107   108    1
    69   107   104    1
    70    94    91    1
    71   143   144    1
    72   105   106    2
    73   105   104    1
    74    72    71   ar
    75    72    70   ar
    76     2     1    1
    77     2     3    1
    78    71    69   ar
    79    70    68   ar
    80    61    62    2
    81    61    60    1
    82   104   103    1
    83    91    90    1
    84    91    92    1
    85   145   144   ar
    86   145   147   ar
    87   144   146   ar
    88    69    66   ar
    89    68    66   ar
    90    68    67   ar
    91    93    92    2
    92    66    64   ar
    93    67    65   ar
    94    60    59    1
    95    60    63    1
    96     3     6   am
    97     3     4    2
    98    92    98   am
    99     6     7    1
   100   147   148   ar
   101    65    64   ar
   102    64    63    1
   103   146   148   ar
   104   146   149   ar
   105    73    74    1
   106     9     8    2
   107   148   150   ar
   108   149   151   ar
   109    74    77    1
   110    74    75    1
   111    10     7    1
   112    10    11    1
   113    98    99    1
   114     7     8    1
   115     8    20   am
   116    12    11   ar
   117    12    14   ar
   118    11    13   ar
   119    76    75    2
   120    77    78    1
   121    14    15   ar
   122    13    16   ar
   123    13    15   ar
   124    75    81   am
   125    16    18   ar
   126   150   152   ar
   127    15    17   ar
   128   151   152   ar
   129    99   100    1
   130    99   102    1
   131    18    19   ar
   132   100   101    2
   133    17    19   ar
   134    78    79    1
   135    20    21    1
   136    81    82    1
   137    83    84    2
   138    83    82    1
   139    21    24    1
   140    21    22    1
   141    79    80    1
   142    24    25    1
   143    82    85    1
   144    22    23    2
   145    22    28   am
   146    57    56    1
   147    57    58    1
   148    56    53    1
   149    85    86    1
   150    28    29    1
   151    25    27   ar
   152    25    26   ar
   153    54    55    2
   154    54    53    1
   155    58    52    1
   156    29    32    1
   157    29    30    1
   158    53    52    1
   159    32    33    1
   160    86    87    1
   161    89    88    1
   162    88    87    1
   163    37    36    2
   164    30    31    2
   165    40    38    1
   166    38    35    1
   167    38    39    1
   168    35    36    1
   169    35    34    1
   170    36    41   am
   171    41    42    1
   172    42    45    1
   173    42    43    1
   174    45    46    1
   175    43    44    2
   176    47    46   ar
   177    47    49   ar
   178    46    48   ar
   179    49    51   ar
   180    48    50   ar
   181    51    50   ar
