@<TRIPOS>MOLECULE
tmp/6fdyA00.pdb
 166 153 0 0 0
SMALL
GASTEIGER

@<TRIPOS>ATOM
      1  N         18.4430  183.8190  -48.7240 N.3    10  GLU10      -0.1245
      2  CA        19.4960  184.8310  -48.7460 C.3    10  GLU10       0.1567
      3  C         19.1590  185.8800  -49.8200 C.2    10  GLU10       0.2260
      4  O         18.6140  185.5160  -50.8990 O.2    10  GLU10      -0.2867
      5  CB        20.7700  184.0450  -49.1040 C.3    10  GLU10       0.0388
      6  CG        22.0120  184.6960  -49.5900 C.3    10  GLU10       0.1160
      7  CD        23.1840  183.6930  -49.7410 C.2    10  GLU10       0.3649
      8  OE1       24.0250  184.0560  -50.5130 O.co2  10  GLU10      -0.2457
      9  OE2       23.2780  182.6280  -49.0560 O.co2  10  GLU10      -0.2457
     10  N         20.6220  187.9630  -52.7480 N.3    12  LEU12      -0.1245
     11  CA        21.7920  187.9390  -53.7080 C.3    12  LEU12       0.1561
     12  C         22.1530  189.2930  -54.2950 C.2    12  LEU12       0.2260
     13  O         23.3630  189.6000  -54.4860 O.2    12  LEU12      -0.2867
     14  CB        21.4200  186.9240  -54.8150 C.3    12  LEU12       0.0270
     15  CG        21.3030  185.4730  -54.3850 C.3    12  LEU12       0.0019
     16  CD1       20.7380  184.6390  -55.5140 C.3    12  LEU12       0.0001
     17  CD2       22.6640  184.9230  -53.8870 C.3    12  LEU12       0.0001
     18  N         16.8760  190.2940  -55.7930 N.3    16  VAL16      -0.1245
     19  CA        17.0240  188.8780  -56.1250 C.3    16  VAL16       0.1561
     20  C         17.2890  188.0560  -54.8410 C.2    16  VAL16       0.2260
     21  O         18.1500  188.4150  -54.0700 O.2    16  VAL16      -0.2867
     22  CB        18.1880  188.6610  -57.1160 C.3    16  VAL16       0.0252
     23  CG1       18.3200  187.1950  -57.5550 C.3    16  VAL16       0.0019
     24  CG2       17.9860  189.5300  -58.3850 C.3    16  VAL16       0.0019
     25  N         17.0500  181.1680  -58.0790 N.3    30  ALA30      -0.1245
     26  CA        17.2270  182.5740  -57.8340 C.3    30  ALA30       0.1562
     27  C         15.9590  183.2260  -58.2440 C.2    30  ALA30       0.2260
     28  O         15.5520  183.0510  -59.3570 O.2    30  ALA30      -0.2867
     29  CB        18.4010  183.1680  -58.6790 C.3    30  ALA30       0.0290
     30  N         13.8430  186.6690  -59.0080 N.3    32  LYS32      -0.1245
     31  CA        13.8460  188.0970  -59.2400 C.3    32  LYS32       0.1561
     32  C         12.4960  188.6910  -58.9480 C.2    32  LYS32       0.2260
     33  O         11.5130  188.2630  -59.5430 O.2    32  LYS32      -0.2867
     34  CB        14.3140  188.4480  -60.6760 C.3    32  LYS32       0.0271
     35  CG        14.3520  189.9850  -60.9390 C.3    32  LYS32       0.0035
     36  CD        14.7620  190.3270  -62.3770 C.3    32  LYS32       0.0206
     37  CE        14.8390  191.8310  -62.5380 C.3    32  LYS32       0.1093
     38  NZ        15.4120  192.1960  -63.8500 N.3    32  LYS32      -0.1314
     39  N          8.4720  188.2040  -72.9810 N.3    50  GLU50      -0.1245
     40  CA         9.6570  187.5150  -72.3520 C.3    50  GLU50       0.1567
     41  C          9.2880  186.1140  -71.7590 C.2    50  GLU50       0.2260
     42  O          9.9540  185.0810  -72.0140 O.2    50  GLU50      -0.2867
     43  CB        10.2580  188.4040  -71.2420 C.3    50  GLU50       0.0388
     44  CG        11.4460  187.7940  -70.5730 C.3    50  GLU50       0.1160
     45  CD        12.0440  188.5900  -69.4630 C.2    50  GLU50       0.3649
     46  OE1       11.5950  189.7340  -69.1730 O.co2  50  GLU50      -0.2457
     47  OE2       13.0270  188.0200  -68.9020 O.co2  50  GLU50      -0.2457
     48  N         19.8250  179.9720  -69.2050 N.3    63  VAL63      -0.1245
     49  CA        19.2120  179.8890  -67.8170 C.3    63  VAL63       0.1561
     50  C         17.7360  179.5700  -67.9190 C.2    63  VAL63       0.2260
     51  O         16.9720  180.2950  -68.5640 O.2    63  VAL63      -0.2867
     52  CB        19.4260  181.2080  -66.9930 C.3    63  VAL63       0.0252
     53  CG1       18.8480  181.0370  -65.5810 C.3    63  VAL63       0.0019
     54  CG2       20.8720  181.5970  -66.8950 C.3    63  VAL63       0.0019
     55  N         10.1020  186.1810  -61.1230 N.3    77  LEU77      -0.1245
     56  CA        10.7150  185.2740  -62.1270 C.3    77  LEU77       0.1561
     57  C         11.6460  184.3000  -61.4120 C.2    77  LEU77       0.2260
     58  O         12.6580  184.7330  -60.7910 O.2    77  LEU77      -0.2867
     59  CB        11.5450  186.0690  -63.1530 C.3    77  LEU77       0.0270
     60  CG        10.7440  186.9940  -64.0950 C.3    77  LEU77       0.0019
     61  CD1       10.4790  188.2930  -63.3880 C.3    77  LEU77       0.0001
     62  CD2       11.5670  187.2520  -65.3560 C.3    77  LEU77       0.0001
     63  N         14.2070  181.4960  -61.4270 N.3    79  MET79      -0.1230
     64  CA        15.1920  181.0370  -62.3940 C.3    79  MET79       0.1702
     65  C         16.1340  179.9480  -61.8150 C.2    79  MET79       0.2592
     66  O         16.4450  179.9980  -60.6090 O.2    79  MET79      -0.2718
     67  CB        16.0370  182.2420  -62.8320 C.3    79  MET79       0.0401
     68  CG        15.3540  183.5040  -63.3320 C.3    79  MET79       0.0596
     69  SD        14.2360  183.2240  -64.6960 S.3    79  MET79      -0.1393
     70  CE        15.2480  182.5360  -65.9900 C.3    79  MET79       0.0692
     71  N         16.6820  179.0940  -62.6960 N.am   80  GLU80      -0.1966
     72  CA        17.7200  178.1620  -62.4040 C.3    80  GLU80       0.1733
     73  C         18.8720  178.9050  -61.7210 C.2    80  GLU80       0.2616
     74  O         19.4100  179.8240  -62.3120 O.2    80  GLU80      -0.2715
     75  CB        18.2380  177.5260  -63.7270 C.3    80  GLU80       0.0429
     76  CG        19.4220  176.6220  -63.6650 C.3    80  GLU80       0.1163
     77  CD        19.8160  176.0480  -65.0360 C.2    80  GLU80       0.3649
     78  OE1       19.3860  176.5490  -66.1240 O.co2  80  GLU80      -0.2457
     79  OE2       20.6610  175.1210  -65.0310 O.co2  80  GLU80      -0.2457
     80  N         19.3140  178.4640  -60.5410 N.am   81  PHE81      -0.1960
     81  CA        20.4160  179.1100  -59.8130 C.3    81  PHE81       0.1771
     82  C         21.7520  178.7720  -60.4860 C.2    81  PHE81       0.2620
     83  O         21.9930  177.6040  -60.9000 O.2    81  PHE81      -0.2715
     84  CB        20.4790  178.5670  -58.3770 C.3    81  PHE81       0.0574
     85  CG        21.5860  179.1630  -57.4920 C.ar   81  PHE81      -0.0200
     86  CD1       21.4650  180.4320  -56.9450 C.ar   81  PHE81      -0.0042
     87  CD2       22.6760  178.3740  -57.1360 C.ar   81  PHE81      -0.0042
     88  CE1       22.4920  180.9230  -56.1360 C.ar   81  PHE81      -0.0003
     89  CE2       23.6590  178.8600  -56.3180 C.ar   81  PHE81      -0.0003
     90  CZ        23.5640  180.1200  -55.8230 C.ar   81  PHE81      -0.0000
     91  N         22.5910  179.8030  -60.6170 N.am   82  CYS82      -0.1954
     92  CA        23.9360  179.6750  -61.2720 C.3    82  CYS82       0.1843
     93  C         25.0100  180.0870  -60.2640 C.2    82  CYS82       0.2625
     94  O         25.2630  181.2920  -60.0120 O.2    82  CYS82      -0.2714
     95  CB        24.0150  180.5470  -62.5410 C.3    82  CYS82       0.0997
     96  SG        22.8290  179.9570  -63.8460 S.3    82  CYS82      -0.0797
     97  N         25.6650  179.0880  -59.7010 N.am   83  ALA83      -0.1963
     98  CA        26.5250  179.3040  -58.5330 C.3    83  ALA83       0.1728
     99  C         27.8340  180.0340  -58.8090 C.2    83  ALA83       0.2617
    100  O         28.4810  180.5520  -57.8800 O.2    83  ALA83      -0.2715
    101  CB        26.8450  177.9330  -57.8990 C.3    83  ALA83       0.0334
    102  N         28.2810  180.0310  -60.0740 N.am   84  GLY84      -0.1940
    103  CA        29.4860  180.7470  -60.4420 C.3    84  GLY84       0.2014
    104  C         29.5170  182.2560  -60.6840 C.2    84  GLY84       0.2639
    105  O         30.5840  182.7540  -61.0830 O.2    84  GLY84      -0.2714
    106  N         28.3960  182.9680  -60.4930 N.am   85  GLY85      -0.1954
    107  CA        28.3110  184.4160  -60.7210 C.3    85  GLY85       0.1869
    108  C         28.2180  184.6640  -62.2540 C.2    85  GLY85       0.2309
    109  O         27.6620  183.8270  -62.9840 O.2    85  GLY85      -0.2863
    110  N         32.3530  189.5870  -63.9220 N.3    89  ARG89      -0.1245
    111  CA        33.3010  189.3100  -62.8210 C.3    89  ARG89       0.1563
    112  C         34.4290  188.3010  -63.1330 C.2    89  ARG89       0.2260
    113  O         35.5660  188.4840  -62.6790 O.2    89  ARG89      -0.2867
    114  CB        32.5290  188.8680  -61.5630 C.3    89  ARG89       0.0307
    115  CG        33.4210  188.3450  -60.4520 C.3    89  ARG89       0.0489
    116  CD        32.6450  187.4820  -59.4840 C.3    89  ARG89       0.2205
    117  NE        32.6760  186.0820  -59.8980 N.pl3  89  ARG89      -0.0865
    118  CZ        33.7080  185.2680  -59.6780 C.cat  89  ARG89       0.5346
    119  NH1       34.8180  185.5900  -59.0130 N.pl3  89  ARG89       0.1354
    120  NH2       33.5880  184.0620  -60.2270 N.pl3  89  ARG89       0.1354
    121  N         27.5470  190.6900  -68.3410 N.3   129  GLN129     -0.1231
    122  CA        26.6580  190.7460  -67.1540 C.3   129  GLN129      0.1698
    123  C         25.4070  189.8600  -67.3620 C.2   129  GLN129      0.2592
    124  O         24.7870  189.4290  -66.3630 O.2   129  GLN129     -0.2718
    125  CB        26.2880  192.1910  -66.8330 C.3   129  GLN129      0.0381
    126  CG        27.4680  192.9510  -66.1520 C.3   129  GLN129      0.0905
    127  CD        27.0140  194.4010  -66.1800 C.2   129  GLN129      0.2608
    128  OE1       26.6490  194.9930  -65.1690 O.2   129  GLN129     -0.2717
    129  NE2       26.7360  194.8750  -67.4050 N.am  129  GLN129     -0.0878
    130  N         25.0630  189.5750  -68.6390 N.am  130  ASN130     -0.1974
    131  CA        23.9160  188.6910  -68.9320 C.3   130  ASN130      0.1688
    132  C         24.2920  187.1860  -69.2820 C.2   130  ASN130      0.2292
    133  O         23.5390  186.4780  -69.9540 O.2   130  ASN130     -0.2864
    134  CB        22.9980  189.3000  -70.0080 C.3   130  ASN130      0.1181
    135  CG        22.2210  190.5580  -69.5180 C.2   130  ASN130      0.2629
    136  OD1       22.0730  190.7890  -68.2840 O.2   130  ASN130     -0.2716
    137  ND2       21.6920  191.3690  -70.4740 N.am  130  ASN130     -0.0877
    138  N         25.7820  183.9550  -67.2640 N.3   132  LEU132     -0.1245
    139  CA        26.0200  183.3610  -65.9090 C.3   132  LEU132      0.1561
    140  C         26.7470  182.0130  -65.9880 C.2   132  LEU132      0.2260
    141  O         26.7330  181.3010  -67.0480 O.2   132  LEU132     -0.2867
    142  CB        24.6420  183.2180  -65.1900 C.3   132  LEU132      0.0270
    143  CG        23.7940  184.5210  -65.1480 C.3   132  LEU132      0.0019
    144  CD1       22.5610  184.3320  -64.2220 C.3   132  LEU132      0.0001
    145  CD2       24.5510  185.7250  -64.6940 C.3   132  LEU132      0.0001
    146  N         32.5330  178.2280  -60.4070 N.3   136  LEU136     -0.1245
    147  CA        33.7020  179.0970  -60.5350 C.3   136  LEU136      0.1561
    148  C         34.8640  178.5430  -61.3740 C.2   136  LEU136      0.2260
    149  O         35.6090  179.3230  -61.9360 O.2   136  LEU136     -0.2867
    150  CB        34.2070  179.6070  -59.1620 C.3   136  LEU136      0.0270
    151  CG        33.5330  180.8220  -58.5450 C.3   136  LEU136      0.0019
    152  CD1       32.0980  180.5500  -58.1320 C.3   136  LEU136      0.0001
    153  CD2       34.3300  181.3070  -57.3290 C.3   136  LEU136      0.0001
    154  N         21.3030  184.7130  -69.8100 N.3   144  ALA144     -0.1231
    155  CA        20.3200  185.2760  -68.8430 C.3   144  ALA144      0.1694
    156  C         19.6990  186.5840  -69.3970 C.2   144  ALA144      0.2592
    157  O         20.1190  187.1700  -70.4110 O.2   144  ALA144     -0.2718
    158  CB        21.0540  185.5660  -67.5060 C.3   144  ALA144      0.0304
    159  N         18.6300  187.0300  -68.7240 N.am  145  ASP145     -0.1974
    160  CA        17.9530  188.2980  -69.0100 C.3   145  ASP145      0.1709
    161  C         17.4230  188.4660  -70.4030 C.2   145  ASP145      0.2293
    162  O         17.9710  189.2540  -71.2070 O.2   145  ASP145     -0.2864
    163  CB        18.7160  189.5460  -68.5610 C.3   145  ASP145      0.1436
    164  CG        17.7740  190.7140  -68.2770 C.2   145  ASP145      0.3671
    165  OD1       16.5780  190.7000  -68.7220 O.co2 145  ASP145     -0.2456
    166  OD2       18.1730  191.6420  -67.5490 O.co2 145  ASP145     -0.2456
@<TRIPOS>BOND
     1    39    40    1
     2    40    41    1
     3    40    43    1
     4    42    41    2
     5    43    44    1
     6   162   161    2
     7    44    45    1
     8   137   135   am
     9   157   156    2
    10   161   160    1
    11   134   135    1
    12   134   131    1
    13   133   132    2
    14   154   155    1
    15   135   136    2
    16    45    46   ar
    17    45    47   ar
    18   156   155    1
    19   156   159   am
    20   132   131    1
    21    48    49    1
    22   160   159    1
    23   160   163    1
    24   131   130    1
    25   155   158    1
    26   165   164   ar
    27   130   123   am
    28    51    50    2
    29   163   164    1
    30   121   122    1
    31   164   166   ar
    32    50    49    1
    33    49    52    1
    34   129   127   am
    35   123   122    1
    36   123   124    2
    37   138   139    1
    38   122   125    1
    39   141   140    2
    40    52    54    1
    41    52    53    1
    42   125   126    1
    43   127   126    1
    44   127   128    2
    45    78    77   ar
    46    70    69    1
    47   140   139    1
    48   139   142    1
    49    62    60    1
    50   142   143    1
    51   143   145    1
    52   143   144    1
    53    77    79   ar
    54    77    76    1
    55    69    68    1
    56    60    61    1
    57    60    59    1
    58   110   111    1
    59    38    37    1
    60    96    95    1
    61    75    76    1
    62    75    72    1
    63    68    67    1
    64    59    56    1
    65   112   111    1
    66   112   113    2
    67   109   108    2
    68    67    64    1
    69   111   114    1
    70    71    72    1
    71    71    65   am
    72    95    92    1
    73    37    36    1
    74    72    73    1
    75    64    65    1
    76    64    63    1
    77    36    35    1
    78    74    73    2
    79   108   107    1
    80    56    57    1
    81    56    55    1
    82   149   148    2
    83    65    66    2
    84    73    80   am
    85   114   115    1
    86    57    58    2
    87   148   147    1
    88    92    91    1
    89    92    93    1
    90   105   104    2
    91    35    34    1
    92    83    82    2
    93   107   106    1
    94   104   106   am
    95   104   103    1
    96    34    31    1
    97    91    82   am
    98    80    81    1
    99   147   146    1
   100   147   150    1
   101    82    81    1
   102   115   116    1
   103   103   102    1
   104    93    94    2
   105    93    97   am
   106   120   118    1
   107   102    99   am
   108   117   118    2
   109   117   116    1
   110    81    84    1
   111    97    98    1
   112   118   119    1
   113    33    32    2
   114    28    27    2
   115    31    30    1
   116    31    32    1
   117   150   151    1
   118    99    98    1
   119    99   100    2
   120    29    26    1
   121   151   152    1
   122   151   153    1
   123    98   101    1
   124    24    22    1
   125    84    85    1
   126    27    26    1
   127    25    26    1
   128    23    22    1
   129    85    87   ar
   130    85    86   ar
   131    87    89   ar
   132    22    19    1
   133    86    88   ar
   134    89    90   ar
   135    88    90   ar
   136    19    18    1
   137    19    20    1
   138    16    15    1
   139    20    21    2
   140    14    15    1
   141    14    11    1
   142    13    12    2
   143    15    17    1
   144    12    11    1
   145    11    10    1
   146     4     3    2
   147     8     7   ar
   148     3     2    1
   149     7     6    1
   150     7     9   ar
   151     6     5    1
   152     5     2    1
   153     2     1    1
