@<TRIPOS>MOLECULE
tmp/6fdzA00.pdb
 160 151 0 0 0
SMALL
GASTEIGER

@<TRIPOS>ATOM
      1  N        -13.0770   10.9800  -17.8180 N.3    12  ARG12      -0.1231
      2  CA       -14.1240   11.8900  -18.2100 C.3    12  ARG12       0.1694
      3  C        -14.9520   12.1560  -16.9270 C.2    12  ARG12       0.2592
      4  O        -15.2980   11.2330  -16.1930 O.2    12  ARG12      -0.2718
      5  CB       -14.9280   11.2220  -19.3330 C.3    12  ARG12       0.0321
      6  CG       -15.9410   12.0750  -20.0780 C.3    12  ARG12       0.0489
      7  CD       -16.7060   11.1880  -21.0630 C.3    12  ARG12       0.2205
      8  NE       -15.8520   10.8000  -22.1920 N.pl3  12  ARG12      -0.0865
      9  CZ       -15.5520    9.5570  -22.5930 C.cat  12  ARG12       0.5346
     10  NH1      -16.0400    8.4690  -21.9930 N.pl3  12  ARG12       0.1354
     11  NH2      -14.7490    9.3940  -23.6450 N.pl3  12  ARG12       0.1354
     12  N        -15.1930   13.4260  -16.6380 N.am   13  LEU13      -0.1966
     13  CA       -15.9690   13.8690  -15.4960 C.3    13  LEU13       0.1728
     14  C        -17.3340   14.4410  -15.8970 C.2    13  LEU13       0.2617
     15  O        -18.2770   14.5040  -15.0810 O.2    13  LEU13      -0.2715
     16  CB       -15.1740   14.9800  -14.7660 C.3    13  LEU13       0.0311
     17  CG       -13.7610   14.6400  -14.2300 C.3    13  LEU13       0.0022
     18  CD1      -13.0200   15.9030  -13.8040 C.3    13  LEU13       0.0001
     19  CD2      -13.8290   13.6480  -13.0850 C.3    13  LEU13       0.0001
     20  N        -17.4230   14.9230  -17.1330 N.am   14  GLY14      -0.1940
     21  CA       -18.5960   15.6500  -17.5960 C.3    14  GLY14       0.2014
     22  C        -18.6150   15.7370  -19.1150 C.2    14  GLY14       0.2640
     23  O        -17.5800   15.6370  -19.7620 O.2    14  GLY14      -0.2714
     24  N        -19.8140   15.8990  -19.6540 N.am   15  SER15      -0.1935
     25  CA       -20.0750   15.8920  -21.0910 C.3    15  SER15       0.2055
     26  C        -21.2310   16.8440  -21.3100 C.2    15  SER15       0.2643
     27  O        -22.1550   16.9210  -20.4940 O.2    15  SER15      -0.2714
     28  CB       -20.4250   14.4970  -21.6080 C.3    15  SER15       0.2130
     29  OG       -20.7160   14.4540  -22.9140 O.3    15  SER15      -0.2179
     30  N        -21.1160   17.6380  -22.3610 N.am   16  GLY16      -0.1954
     31  CA       -22.2050   18.4670  -22.8420 C.3    16  GLY16       0.1869
     32  C        -22.3770   18.1550  -24.3150 C.2    16  GLY16       0.2309
     33  O        -21.5450   17.4710  -24.9390 O.2    16  GLY16      -0.2863
     34  N        -19.1910   20.1680  -25.1180 N.3    19  ALA19      -0.1245
     35  CA       -17.9840   20.2020  -24.2600 C.3    19  ALA19       0.1562
     36  C        -17.7340   18.9220  -23.5240 C.2    19  ALA19       0.2260
     37  O        -18.6140   18.1220  -23.3230 O.2    19  ALA19      -0.2867
     38  CB       -18.0790   21.3460  -23.2550 C.3    19  ALA19       0.0290
     39  N        -15.3560   17.5420  -20.0380 N.3    21  VAL21      -0.1245
     40  CA       -14.4810   17.8850  -18.9480 C.3    21  VAL21       0.1561
     41  C        -13.7330   16.6630  -18.5070 C.2    21  VAL21       0.2260
     42  O        -14.3410   15.7080  -18.0660 O.2    21  VAL21      -0.2867
     43  CB       -15.2790   18.4610  -17.7930 C.3    21  VAL21       0.0252
     44  CG1      -14.3570   18.8140  -16.6280 C.3    21  VAL21       0.0019
     45  CG2      -16.0780   19.6720  -18.2770 C.3    21  VAL21       0.0019
     46  N         -9.0910   19.9480  -13.3080 N.3    35  ALA35      -0.1245
     47  CA       -10.1790   19.5820  -14.2270 C.3    35  ALA35       0.1562
     48  C        -10.0400   20.4870  -15.4740 C.2    35  ALA35       0.2260
     49  O         -9.8530   21.7320  -15.3470 O.2    35  ALA35      -0.2867
     50  CB       -11.5310   19.7860  -13.5610 C.3    35  ALA35       0.0290
     51  N        -11.9720   21.6680  -18.9220 N.3    37  LYS37      -0.1245
     52  CA       -13.0930   21.7150  -19.8710 C.3    37  LYS37       0.1561
     53  C        -12.6210   21.9880  -21.3130 C.2    37  LYS37       0.2260
     54  O        -11.9990   23.0520  -21.5970 O.2    37  LYS37      -0.2867
     55  CB       -14.1080   22.7840  -19.4820 C.3    37  LYS37       0.0271
     56  CG       -15.3960   22.6690  -20.2820 C.3    37  LYS37       0.0035
     57  CD       -16.5580   23.4410  -19.6680 C.3    37  LYS37       0.0206
     58  CE       -17.8790   23.1300  -20.3570 C.3    37  LYS37       0.1093
     59  NZ       -19.0430   23.5430  -19.5250 N.3    37  LYS37      -0.1314
     60  N        -14.8370   27.6550   -7.5940 N.3    68  VAL68      -0.1245
     61  CA       -13.8780   26.8690   -8.3250 C.3    68  VAL68       0.1561
     62  C        -13.0730   27.8790   -9.0810 C.2    68  VAL68       0.2260
     63  O        -13.6090   28.8270   -9.7010 O.2    68  VAL68      -0.2867
     64  CB       -14.5430   25.8840   -9.3110 C.3    68  VAL68       0.0252
     65  CG1      -13.4970   25.0950  -10.0810 C.3    68  VAL68       0.0019
     66  CG2      -15.4600   24.9200   -8.5610 C.3    68  VAL68       0.0019
     67  N         -9.2020   24.2230  -14.6460 N.3    84  MET84      -0.1230
     68  CA        -9.8540   24.5610  -13.3850 C.3    84  MET84       0.1702
     69  C         -9.2700   23.7780  -12.2020 C.2    84  MET84       0.2592
     70  O         -8.7330   22.7040  -12.3780 O.2    84  MET84      -0.2718
     71  CB       -11.3380   24.2270  -13.4880 C.3    84  MET84       0.0401
     72  CG       -12.1480   25.0180  -14.4830 C.3    84  MET84       0.0596
     73  SD       -13.7610   24.2410  -14.7210 S.3    84  MET84      -0.1393
     74  CE       -13.2610   22.7670  -15.5940 C.3    84  MET84       0.0692
     75  N         -9.4310   24.3330  -11.0040 N.am   85  GLU85      -0.1966
     76  CA        -9.2200   23.6420   -9.7360 C.3    85  GLU85       0.1733
     77  C        -10.0340   22.3590   -9.7320 C.2    85  GLU85       0.2616
     78  O        -11.2260   22.3970   -9.9420 O.2    85  GLU85      -0.2715
     79  CB        -9.7060   24.5570   -8.6040 C.3    85  GLU85       0.0429
     80  CG        -9.6540   23.9910   -7.2040 C.3    85  GLU85       0.1163
     81  CD       -10.3500   24.8790   -6.1630 C.2    85  GLU85       0.3649
     82  OE1      -10.7720   26.0790   -6.4060 O.co2  85  GLU85      -0.2457
     83  OE2      -10.4620   24.3450   -5.0350 O.co2  85  GLU85      -0.2457
     84  N         -9.3960   21.2260   -9.5240 N.am   86  PHE86      -0.1960
     85  CA       -10.1100   19.9510   -9.4100 C.3    86  PHE86       0.1771
     86  C        -10.7460   19.8010   -8.0190 C.2    86  PHE86       0.2620
     87  O        -10.0740   19.9630   -7.0310 O.2    86  PHE86      -0.2715
     88  CB        -9.1560   18.8020   -9.6800 C.3    86  PHE86       0.0574
     89  CG        -9.7450   17.4640   -9.4700 C.ar   86  PHE86      -0.0200
     90  CD1      -10.7850   17.0160  -10.2780 C.ar   86  PHE86      -0.0042
     91  CD2       -9.2560   16.6180   -8.4770 C.ar   86  PHE86      -0.0042
     92  CE1      -11.3370   15.7440  -10.0940 C.ar   86  PHE86      -0.0003
     93  CE2       -9.7980   15.3350   -8.2980 C.ar   86  PHE86      -0.0003
     94  CZ       -10.8390   14.9000   -9.1070 C.ar   86  PHE86      -0.0000
     95  N        -12.0390   19.4920   -7.9840 N.am   87  CYS87      -0.1954
     96  CA       -12.7760   19.1450   -6.7950 C.3    87  CYS87       0.1843
     97  C        -13.0650   17.6090   -6.7620 C.2    87  CYS87       0.2625
     98  O        -13.8710   17.0860   -7.5270 O.2    87  CYS87      -0.2714
     99  CB       -14.0540   19.9460   -6.7720 C.3    87  CYS87       0.0997
    100  SG       -13.7490   21.7170   -6.9020 S.3    87  CYS87      -0.0797
    101  N        -12.4110   16.9180   -5.8400 N.am   88  ALA88      -0.1977
    102  CA       -12.3730   15.4780   -5.8010 C.3    88  ALA88       0.1597
    103  C        -13.5800   14.8650   -5.1300 C.2    88  ALA88       0.2287
    104  O        -13.7040   13.6600   -5.1870 O.2    88  ALA88      -0.2864
    105  CB       -11.1150   15.0120   -5.0780 C.3    88  ALA88       0.0319
    106  N        -16.7900   15.5170   -6.0180 N.3    90  GLY90      -0.1210
    107  CA       -17.9250   15.4770   -6.9230 C.3    90  GLY90       0.1956
    108  C        -18.9140   16.5510   -6.5580 C.2    90  GLY90       0.2611
    109  O        -18.5830   17.4930   -5.8290 O.2    90  GLY90      -0.2717
    110  N        -20.1450   16.3970   -7.0360 N.am   91  ASP91      -0.1973
    111  CA       -21.1010   17.4850   -6.9550 C.3    91  ASP91       0.1709
    112  C        -21.9270   17.3670   -5.6960 C.2    91  ASP91       0.2293
    113  O        -22.0310   16.2730   -5.1520 O.2    91  ASP91      -0.2864
    114  CB       -21.9260   17.6140   -8.2580 C.3    91  ASP91       0.1436
    115  CG       -22.9260   16.5130   -8.4460 C.2    91  ASP91       0.3671
    116  OD1      -23.9350   16.5430   -7.7690 O.co2  91  ASP91      -0.2456
    117  OD2      -22.7610   15.6510   -9.3120 O.co2  91  ASP91      -0.2456
    118  N        -25.1720   14.6690   -5.8580 N.3    94  ARG94      -0.1245
    119  CA       -24.8890   13.2850   -5.4550 C.3    94  ARG94       0.1563
    120  C        -24.7450   13.2490   -3.9240 C.2    94  ARG94       0.2260
    121  O        -25.3270   12.3850   -3.2330 O.2    94  ARG94      -0.2867
    122  CB       -23.5960   12.7060   -6.1400 C.3    94  ARG94       0.0307
    123  CG       -23.8830   12.2090   -7.5090 C.3    94  ARG94       0.0489
    124  CD       -22.9400   11.1430   -8.0460 C.3    94  ARG94       0.2205
    125  NE       -21.5600   11.5880   -7.9910 N.pl3  94  ARG94      -0.0865
    126  CZ       -20.9560   12.5020   -8.7410 C.cat  94  ARG94       0.5346
    127  NH1      -21.5150   13.2350   -9.7020 N.pl3  94  ARG94       0.1354
    128  NH2      -19.6440   12.7140   -8.4500 N.pl3  94  ARG94       0.1354
    129  N        -19.6400   22.0140   -6.2010 N.3   137  LEU137     -0.1245
    130  CA       -18.7160   20.8670   -6.0220 C.3   137  LEU137      0.1561
    131  C        -18.0540   20.8350   -4.6380 C.2   137  LEU137      0.2260
    132  O        -18.1030   21.8210   -3.8830 O.2   137  LEU137     -0.2867
    133  CB       -17.6420   20.8590   -7.1030 C.3   137  LEU137      0.0270
    134  CG       -18.1100   20.9010   -8.5700 C.3   137  LEU137      0.0019
    135  CD1      -16.9370   21.0560   -9.5270 C.3   137  LEU137      0.0001
    136  CD2      -18.9030   19.6410   -8.9160 C.3   137  LEU137      0.0001
    137  N        -19.4280   26.3760   -9.0420 N.3   149  ALA149     -0.1231
    138  CA       -18.9260   26.1320  -10.4150 C.3   149  ALA149      0.1694
    139  C        -19.8340   26.7830  -11.4780 C.2   149  ALA149      0.2592
    140  O        -21.0000   27.0800  -11.2220 O.2   149  ALA149     -0.2718
    141  CB       -18.8020   24.6300  -10.6850 C.3   149  ALA149      0.0304
    142  N        -19.2740   27.0140  -12.6610 N.am  150  ASP150     -0.1960
    143  CA       -20.0200   27.5490  -13.7950 C.3   150  ASP150      0.1840
    144  C        -20.0160   26.4750  -14.8720 C.2   150  ASP150      0.2622
    145  O        -19.0400   26.3170  -15.6040 O.2   150  ASP150     -0.2715
    146  CB       -19.3760   28.8500  -14.2890 C.3   150  ASP150      0.1450
    147  CG       -20.3270   29.6830  -15.1280 C.2   150  ASP150      0.3671
    148  OD1      -21.1790   29.0840  -15.8290 O.co2 150  ASP150     -0.2456
    149  OD2      -20.2330   30.9360  -15.0690 O.co2 150  ASP150     -0.2456
    150  N        -21.1160   25.7240  -14.9340 N.am  151  PHE151     -0.1974
    151  CA       -21.2790   24.5740  -15.8450 C.3   151  PHE151      0.1639
    152  C        -21.6830   25.0150  -17.2380 C.2   151  PHE151      0.2290
    153  O        -21.7940   24.1820  -18.1110 O.2   151  PHE151     -0.2864
    154  CB       -22.3330   23.5620  -15.3080 C.3   151  PHE151      0.0560
    155  CG       -21.7630   22.4590  -14.4190 C.ar  151  PHE151     -0.0200
    156  CD1      -20.7050   22.7020  -13.5280 C.ar  151  PHE151     -0.0042
    157  CD2      -22.3140   21.1760  -14.4500 C.ar  151  PHE151     -0.0042
    158  CE1      -20.1930   21.6930  -12.7160 C.ar  151  PHE151     -0.0003
    159  CE2      -21.8010   20.1640  -13.6480 C.ar  151  PHE151     -0.0003
    160  CZ       -20.7410   20.4240  -12.7720 C.ar  151  PHE151     -0.0000
@<TRIPOS>BOND
     1    34    35    1
     2    33    32    2
     3    32    31    1
     4    35    36    1
     5    35    38    1
     6    11     9    1
     7    36    37    2
     8    29    28    1
     9    31    30    1
    10     9     8    2
    11     9    10    1
    12    30    26   am
    13     8     7    1
    14    28    25    1
    15    54    53    2
    16    53    52    1
    17    26    25    1
    18    26    27    2
    19    25    24    1
    20     7     6    1
    21    58    57    1
    22    58    59    1
    23    56    57    1
    24    56    55    1
    25     6     5    1
    26    39    40    1
    27    52    55    1
    28    52    51    1
    29    23    22    2
    30    24    22   am
    31     5     2    1
    32    22    21    1
    33    40    41    1
    34    40    43    1
    35    41    42    2
    36    45    43    1
    37     2     1    1
    38     2     3    1
    39   153   152    2
    40    43    44    1
    41    21    20    1
    42   152   151    1
    43    20    14   am
    44     3    12   am
    45     3     4    2
    46    12    13    1
    47    14    13    1
    48    14    15    2
    49   151   154    1
    50   151   150    1
    51   148   147   ar
    52   145   144    2
    53    74    73    1
    54    13    16    1
    55    48    49    2
    56    48    47    1
    57   154   155    1
    58   147   149   ar
    59   147   146    1
    60   150   144   am
    61   144   143    1
    62    16    17    1
    63    73    72    1
    64    67    68    1
    65    72    71    1
    66   157   155   ar
    67   157   159   ar
    68   155   156   ar
    69   146   143    1
    70    17    18    1
    71    17    19    1
    72    47    50    1
    73    47    46    1
    74   143   142    1
    75   159   160   ar
    76   156   158   ar
    77    71    68    1
    78    68    69    1
    79   160   158   ar
    80   142   139   am
    81    70    69    2
    82    69    75   am
    83   139   140    2
    84   139   138    1
    85    75    76    1
    86   141   138    1
    87   138   137    1
    88    90    92   ar
    89    90    89   ar
    90    92    94   ar
    91    65    64    1
    92    78    77    2
    93    76    77    1
    94    76    79    1
    95    77    84   am
    96   127   126    1
    97    63    62    2
    98    88    89    1
    99    88    85    1
   100   135   134    1
   101    84    85    1
   102    89    91   ar
   103    85    86    1
   104   117   115   ar
   105    64    66    1
   106    64    61    1
   107    94    93   ar
   108    62    61    1
   109   136   134    1
   110   126   128    1
   111   126   125    2
   112    79    80    1
   113   134   133    1
   114    91    93   ar
   115   115   114    1
   116   115   116   ar
   117    61    60    1
   118   114   111    1
   119   124   125    1
   120   124   123    1
   121    86    95   am
   122    86    87    2
   123    95    96    1
   124    98    97    2
   125   123   122    1
   126    80    81    1
   127   133   130    1
   128   110   111    1
   129   110   108   am
   130   111   112    1
   131   107   108    1
   132   107   106    1
   133   100    99    1
   134    96    99    1
   135    96    97    1
   136    97   101   am
   137   108   109    2
   138    82    81   ar
   139   129   130    1
   140    81    83   ar
   141   122   119    1
   142   130   131    1
   143   118   119    1
   144   101   102    1
   145   102   103    1
   146   102   105    1
   147   112   113    2
   148   119   120    1
   149   104   103    2
   150   131   132    2
   151   120   121    2
