@<TRIPOS>MOLECULE
tmp/6fe0C00.pdb
 175 168 0 0 0
SMALL
GASTEIGER

@<TRIPOS>ATOM
      1  N        -42.3540   18.7310  -72.0300 N.3    46  ASN46      -0.1240
      2  CA       -42.9940   17.5960  -71.3450 C.3    46  ASN46       0.1653
      3  C        -44.5450   17.6820  -71.3050 C.2    46  ASN46       0.2266
      4  O        -45.1850   16.8670  -70.6430 O.2    46  ASN46      -0.2867
      5  CB       -42.3930   17.3390  -69.9410 C.3    46  ASN46       0.1155
      6  CG       -42.5870   18.5060  -68.9770 C.2    46  ASN46       0.2627
      7  OD1      -43.6390   19.1480  -68.9540 O.2    46  ASN46      -0.2716
      8  ND2      -41.5640   18.7840  -68.1780 N.am   46  ASN46      -0.0877
      9  N        -46.4050   19.8900  -69.8440 N.3    48  HIS48      -0.1226
     10  CA       -46.7770   20.8020  -68.7620 C.3    48  HIS48       0.1752
     11  C        -45.9080   22.0710  -68.7260 C.2    48  HIS48       0.2596
     12  O        -46.3460   23.1120  -68.2320 O.2    48  HIS48      -0.2718
     13  CB       -46.6830   20.0780  -67.4130 C.3    48  HIS48       0.0759
     14  CG       -47.5140   18.8380  -67.3340 C.ar   48  HIS48       0.0818
     15  ND1      -48.8920   18.8650  -67.3190 N.ar   48  HIS48      -0.2268
     16  CD2      -47.1630   17.5320  -67.2660 C.ar   48  HIS48       0.1154
     17  CE1      -49.3550   17.6280  -67.2490 C.ar   48  HIS48       0.1986
     18  NE2      -48.3250   16.8000  -67.2100 N.ar   48  HIS48      -0.2212
     19  N        -44.6660   21.9770  -69.1930 N.am   49  SER49      -0.1952
     20  CA       -43.7490   23.1140  -69.2360 C.3    49  SER49       0.1924
     21  C        -42.6250   22.7990  -70.2450 C.2    49  SER49       0.2314
     22  O        -42.6270   21.7320  -70.8490 O.2    49  SER49      -0.2863
     23  CB       -43.1630   23.3510  -67.8510 C.3    49  SER49       0.2116
     24  OG       -42.3130   24.4830  -67.8370 O.3    49  SER49      -0.2180
     25  N        -38.6810   22.2230  -69.9530 N.3    51  GLN51      -0.1245
     26  CA       -37.7290   21.8890  -68.9030 C.3    51  GLN51       0.1566
     27  C        -36.3070   21.6930  -69.4480 C.2    51  GLN51       0.2260
     28  O        -36.0960   20.9770  -70.4300 O.2    51  GLN51      -0.2867
     29  CB       -38.1580   20.6110  -68.2230 C.3    51  GLN51       0.0367
     30  CG       -37.3580   20.2840  -66.9780 C.3    51  GLN51       0.0905
     31  CD       -37.9040   19.0740  -66.2510 C.2    51  GLN51       0.2608
     32  OE1      -39.1190   18.9120  -66.1080 O.2    51  GLN51      -0.2717
     33  NE2      -37.0070   18.2260  -65.7610 N.am   51  GLN51      -0.0878
     34  N        -31.0810   20.5310  -60.1380 N.3    71  LEU71      -0.1231
     35  CA       -31.5670   19.4090  -60.9410 C.3    71  LEU71       0.1693
     36  C        -32.0390   19.8210  -62.3210 C.2    71  LEU71       0.2591
     37  O        -31.7670   19.1480  -63.3100 O.2    71  LEU71      -0.2718
     38  CB       -32.7560   18.7400  -60.2540 C.3    71  LEU71       0.0284
     39  CG       -32.5090   18.1450  -58.8720 C.3    71  LEU71       0.0019
     40  CD1      -33.8310   17.6980  -58.2720 C.3    71  LEU71       0.0001
     41  CD2      -31.5120   16.9930  -58.9710 C.3    71  LEU71       0.0001
     42  N        -32.8340   20.8820  -62.3730 N.am   72  GLN72      -0.1979
     43  CA       -33.4810   21.2810  -63.6000 C.3    72  GLN72       0.1601
     44  C        -34.0530   22.6760  -63.4440 C.2    72  GLN72       0.2287
     45  O        -34.1870   23.1880  -62.3280 O.2    72  GLN72      -0.2864
     46  CB       -34.6010   20.3080  -63.9360 C.3    72  GLN72       0.0394
     47  CG       -35.6140   20.0980  -62.8110 C.3    72  GLN72       0.0908
     48  CD       -36.9730   20.7490  -63.0740 C.2    72  GLN72       0.2608
     49  OE1      -37.0640   21.8950  -63.4830 O.2    72  GLN72      -0.2717
     50  NE2      -38.0420   20.0060  -62.7960 N.am   72  GLN72      -0.0878
     51  N        -37.3400   25.1850  -65.2940 N.3    74  HIS74      -0.1241
     52  CA       -38.5110   25.2070  -66.1490 C.3    74  HIS74       0.1621
     53  C        -39.2430   26.5320  -65.9420 C.2    74  HIS74       0.2264
     54  O        -38.8740   27.3340  -65.0670 O.2    74  HIS74      -0.2867
     55  CB       -39.4240   24.0060  -65.8740 C.3    74  HIS74       0.0745
     56  CG       -39.9950   24.0060  -64.4980 C.ar   74  HIS74       0.0817
     57  ND1      -39.3550   23.4070  -63.4380 N.ar   74  HIS74      -0.2268
     58  CD2      -41.0920   24.6210  -63.9860 C.ar   74  HIS74       0.1154
     59  CE1      -40.0480   23.6300  -62.3290 C.ar   74  HIS74       0.1986
     60  NE2      -41.1020   24.3630  -62.6360 N.ar   74  HIS74      -0.2212
     61  N        -43.1180   28.9070  -66.2660 N.3    76  HIS76      -0.1241
     62  CA       -44.5720   28.9660  -66.2660 C.3    76  HIS76       0.1621
     63  C        -44.9380   30.2830  -66.9520 C.2    76  HIS76       0.2264
     64  O        -44.3010   31.3090  -66.7060 O.2    76  HIS76      -0.2867
     65  CB       -45.1040   28.9430  -64.8340 C.3    76  HIS76       0.0745
     66  CG       -44.7410   27.7100  -64.0680 C.ar   76  HIS76       0.0817
     67  ND1      -45.5340   26.5890  -64.0630 N.ar   76  HIS76      -0.2268
     68  CD2      -43.6690   27.4160  -63.2970 C.ar   76  HIS76       0.1154
     69  CE1      -44.9800   25.6600  -63.3060 C.ar   76  HIS76       0.1986
     70  NE2      -43.8450   26.1340  -62.8340 N.ar   76  HIS76      -0.2212
     71  N        -38.4820   28.6450  -62.5550 N.3    99  HIS99      -0.1241
     72  CA       -38.1530   27.8590  -61.3920 C.3    99  HIS99       0.1621
     73  C        -36.8690   27.0460  -61.6320 C.2    99  HIS99       0.2264
     74  O        -36.8050   26.3170  -62.6130 O.2    99  HIS99      -0.2867
     75  CB       -39.2880   26.8810  -61.1070 C.3    99  HIS99       0.0745
     76  CG       -40.5660   27.5410  -60.6860 C.ar   99  HIS99       0.0817
     77  ND1      -41.7870   26.9000  -60.7510 N.ar   99  HIS99      -0.2268
     78  CD2      -40.8060   28.7740  -60.1800 C.ar   99  HIS99       0.1154
     79  CE1      -42.7200   27.7290  -60.2970 C.ar   99  HIS99       0.1986
     80  NE2      -42.1530   28.8740  -59.9680 N.ar   99  HIS99      -0.2212
     81  N        -35.0350   24.1060  -59.7530 N.3   101  VAL101     -0.1245
     82  CA       -35.3000   23.1280  -58.7000 C.3   101  VAL101      0.1561
     83  C        -34.0110   22.4650  -58.2420 C.2   101  VAL101      0.2260
     84  O        -33.1830   22.0410  -59.0780 O.2   101  VAL101     -0.2867
     85  CB       -36.2810   22.0550  -59.1730 C.3   101  VAL101      0.0252
     86  CG1      -36.6320   21.1240  -58.0210 C.3   101  VAL101      0.0019
     87  CG2      -37.5260   22.7060  -59.7720 C.3   101  VAL101      0.0019
     88  N        -34.4490   12.3620  -55.5690 N.3   110  VAL110     -0.1245
     89  CA       -35.6540   13.1420  -55.3770 C.3   110  VAL110      0.1561
     90  C        -36.6760   12.3760  -54.5440 C.2   110  VAL110      0.2260
     91  O        -37.1950   12.9270  -53.6010 O.2   110  VAL110     -0.2867
     92  CB       -36.2660   13.5810  -56.7220 C.3   110  VAL110      0.0252
     93  CG1      -37.7240   14.0050  -56.5620 C.3   110  VAL110      0.0019
     94  CG2      -35.4350   14.7050  -57.3120 C.3   110  VAL110      0.0019
     95  N        -38.7530   14.0120  -51.2020 N.3   114  LEU114     -0.1245
     96  CA       -40.1500   14.4170  -51.3350 C.3   114  LEU114      0.1561
     97  C        -40.8600   14.3310  -50.0090 C.2   114  LEU114      0.2260
     98  O        -40.8780   13.2690  -49.3910 O.2   114  LEU114     -0.2867
     99  CB       -40.8920   13.5230  -52.3240 C.3   114  LEU114      0.0270
    100  CG       -40.6210   13.6840  -53.8110 C.3   114  LEU114      0.0019
    101  CD1      -41.3250   12.5640  -54.5830 C.3   114  LEU114      0.0001
    102  CD2      -41.0700   15.0490  -54.3050 C.3   114  LEU114      0.0001
    103  N        -36.2390   19.5920  -50.9070 N.3   120  LEU120     -0.1245
    104  CA       -36.1190   20.3340  -52.1620 C.3   120  LEU120      0.1561
    105  C        -36.1380   21.8350  -51.9220 C.2   120  LEU120      0.2260
    106  O        -36.8290   22.3180  -50.9970 O.2   120  LEU120     -0.2867
    107  CB       -37.2520   19.9730  -53.0990 C.3   120  LEU120      0.0270
    108  CG       -37.3760   18.4890  -53.4460 C.3   120  LEU120      0.0019
    109  CD1      -38.7080   18.2170  -54.1360 C.3   120  LEU120      0.0001
    110  CD2      -36.2210   18.0470  -54.3290 C.3   120  LEU120      0.0001
    111  N        -36.5340   25.5050  -54.3340 N.3   122  VAL122     -0.1245
    112  CA       -36.7400   26.1310  -55.6450 C.3   122  VAL122      0.1561
    113  C        -36.3610   27.6010  -55.5790 C.2   122  VAL122      0.2260
    114  O        -36.7470   28.3050  -54.6160 O.2   122  VAL122     -0.2867
    115  CB       -38.2000   25.9990  -56.1400 C.3   122  VAL122      0.0252
    116  CG1      -38.3490   26.5460  -57.5630 C.3   122  VAL122      0.0019
    117  CG2      -38.6200   24.5510  -56.1030 C.3   122  VAL122      0.0019
    118  N        -44.4590   21.3060  -54.1210 N.3   179  LEU179     -0.1231
    119  CA       -44.4060   21.2510  -55.5680 C.3   179  LEU179      0.1693
    120  C        -45.7840   21.7030  -56.0650 C.2   179  LEU179      0.2593
    121  O        -46.7850   21.5730  -55.3500 O.2   179  LEU179     -0.2718
    122  CB       -44.1010   19.8390  -56.0520 C.3   179  LEU179      0.0284
    123  CG       -42.7440   19.2780  -55.5850 C.3   179  LEU179      0.0019
    124  CD1      -42.6290   17.8370  -56.0130 C.3   179  LEU179      0.0001
    125  CD2      -41.5740   20.1140  -56.1040 C.3   179  LEU179      0.0001
    126  N        -45.8250   22.2600  -57.2720 N.am  180  THR180     -0.1939
    127  CA       -47.0600   22.8160  -57.8200 C.3   180  THR180      0.2028
    128  C        -47.6170   21.9220  -58.9200 C.2   180  THR180      0.2643
    129  O        -48.4500   22.3550  -59.7110 O.2   180  THR180     -0.2714
    130  CB       -46.8380   24.2470  -58.3560 C.3   180  THR180      0.1808
    131  OG1      -45.9990   24.2080  -59.5210 O.3   180  THR180     -0.2208
    132  CG2      -46.2250   25.1390  -57.2890 C.3   180  THR180      0.0379
    133  N        -47.1390   20.6870  -58.9580 N.am  181  THR181     -0.1937
    134  CA       -47.5840   19.6830  -59.8860 C.3   181  THR181      0.2013
    135  C        -47.5990   18.3680  -59.1010 C.2   181  THR181      0.2484
    136  O        -46.8190   18.2120  -58.1610 O.2   181  THR181     -0.2729
    137  CB       -46.6460   19.6070  -61.1240 C.3   181  THR181      0.1807
    138  OG1      -47.2950   18.8460  -62.1430 O.3   181  THR181     -0.2208
    139  CG2      -45.2860   18.9560  -60.7880 C.3   181  THR181      0.0379
    140  N        -48.4810   17.4200  -59.4630 N.am  182  PRO182     -0.2715
    141  CA       -48.4360   16.1450  -58.7280 C.3   182  PRO182      0.1521
    142  C        -47.0300   15.5400  -58.7080 C.2   182  PRO182      0.2440
    143  O        -46.3130   15.6250  -59.7210 O.2   182  PRO182     -0.2731
    144  CB       -49.4000   15.2540  -59.5080 C.3   182  PRO182      0.0310
    145  CG       -50.4010   16.2200  -60.0700 C.3   182  PRO182      0.0237
    146  CD       -49.6180   17.4710  -60.4040 C.3   182  PRO182      0.0939
    147  N        -46.6220   14.9480  -57.5730 N.am  183  PRO183     -0.2727
    148  CA       -47.4020   14.6570  -56.3740 C.3   183  PRO183      0.1402
    149  C        -47.6470   15.8120  -55.3640 C.2   183  PRO183      0.2269
    150  O        -48.2710   15.5580  -54.3320 O.2   183  PRO183     -0.2865
    151  CB       -46.5940   13.5300  -55.7120 C.3   183  PRO183      0.0296
    152  CG       -45.1820   13.8440  -56.0760 C.3   183  PRO183      0.0237
    153  CD       -45.2130   14.5240  -57.4190 C.3   183  PRO183      0.0939
    154  N        -39.2140   27.5310  -50.8860 N.3   190  TRP190     -0.1241
    155  CA       -39.3180   28.4640  -52.0000 C.3   190  TRP190      0.1605
    156  C        -38.6450   29.7720  -51.6990 C.2   190  TRP190      0.2264
    157  O        -38.8800   30.3730  -50.6490 O.2   190  TRP190     -0.2867
    158  CB       -40.7690   28.7360  -52.3290 C.3   190  TRP190      0.0550
    159  CG       -41.4560   27.6080  -52.9910 C.ar  190  TRP190      0.0003
    160  CD1      -42.1040   26.5670  -52.3900 C.ar  190  TRP190      0.0946
    161  CD2      -41.5510   27.3830  -54.3940 C.ar  190  TRP190      0.0152
    162  NE1      -42.6150   25.7160  -53.3440 N.ar  190  TRP190     -0.2442
    163  CE2      -42.3110   26.2090  -54.5810 C.ar  190  TRP190      0.0810
    164  CE3      -41.1120   28.0910  -55.5160 C.ar  190  TRP190      0.0012
    165  CZ2      -42.5930   25.7000  -55.8430 C.ar  190  TRP190      0.0191
    166  CZ3      -41.4030   27.5960  -56.7650 C.ar  190  TRP190      0.0001
    167  CH2      -42.1470   26.4240  -56.9230 C.ar  190  TRP190      0.0015
    168  N        -49.9750   27.6900  -67.9410 N.3   222  ASN222     -0.1240
    169  CA       -49.5400   26.4740  -67.2350 C.3   222  ASN222      0.1653
    170  C        -49.0770   26.8120  -65.8260 C.2   222  ASN222      0.2266
    171  O        -47.9290   26.5200  -65.4380 O.2   222  ASN222     -0.2867
    172  CB       -48.4250   25.7380  -68.0280 C.3   222  ASN222      0.1155
    173  CG       -47.1680   26.5800  -68.2430 C.2   222  ASN222      0.2627
    174  OD1      -47.2260   27.8090  -68.3410 O.2   222  ASN222     -0.2716
    175  ND2      -46.0140   25.9040  -68.3370 N.am  222  ASN222     -0.0877
@<TRIPOS>BOND
     1     1     2    1
     2     2     3    1
     3     2     5    1
     4     3     4    2
     5    22    21    2
     6    28    27    2
     7    21    20    1
     8    25    26    1
     9     5     6    1
    10     9    10    1
    11    27    26    1
    12    20    19    1
    13    20    23    1
    14    19    11   am
    15     6     7    2
    16     6     8   am
    17    26    29    1
    18    10    11    1
    19    10    13    1
    20    11    12    2
    21   174   173    2
    22   175   173   am
    23   173   172    1
    24    29    30    1
    25   172   169    1
    26   168   169    1
    27    23    24    1
    28    13    14    1
    29    14    15   ar
    30    14    16   ar
    31    15    17   ar
    32    16    18   ar
    33    17    18   ar
    34   169   170    1
    35    30    31    1
    36    63    64    2
    37    63    62    1
    38    61    62    1
    39    62    65    1
    40    31    32    2
    41    31    33   am
    42    52    53    1
    43    52    55    1
    44    52    51    1
    45    53    54    2
    46    55    56    1
    47   170   171    2
    48    65    66    1
    49    56    58   ar
    50    56    57   ar
    51    66    67   ar
    52    66    68   ar
    53    67    69   ar
    54    58    60   ar
    55    46    43    1
    56    46    47    1
    57    43    44    1
    58    43    42    1
    59    49    48    2
    60    44    45    2
    61    57    59   ar
    62    37    36    2
    63    69    70   ar
    64    68    70   ar
    65    48    47    1
    66    48    50   am
    67    60    59   ar
    68    74    73    2
    69    71    72    1
    70    42    36   am
    71    36    35    1
    72   138   137    1
    73    73    72    1
    74    72    75    1
    75   137   139    1
    76   137   134    1
    77    75    76    1
    78    35    38    1
    79    35    34    1
    80    77    76   ar
    81    77    79   ar
    82    76    78   ar
    83   146   145    1
    84   146   140    1
    85    79    80   ar
    86    38    39    1
    87    78    80   ar
    88   145   144    1
    89   134   135    1
    90   134   133    1
    91    87    85    1
    92    81    82    1
    93   143   142    2
    94   129   128    2
    95   131   130    1
    96   144   141    1
    97   140   135   am
    98   140   141    1
    99    85    82    1
   100    85    86    1
   101   135   136    2
   102    84    83    2
   103    41    39    1
   104   133   128   am
   105   128   127    1
   106    39    40    1
   107   141   142    1
   108   142   147   am
   109    82    83    1
   110   130   127    1
   111   130   132    1
   112   127   126    1
   113   147   153    1
   114   147   148    1
   115   116   115    1
   116   153   152    1
   117    94    92    1
   118   126   120   am
   119   167   166   ar
   120   167   165   ar
   121   166   164   ar
   122    92    93    1
   123    92    89    1
   124   148   151    1
   125   148   149    1
   126   115   117    1
   127   115   112    1
   128   125   123    1
   129   152   151    1
   130   120   119    1
   131   120   121    2
   132   122   123    1
   133   122   119    1
   134   124   123    1
   135   165   163   ar
   136   112   113    1
   137   112   111    1
   138   113   114    2
   139    88    89    1
   140   119   118    1
   141   164   161   ar
   142    89    90    1
   143   149   150    2
   144   101   100    1
   145   163   161   ar
   146   163   162   ar
   147    90    91    2
   148   161   159   ar
   149   110   108    1
   150   102   100    1
   151   109   108    1
   152   100    99    1
   153   108   107    1
   154   162   160   ar
   155   107   104    1
   156   159   160   ar
   157   159   158    1
   158   158   155    1
   159    99    96    1
   160   104   105    1
   161   104   103    1
   162   155   156    1
   163   155   154    1
   164   105   106    2
   165   156   157    2
   166    96    95    1
   167    96    97    1
   168    97    98    2
