@<TRIPOS>MOLECULE
tmp/6fe1C00.pdb
 202 196 0 0 0
SMALL
GASTEIGER

@<TRIPOS>ATOM
      1  N         37.5640  -38.3990  -49.0900 N.3     1  TRP1       -0.1241
      2  CA        38.9920  -38.3130  -49.5440 C.3     1  TRP1        0.1605
      3  C         39.8730  -37.5900  -48.5140 C.2     1  TRP1        0.2264
      4  O         39.3680  -37.0100  -47.5460 O.2     1  TRP1       -0.2867
      5  CB        39.0920  -37.6250  -50.9200 C.3     1  TRP1        0.0550
      6  CG        38.6750  -36.1720  -50.9210 C.ar    1  TRP1        0.0003
      7  CD1       37.4100  -35.6780  -51.1080 C.ar    1  TRP1        0.0946
      8  CD2       39.5290  -35.0300  -50.7290 C.ar    1  TRP1        0.0152
      9  NE1       37.4240  -34.3040  -51.0400 N.ar    1  TRP1       -0.2442
     10  CE2       38.7080  -33.8790  -50.8040 C.ar    1  TRP1        0.0810
     11  CE3       40.9080  -34.8670  -50.4960 C.ar    1  TRP1        0.0012
     12  CZ2       39.2250  -32.5750  -50.6620 C.ar    1  TRP1        0.0191
     13  CZ3       41.4220  -33.5710  -50.3520 C.ar    1  TRP1        0.0001
     14  CH2       40.5780  -32.4430  -50.4380 C.ar    1  TRP1        0.0015
     15  N         44.2950  -35.8290  -47.9370 N.3     3  TYR3       -0.1241
     16  CA        45.7340  -35.7090  -48.2210 C.3     3  TYR3        0.1605
     17  C         46.5260  -36.8260  -47.5090 C.2     3  TYR3        0.2264
     18  O         47.6740  -37.0970  -47.8740 O.2     3  TYR3       -0.2867
     19  CB        46.2820  -34.3310  -47.7960 C.3     3  TYR3        0.0534
     20  CG        45.6390  -33.1370  -48.4920 C.ar    3  TYR3       -0.0201
     21  CD1       45.9560  -32.8100  -49.8210 C.ar    3  TYR3       -0.0009
     22  CD2       44.7190  -32.3260  -47.8200 C.ar    3  TYR3       -0.0009
     23  CE1       45.3670  -31.7180  -50.4550 C.ar    3  TYR3        0.0417
     24  CE2       44.1260  -31.2370  -48.4470 C.ar    3  TYR3        0.0417
     25  CZ        44.4480  -30.9300  -49.7580 C.ar    3  TYR3        0.1957
     26  OH        43.8470  -29.8440  -50.3550 O.3     3  TYR3       -0.2866
     27  N         37.3830  -27.2890  -42.7970 N.3    58  ASN58      -0.1240
     28  CA        36.6860  -28.3530  -43.5240 C.3    58  ASN58       0.1653
     29  C         37.4580  -29.6770  -43.5680 C.2    58  ASN58       0.2266
     30  O         37.0060  -30.6190  -44.2140 O.2    58  ASN58      -0.2867
     31  CB        36.2570  -27.9060  -44.9240 C.3    58  ASN58       0.1155
     32  CG        37.4290  -27.5640  -45.8430 C.2    58  ASN58       0.2627
     33  OD1       38.4730  -28.2040  -45.8050 O.2    58  ASN58      -0.2716
     34  ND2       37.2450  -26.5500  -46.6840 N.am   58  ASN58      -0.0877
     35  N         40.3450  -30.2410  -44.9420 N.3    60  HIS60      -0.1226
     36  CA        41.3250  -30.1360  -46.0140 C.3    60  HIS60       0.1752
     37  C         42.0240  -28.7750  -45.9930 C.2    60  HIS60       0.2596
     38  O         43.1870  -28.6650  -46.4000 O.2    60  HIS60      -0.2718
     39  CB        40.6370  -30.3570  -47.3700 C.3    60  HIS60       0.0759
     40  CG        39.6810  -31.5170  -47.3810 C.ar   60  HIS60       0.0818
     41  ND1       40.0510  -32.7950  -47.0090 N.ar   60  HIS60      -0.2268
     42  CD2       38.3690  -31.5910  -47.7180 C.ar   60  HIS60       0.1154
     43  CE1       39.0080  -33.6020  -47.1110 C.ar   60  HIS60       0.1986
     44  NE2       37.9760  -32.8980  -47.5430 N.ar   60  HIS60      -0.2212
     45  N         41.3160  -27.7390  -45.5440 N.am   61  SER61      -0.1952
     46  CA        41.8280  -26.3750  -45.5120 C.3    61  SER61       0.1924
     47  C         41.0050  -25.5510  -44.5000 C.2    61  SER61       0.2314
     48  O         40.1020  -26.0780  -43.8550 O.2    61  SER61      -0.2863
     49  CB        41.7200  -25.7600  -46.8890 C.3    61  SER61       0.2116
     50  OG        42.2950  -24.4780  -46.8890 O.3    61  SER61      -0.2180
     51  N         38.4860  -22.4720  -44.8480 N.3    63  GLN63      -0.1245
     52  CA        37.7270  -21.7110  -45.8490 C.3    63  GLN63       0.1566
     53  C         36.9740  -20.5370  -45.2180 C.2    63  GLN63       0.2260
     54  O         36.4890  -20.6130  -44.0940 O.2    63  GLN63      -0.2867
     55  CB        36.7320  -22.5970  -46.6000 C.3    63  GLN63       0.0367
     56  CG        35.6580  -23.2190  -45.7220 C.3    63  GLN63       0.0905
     57  CD        34.6470  -24.0370  -46.4970 C.2    63  GLN63       0.2608
     58  OE1       34.9990  -25.0220  -47.1410 O.2    63  GLN63      -0.2717
     59  NE2       33.3720  -23.6930  -46.3560 N.am   63  GLN63      -0.0878
     60  N         33.3020  -16.6600  -54.6080 N.3    83  LEU83      -0.1231
     61  CA        32.5560  -17.6230  -53.7950 C.3    83  LEU83       0.1693
     62  C         33.1210  -17.8110  -52.3850 C.2    83  LEU83       0.2591
     63  O         32.3860  -17.8540  -51.3960 O.2    83  LEU83      -0.2718
     64  CB        32.5710  -18.9930  -54.4700 C.3    83  LEU83       0.0284
     65  CG        31.9590  -19.0630  -55.8700 C.3    83  LEU83       0.0019
     66  CD1       32.1230  -20.4800  -56.3830 C.3    83  LEU83       0.0001
     67  CD2       30.4980  -18.6250  -55.8560 C.3    83  LEU83       0.0001
     68  N         34.4260  -17.9850  -52.3080 N.am   84  GLN84      -0.1979
     69  CA        35.0880  -18.2980  -51.0690 C.3    84  GLN84       0.1601
     70  C         36.5860  -18.0700  -51.2390 C.2    84  GLN84       0.2287
     71  O         37.0680  -17.7990  -52.3520 O.2    84  GLN84      -0.2864
     72  CB        34.7880  -19.7490  -50.6490 C.3    84  GLN84       0.0394
     73  CG        35.2440  -20.8360  -51.6100 C.3    84  GLN84       0.0908
     74  CD        36.4910  -21.5600  -51.1120 C.2    84  GLN84       0.2608
     75  OE1       37.6100  -21.1360  -51.3720 O.2    84  GLN84      -0.2717
     76  NE2       36.2940  -22.6300  -50.3680 N.am   84  GLN84      -0.0878
     77  N         40.4030  -19.7810  -49.4090 N.3    86  HIS86      -0.1241
     78  CA        41.0060  -20.7970  -48.5800 C.3    86  HIS86       0.1621
     79  C         42.5380  -20.7850  -48.7530 C.2    86  HIS86       0.2264
     80  O         43.0600  -20.0250  -49.5680 O.2    86  HIS86      -0.2867
     81  CB        40.4320  -22.1680  -48.9020 C.3    86  HIS86       0.0745
     82  CG        40.7380  -22.6300  -50.2780 C.ar   86  HIS86       0.0817
     83  ND1       39.9250  -22.3390  -51.3510 N.ar   86  HIS86      -0.2268
     84  CD2       41.7960  -23.3220  -50.7750 C.ar   86  HIS86       0.1154
     85  CE1       40.4710  -22.8370  -52.4520 C.ar   86  HIS86       0.1986
     86  NE2       41.6010  -23.4330  -52.1260 N.ar   86  HIS86      -0.2212
     87  N         46.5900  -22.9100  -48.4790 N.3    88  HIS88      -0.1241
     88  CA        47.3970  -24.1180  -48.5000 C.3    88  HIS88       0.1621
     89  C         48.7020  -23.7600  -47.8020 C.2    88  HIS88       0.2264
     90  O         49.2430  -22.6740  -48.0130 O.2    88  HIS88      -0.2867
     91  CB        47.6490  -24.6030  -49.9380 C.3    88  HIS88       0.0745
     92  CG        46.4020  -24.9510  -50.7000 C.ar   88  HIS88       0.0817
     93  ND1       45.8400  -26.2050  -50.6730 N.ar   88  HIS88      -0.2268
     94  CD2       45.6240  -24.2140  -51.5280 C.ar   88  HIS88       0.1154
     95  CE1       44.7650  -26.2270  -51.4400 C.ar   88  HIS88       0.1986
     96  NE2       44.6040  -25.0270  -51.9650 N.ar   88  HIS88      -0.2212
     97  N         51.0280  -24.4940  -53.3760 N.3    98  GLU98      -0.1245
     98  CA        50.6020  -25.5050  -54.3300 C.3    98  GLU98       0.1567
     99  C         51.3950  -25.2900  -55.6110 C.2    98  GLU98       0.2260
    100  O         52.0490  -26.2010  -56.0920 O.2    98  GLU98      -0.2867
    101  CB        49.0800  -25.4410  -54.6000 C.3    98  GLU98       0.0388
    102  CG        48.2090  -25.9610  -53.4460 C.3    98  GLU98       0.1160
    103  CD        46.9710  -26.7370  -53.8950 C.2    98  GLU98       0.3649
    104  OE1       46.8600  -27.9310  -53.5470 O.co2  98  GLU98      -0.2457
    105  OE2       46.1010  -26.1570  -54.5780 O.co2  98  GLU98      -0.2457
    106  N         44.0210  -18.9010  -52.1200 N.3   111  HIS111     -0.1241
    107  CA        43.1970  -19.0450  -53.2940 C.3   111  HIS111      0.1621
    108  C         41.8430  -18.3610  -53.0710 C.2   111  HIS111      0.2264
    109  O         41.1660  -18.6770  -52.0900 O.2   111  HIS111     -0.2867
    110  CB        42.9530  -20.5120  -53.5640 C.3   111  HIS111      0.0745
    111  CG        44.1600  -21.2590  -54.0460 C.ar  111  HIS111      0.0817
    112  ND1       44.2350  -22.6350  -54.0000 N.ar  111  HIS111     -0.2268
    113  CD2       45.3240  -20.8280  -54.5960 C.ar  111  HIS111      0.1154
    114  CE1       45.4150  -23.0130  -54.4870 C.ar  111  HIS111      0.1986
    115  NE2       46.0910  -21.9380  -54.8500 N.ar  111  HIS111     -0.2212
    116  N         38.3430  -18.3090  -54.9600 N.3   113  VAL113     -0.1245
    117  CA        37.6110  -19.0540  -56.0000 C.3   113  VAL113      0.1561
    118  C         36.4100  -18.2400  -56.4630 C.2   113  VAL113      0.2260
    119  O         35.6300  -17.7200  -55.6240 O.2   113  VAL113     -0.2867
    120  CB        37.1470  -20.4360  -55.5100 C.3   113  VAL113      0.0252
    121  CG1       36.5300  -21.2360  -56.6530 C.3   113  VAL113      0.0019
    122  CG2       38.2980  -21.2090  -54.8780 C.3   113  VAL113      0.0019
    123  N         27.7030  -23.4470  -59.4420 N.3   122  VAL122     -0.1245
    124  CA        28.9740  -24.1280  -59.5870 C.3   122  VAL122      0.1561
    125  C         28.8470  -25.4010  -60.4280 C.2   122  VAL122      0.2260
    126  O         29.6710  -25.6360  -61.3110 O.2   122  VAL122     -0.2867
    127  CB        29.5930  -24.4540  -58.2110 C.3   122  VAL122      0.0252
    128  CG1       30.7180  -25.4640  -58.3260 C.3   122  VAL122      0.0019
    129  CG2       30.1220  -23.1700  -57.5690 C.3   122  VAL122      0.0019
    130  N         31.3970  -26.3730  -63.6440 N.3   126  LEU126     -0.1245
    131  CA        32.4520  -27.3400  -63.4700 C.3   126  LEU126      0.1561
    132  C         32.7600  -27.9990  -64.8170 C.2   126  LEU126      0.2260
    133  O         31.8480  -28.4280  -65.5230 O.2   126  LEU126     -0.2867
    134  CB        32.0740  -28.4120  -62.4500 C.3   126  LEU126      0.0270
    135  CG        32.0530  -28.0650  -60.9670 C.3   126  LEU126      0.0019
    136  CD1       31.3110  -29.1290  -60.1700 C.3   126  LEU126      0.0001
    137  CD2       33.4590  -27.8690  -60.4290 C.3   126  LEU126      0.0001
    138  N         35.0080  -21.4970  -63.8200 N.3   132  LEU132     -0.1245
    139  CA        35.5840  -21.0440  -62.5500 C.3   132  LEU132      0.1561
    140  C         36.9240  -20.3680  -62.8120 C.2   132  LEU132      0.2260
    141  O         37.6270  -20.7110  -63.7810 O.2   132  LEU132     -0.2867
    142  CB        35.8090  -22.2130  -61.5940 C.3   132  LEU132      0.0270
    143  CG        34.5900  -23.0750  -61.2490 C.3   132  LEU132      0.0019
    144  CD1       35.0070  -24.2670  -60.4250 C.3   132  LEU132      0.0001
    145  CD2       33.5510  -22.2390  -60.5220 C.3   132  LEU132      0.0001
    146  N         40.2830  -18.9460  -60.3450 N.3   134  VAL134     -0.1245
    147  CA        40.9330  -18.8160  -59.0460 C.3   134  VAL134      0.1561
    148  C         42.0380  -17.7410  -59.0990 C.2   134  VAL134      0.2260
    149  O         42.8830  -17.7280  -60.0310 O.2   134  VAL134     -0.2867
    150  CB        41.5220  -20.1430  -58.5510 C.3   134  VAL134      0.0252
    151  CG1       42.0600  -19.9930  -57.1330 C.3   134  VAL134      0.0019
    152  CG2       40.4840  -21.2570  -58.5900 C.3   134  VAL134      0.0019
    153  N         40.7090  -27.7100  -60.6330 N.3   191  LEU191     -0.1231
    154  CA        40.6280  -27.6060  -59.1960 C.3   191  LEU191      0.1693
    155  C         41.6670  -28.5790  -58.6800 C.2   191  LEU191      0.2593
    156  O         41.9250  -29.6240  -59.3090 O.2   191  LEU191     -0.2718
    157  CB        39.2420  -28.0160  -58.6730 C.3   191  LEU191      0.0284
    158  CG        38.0680  -27.1760  -59.1580 C.3   191  LEU191      0.0019
    159  CD1       36.7950  -27.8320  -58.6770 C.3   191  LEU191      0.0001
    160  CD2       38.1810  -25.7350  -58.6720 C.3   191  LEU191      0.0001
    161  N         42.2480  -28.2590  -57.5320 N.am  192  THR192     -0.1939
    162  CA        43.3030  -29.0880  -56.9670 C.3   192  THR192      0.2028
    163  C         42.8050  -30.0630  -55.9210 C.2   192  THR192      0.2643
    164  O         43.6000  -30.8020  -55.3590 O.2   192  THR192     -0.2714
    165  CB        44.4670  -28.2330  -56.4320 C.3   192  THR192      0.1808
    166  OG1       44.0820  -27.5610  -55.2190 O.3   192  THR192     -0.2208
    167  CG2       44.8920  -27.2180  -57.4950 C.3   192  THR192      0.0379
    168  N         41.4990  -30.0620  -55.6660 N.am  193  THR193     -0.1937
    169  CA        40.8620  -31.0760  -54.8630 C.3   193  THR193      0.2013
    170  C         39.7590  -31.7250  -55.6980 C.2   193  THR193      0.2484
    171  O         39.3180  -31.1430  -56.6860 O.2   193  THR193     -0.2729
    172  CB        40.2730  -30.4670  -53.5480 C.3   193  THR193      0.1807
    173  OG1       39.3210  -29.4390  -53.8460 O.3   193  THR193     -0.2208
    174  CG2       41.3800  -29.8580  -52.7200 C.3   193  THR193      0.0379
    175  N         39.2960  -32.9280  -55.3020 N.am  194  PRO194     -0.2715
    176  CA        38.1470  -33.5310  -55.9800 C.3   194  PRO194      0.1521
    177  C         36.9810  -32.5630  -55.9820 C.2   194  PRO194      0.2440
    178  O         36.7420  -31.9470  -54.9560 O.2   194  PRO194     -0.2731
    179  CB        37.8240  -34.7480  -55.1120 C.3   194  PRO194      0.0310
    180  CG        39.1350  -35.1320  -54.5200 C.3   194  PRO194      0.0237
    181  CD        39.8540  -33.8300  -54.2800 C.3   194  PRO194      0.0939
    182  N         36.2440  -32.4240  -57.0740 N.am  195  PRO195     -0.2727
    183  CA        36.3010  -33.2780  -58.2500 C.3   195  PRO195      0.1402
    184  C         37.4320  -33.0330  -59.2770 C.2   195  PRO195      0.2269
    185  O         37.4800  -33.7540  -60.2720 O.2   195  PRO195     -0.2865
    186  CB        34.9420  -33.0250  -58.9130 C.3   195  PRO195      0.0296
    187  CG        34.5600  -31.6610  -58.4970 C.3   195  PRO195      0.0237
    188  CD        35.1530  -31.4330  -57.1480 C.3   195  PRO195      0.0939
    189  N         43.3980  -20.1060  -63.8700 N.3   202  TRP202     -0.1241
    190  CA        44.2630  -19.7430  -62.7640 C.3   202  TRP202      0.1605
    191  C         45.0620  -18.4980  -63.0670 C.2   202  TRP202      0.2264
    192  O         45.7340  -18.4170  -64.1020 O.2   202  TRP202     -0.2867
    193  CB        45.2140  -20.8690  -62.4620 C.3   202  TRP202      0.0550
    194  CG        44.5830  -22.0020  -61.7670 C.ar  202  TRP202      0.0003
    195  CD1       43.9790  -23.0930  -62.3380 C.ar  202  TRP202      0.0946
    196  CD2       44.4820  -22.1760  -60.3580 C.ar  202  TRP202      0.0152
    197  NE1       43.5390  -23.9510  -61.3570 N.ar  202  TRP202     -0.2442
    198  CE2       43.8490  -23.4160  -60.1330 C.ar  202  TRP202      0.0810
    199  CE3       44.9040  -21.4200  -59.2550 C.ar  202  TRP202      0.0012
    200  CZ2       43.5930  -23.8990  -58.8420 C.ar  202  TRP202      0.0191
    201  CZ3       44.6550  -21.8990  -57.9830 C.ar  202  TRP202      0.0001
    202  CH2       44.0070  -23.1230  -57.7810 C.ar  202  TRP202      0.0015
@<TRIPOS>BOND
     1   133   132    2
     2   132   131    1
     3   192   191    2
     4   189   190    1
     5   138   139    1
     6   141   140    2
     7   130   131    1
     8   131   134    1
     9   191   190    1
    10   140   139    1
    11   190   193    1
    12   139   142    1
    13   193   194    1
    14   134   135    1
    15   195   194   ar
    16   195   197   ar
    17   194   196   ar
    18   142   143    1
    19   197   198   ar
    20   126   125    2
    21   143   145    1
    22   143   144    1
    23   135   137    1
    24   135   136    1
    25   153   154    1
    26   125   124    1
    27   196   198   ar
    28   196   199   ar
    29   146   147    1
    30   185   184    2
    31   198   200   ar
    32   149   148    2
    33   124   123    1
    34   124   127    1
    35   156   155    2
    36   184   183    1
    37   199   201   ar
    38   154   155    1
    39   154   157    1
    40   158   159    1
    41   158   157    1
    42   158   160    1
    43   148   147    1
    44   147   150    1
    45   186   187    1
    46   186   183    1
    47   200   202   ar
    48   155   161   am
    49   152   150    1
    50   150   151    1
    51   187   188    1
    52   128   127    1
    53   183   182    1
    54   127   129    1
    55   201   202   ar
    56   161   162    1
    57   167   165    1
    58   188   182    1
    59   182   177   am
    60   162   165    1
    61   162   163    1
    62   171   170    2
    63   121   120    1
    64   118   117    1
    65   118   119    2
    66   165   166    1
    67    66    65    1
    68   100    99    2
    69   117   120    1
    70   117   116    1
    71   177   176    1
    72   177   178    2
    73   176   175    1
    74   176   179    1
    75   163   168   am
    76   163   164    2
    77    65    67    1
    78    65    64    1
    79   170   175   am
    80   170   169    1
    81   168   169    1
    82    99    98    1
    83   120   122    1
    84   175   181    1
    85   179   180    1
    86   169   172    1
    87   115   113   ar
    88   115   114   ar
    89    60    61    1
    90   101    98    1
    91   101   102    1
    92   113   111   ar
    93   105   103   ar
    94   180   181    1
    95   114   112   ar
    96    64    61    1
    97    98    97    1
    98   111   112   ar
    99   111   110    1
   100   103   104   ar
   101   103   102    1
   102   173   172    1
   103    61    62    1
   104   110   107    1
   105   172   174    1
   106   107   108    1
   107   107   106    1
   108   108   109    2
   109    85    86   ar
   110    85    83   ar
   111    62    68   am
   112    62    63    2
   113    71    70    2
   114    68    69    1
   115    86    84   ar
   116    96    94   ar
   117    96    95   ar
   118    73    74    1
   119    73    72    1
   120    94    92   ar
   121    95    93   ar
   122    75    74    2
   123    83    82   ar
   124    70    69    1
   125    74    76   am
   126     7     9   ar
   127     7     6   ar
   128    69    72    1
   129     9    10   ar
   130     6     5    1
   131     6     8   ar
   132     5     2    1
   133    10     8   ar
   134    10    12   ar
   135    84    82   ar
   136     8    11   ar
   137    92    93   ar
   138    92    91    1
   139    12    14   ar
   140    11    13   ar
   141    23    21   ar
   142    23    25   ar
   143    14    13   ar
   144    26    25    1
   145    82    81    1
   146    91    88    1
   147    21    20   ar
   148    25    24   ar
   149    80    79    2
   150     2     1    1
   151     2     3    1
   152    77    78    1
   153    81    78    1
   154    79    78    1
   155     3     4    2
   156    88    87    1
   157    88    89    1
   158    20    22   ar
   159    20    19    1
   160    24    22   ar
   161    16    15    1
   162    16    19    1
   163    16    17    1
   164    90    89    2
   165    18    17    2
   166    42    44   ar
   167    42    40   ar
   168    44    43   ar
   169    40    39    1
   170    40    41   ar
   171    39    36    1
   172    58    57    2
   173    43    41   ar
   174    49    50    1
   175    49    46    1
   176    34    32   am
   177    55    52    1
   178    55    56    1
   179    57    59   am
   180    57    56    1
   181    38    37    2
   182    36    37    1
   183    36    35    1
   184    37    45   am
   185    52    53    1
   186    52    51    1
   187    32    33    2
   188    32    31    1
   189    45    46    1
   190    46    47    1
   191    53    54    2
   192    31    28    1
   193    47    48    2
   194    30    29    2
   195    29    28    1
   196    28    27    1
