@<TRIPOS>MOLECULE
tmp/6fe5A07.pdb
 226 218 0 0 0
SMALL
GASTEIGER

@<TRIPOS>ATOM
      1  N         21.7130   50.4070   36.2300 N.3   155  PHE155     -0.1227
      2  CA        20.5770   49.4980   36.1920 C.3   155  PHE155      0.1736
      3  C         20.2520   49.0250   34.7560 C.2   155  PHE155      0.2595
      4  O         20.2270   49.8270   33.7790 O.2   155  PHE155     -0.2718
      5  CB        19.3690   50.2400   36.8370 C.3   155  PHE155      0.0547
      6  CG        18.0590   49.4840   36.7130 C.ar  155  PHE155     -0.0202
      7  CD1       17.9110   48.2340   37.3320 C.ar  155  PHE155     -0.0042
      8  CD2       16.9430   50.0740   36.0450 C.ar  155  PHE155     -0.0042
      9  CE1       16.7140   47.5200   37.2440 C.ar  155  PHE155     -0.0003
     10  CE2       15.7420   49.3450   35.9660 C.ar  155  PHE155     -0.0003
     11  CZ        15.6420   48.0710   36.5530 C.ar  155  PHE155     -0.0000
     12  N         20.0040   47.7210   34.6220 N.am  156  ARG156     -0.1980
     13  CA        19.8050   47.1500   33.2550 C.3   156  ARG156      0.1597
     14  C         18.5770   47.7150   32.5440 C.2   156  ARG156      0.2287
     15  O         18.5290   47.7480   31.3210 O.2   156  ARG156     -0.2864
     16  CB        19.7280   45.6270   33.3770 C.3   156  ARG156      0.0334
     17  CG        18.4590   45.1070   34.1020 C.3   156  ARG156      0.0492
     18  CD        18.4530   43.5610   34.2480 C.3   156  ARG156      0.2205
     19  NE        19.2470   43.1480   35.4400 N.pl3 156  ARG156     -0.0865
     20  CZ        18.8660   43.3630   36.7040 C.cat 156  ARG156      0.5346
     21  NH1       17.6890   43.9660   36.9820 N.pl3 156  ARG156      0.1354
     22  NH2       19.6310   42.9330   37.7100 N.pl3 156  ARG156      0.1354
     23  N         14.6910   42.1570   36.1350 N.3   203  ASN203     -0.1240
     24  CA        13.6870   42.8340   35.2830 C.3   203  ASN203      0.1653
     25  C         14.3180   44.0150   34.5560 C.2   203  ASN203      0.2266
     26  O         15.3590   44.5470   34.9630 O.2   203  ASN203     -0.2867
     27  CB        12.4670   43.2730   36.1230 C.3   203  ASN203      0.1155
     28  CG        12.6810   44.6240   36.8280 C.2   203  ASN203      0.2627
     29  OD1       12.6770   45.6890   36.1840 O.2   203  ASN203     -0.2716
     30  ND2       12.8870   44.6040   38.1760 N.am  203  ASN203     -0.0877
     31  N         20.5140   37.5070   48.2770 N.3   333  ASP333     -0.1239
     32  CA        19.4000   38.4510   47.8860 C.3   333  ASP333      0.1674
     33  C         18.0540   37.6940   47.7470 C.2   333  ASP333      0.2266
     34  O         17.8790   36.9930   46.7430 O.2   333  ASP333     -0.2867
     35  CB        19.8540   39.0700   46.5730 C.3   333  ASP333      0.1410
     36  CG        18.8830   40.0570   45.9880 C.2   333  ASP333      0.3668
     37  OD1       17.9740   40.3460   46.7880 O.co2 333  ASP333     -0.2456
     38  OD2       19.0740   40.5150   44.8120 O.co2 333  ASP333     -0.2456
     39  N          9.4080   42.0620   44.7450 N.3   370  MET370     -0.1230
     40  CA        10.3660   43.1570   44.6370 C.3   370  MET370      0.1702
     41  C         11.1810   42.9770   43.3610 C.2   370  MET370      0.2592
     42  O         11.4740   43.9660   42.6590 O.2   370  MET370     -0.2718
     43  CB        11.2770   43.1490   45.9070 C.3   370  MET370      0.0401
     44  CG        12.3160   44.2550   45.9510 C.3   370  MET370      0.0596
     45  SD        13.7730   43.9170   44.8950 S.3   370  MET370     -0.1393
     46  CE        14.9580   45.0630   45.6470 C.3   370  MET370      0.0692
     47  N         11.5580   41.7270   43.0580 N.am  371  GLU371     -0.1979
     48  CA        12.4190   41.5140   41.9020 C.3   371  GLU371      0.1602
     49  C         11.7640   41.9060   40.5830 C.2   371  GLU371      0.2287
     50  O         12.4330   42.0610   39.5650 O.2   371  GLU371     -0.2864
     51  CB        12.9220   40.0420   41.8450 C.3   371  GLU371      0.0415
     52  CG        13.8460   39.6290   43.0270 C.3   371  GLU371      0.1163
     53  CD        15.2330   40.2780   43.0420 C.2   371  GLU371      0.3649
     54  OE1       15.5230   41.3050   42.3520 O.co2 371  GLU371     -0.2457
     55  OE2       16.0290   39.8280   43.8810 O.co2 371  GLU371     -0.2457
     56  N          9.9760   44.6830   40.2310 N.3   373  GLY373     -0.1210
     57  CA         9.8580   46.1460   40.1360 C.3   373  GLY373      0.1956
     58  C          9.3420   46.8040   41.3810 C.2   373  GLY373      0.2611
     59  O          8.5990   47.8310   41.3360 O.2   373  GLY373     -0.2717
     60  N          9.7380   46.2760   42.5320 N.am  374  LEU374     -0.1979
     61  CA         9.3460   46.8870   43.8610 C.3   374  LEU374      0.1596
     62  C          7.7930   46.8500   43.9900 C.2   374  LEU374      0.2287
     63  O          7.2040   47.7230   44.5910 O.2   374  LEU374     -0.2864
     64  CB         9.8890   48.3450   44.0470 C.3   374  LEU374      0.0297
     65  CG        11.3050   48.5730   43.4320 C.3   374  LEU374      0.0022
     66  CD1       11.6590   50.0460   43.6690 C.3   374  LEU374      0.0001
     67  CD2       12.3440   47.6690   44.1200 C.3   374  LEU374      0.0001
     68  N         17.0330   44.5760   52.6920 N.3   399  ASP399     -0.1225
     69  CA        17.4360   43.5900   51.6840 C.3   399  ASP399      0.1805
     70  C         18.7790   42.9990   52.0990 C.2   399  ASP399      0.2598
     71  O         19.1080   43.0170   53.2930 O.2   399  ASP399     -0.2718
     72  CB        17.4640   44.1760   50.2540 C.3   399  ASP399      0.1424
     73  CG        17.3350   43.1560   49.1780 C.2   399  ASP399      0.3668
     74  OD1       17.3760   41.9540   49.4620 O.co2 399  ASP399     -0.2456
     75  OD2       17.1910   43.5960   48.0000 O.co2 399  ASP399     -0.2456
     76  N         19.5260   42.4600   51.1500 N.am  400  SER400     -0.1952
     77  CA        20.8080   41.7400   51.4250 C.3   400  SER400      0.1924
     78  C         21.6390   42.3620   52.5500 C.2   400  SER400      0.2314
     79  O         21.9090   43.5810   52.5470 O.2   400  SER400     -0.2863
     80  CB        21.6350   41.6830   50.1510 C.3   400  SER400      0.2116
     81  OG        20.8270   41.1630   49.1150 O.3   400  SER400     -0.2180
     82  N         27.1800   42.2530   50.8840 N.3   403  GLU403     -0.1245
     83  CA        27.5620   42.1840   49.4910 C.3   403  GLU403      0.1567
     84  C         29.0780   42.0530   49.4200 C.2   403  GLU403      0.2260
     85  O         29.6910   42.1600   48.3530 O.2   403  GLU403     -0.2867
     86  CB        27.0260   43.4020   48.6890 C.3   403  GLU403      0.0388
     87  CG        27.5950   44.7760   49.0940 C.3   403  GLU403      0.1160
     88  CD        26.8360   45.9780   48.4810 C.2   403  GLU403      0.3649
     89  OE1       25.8790   45.7890   47.7000 O.co2 403  GLU403     -0.2457
     90  OE2       27.2110   47.1650   48.7870 O.co2 403  GLU403     -0.2457
     91  N         28.2840   49.6670   54.9860 N.3   409  ARG409     -0.1245
     92  CA        27.7580   50.6510   53.9880 C.3   409  ARG409      0.1563
     93  C         26.4680   51.1910   54.5690 C.2   409  ARG409      0.2260
     94  O         25.6350   50.4040   54.9980 O.2   409  ARG409     -0.2867
     95  CB        27.4750   49.9590   52.6580 C.3   409  ARG409      0.0307
     96  CG        26.7510   50.8800   51.6840 C.3   409  ARG409      0.0489
     97  CD        26.3710   50.0780   50.4720 C.3   409  ARG409      0.2205
     98  NE        25.3670   50.8080   49.6710 N.pl3 409  ARG409     -0.0865
     99  CZ        24.9180   50.3510   48.5110 C.cat 409  ARG409      0.5346
    100  NH1       25.3690   49.1830   48.0270 N.pl3 409  ARG409      0.1354
    101  NH2       24.0080   51.0580   47.8200 N.pl3 409  ARG409      0.1354
    102  N         18.0000   54.1400   44.2660 N.3   463  SER463     -0.1202
    103  CA        16.7290   53.3650   44.1610 C.3   463  SER463      0.2020
    104  C         17.0750   51.9570   43.7500 C.2   463  SER463      0.2619
    105  O         18.2160   51.5010   43.9780 O.2   463  SER463     -0.2717
    106  CB        15.7380   53.9870   43.2210 C.3   463  SER463      0.2103
    107  OG        14.5060   53.2950   43.2530 O.3   463  SER463     -0.2182
    108  N         16.1120   51.2140   43.1910 N.am  464  GLY464     -0.1942
    109  CA        16.3550   49.7800   42.9760 C.3   464  GLY464      0.2014
    110  C         16.1180   48.9970   44.2590 C.2   464  GLY464      0.2638
    111  O         16.5300   47.8400   44.3450 O.2   464  GLY464     -0.2714
    112  N         15.4210   49.5860   45.2520 N.am  465  ASN465     -0.1972
    113  CA        15.0310   48.8000   46.4070 C.3   465  ASN465      0.1688
    114  C         13.7720   49.3590   47.0590 C.2   465  ASN465      0.2292
    115  O         13.2930   50.4360   46.6430 O.2   465  ASN465     -0.2864
    116  CB        16.2180   48.6050   47.4160 C.3   465  ASN465      0.1181
    117  CG        16.2510   47.1800   47.9210 C.2   465  ASN465      0.2629
    118  OD1       15.2970   46.7230   48.5890 O.2   465  ASN465     -0.2716
    119  ND2       17.2920   46.4320   47.5300 N.am  465  ASN465     -0.0877
    120  N         19.2060   52.6300   54.8700 N.3   480  ARG480     -0.1245
    121  CA        19.5710   51.2190   54.6340 C.3   480  ARG480      0.1563
    122  C         21.0320   51.0360   55.1070 C.2   480  ARG480      0.2260
    123  O         21.7810   52.0010   55.1190 O.2   480  ARG480     -0.2867
    124  CB        19.4390   50.8390   53.1310 C.3   480  ARG480      0.0307
    125  CG        20.4730   51.5260   52.2220 C.3   480  ARG480      0.0489
    126  CD        20.1290   51.3400   50.7360 C.3   480  ARG480      0.2205
    127  NE        20.0630   49.9160   50.3170 N.pl3 480  ARG480     -0.0865
    128  CZ        20.0540   49.5320   49.0310 C.cat 480  ARG480      0.5346
    129  NH1       20.1120   50.4270   48.0450 N.pl3 480  ARG480      0.1354
    130  NH2       19.8870   48.2460   48.7530 N.pl3 480  ARG480      0.1354
    131  N         24.2800   47.7190   55.1810 N.3   482  ARG482     -0.1245
    132  CA        24.7040   46.3170   54.9200 C.3   482  ARG482      0.1563
    133  C         26.2160   46.2930   54.9840 C.2   482  ARG482      0.2260
    134  O         26.8640   47.3270   54.9210 O.2   482  ARG482     -0.2867
    135  CB        24.2230   45.8040   53.5210 C.3   482  ARG482      0.0307
    136  CG        24.6760   46.6720   52.3410 C.3   482  ARG482      0.0489
    137  CD        24.5010   45.9660   50.9990 C.3   482  ARG482      0.2205
    138  NE        23.0760   45.6550   50.8010 N.pl3 482  ARG482     -0.0865
    139  CZ        22.4530   45.6250   49.6280 C.cat 482  ARG482      0.5346
    140  NH1       23.1110   45.8860   48.4760 N.pl3 482  ARG482      0.1354
    141  NH2       21.1700   45.3090   49.6080 N.pl3 482  ARG482      0.1354
    142  N         30.0700   49.5600   42.8400 N.3   488  LYS488     -0.1231
    143  CA        28.9270   49.2670   43.7400 C.3   488  LYS488      0.1693
    144  C         27.5750   49.0230   43.0430 C.2   488  LYS488      0.2592
    145  O         26.7230   48.3860   43.6220 O.2   488  LYS488     -0.2718
    146  CB        28.7480   50.3490   44.8400 C.3   488  LYS488      0.0285
    147  CG        28.1110   51.6740   44.4530 C.3   488  LYS488      0.0035
    148  CD        28.0680   52.5660   45.7080 C.3   488  LYS488      0.0206
    149  CE        27.1630   53.7840   45.5990 C.3   488  LYS488      0.1093
    150  NZ        26.5360   54.1300   46.9140 N.3   488  LYS488     -0.1314
    151  N         27.4070   49.4690   41.8020 N.am  489  PHE489     -0.1962
    152  CA        26.0990   49.2590   41.1200 C.3   489  PHE489      0.1771
    153  C         26.0680   48.0020   40.2490 C.2   489  PHE489      0.2620
    154  O         25.0510   47.6360   39.7230 O.2   489  PHE489     -0.2715
    155  CB        25.7840   50.4790   40.2480 C.3   489  PHE489      0.0574
    156  CG        25.6960   51.7730   41.0180 C.ar  489  PHE489     -0.0200
    157  CD1       24.8410   51.8910   42.1210 C.ar  489  PHE489     -0.0042
    158  CD2       26.4520   52.8940   40.6010 C.ar  489  PHE489     -0.0042
    159  CE1       24.7290   53.1080   42.8200 C.ar  489  PHE489     -0.0003
    160  CE2       26.3330   54.1060   41.3010 C.ar  489  PHE489     -0.0003
    161  CZ        25.4860   54.2020   42.4090 C.ar  489  PHE489     -0.0000
    162  N         27.1680   47.2930   40.1210 N.am  490  SER490     -0.1936
    163  CA        27.1650   46.0870   39.2450 C.3   490  SER490      0.2055
    164  C         26.6890   44.8440   39.9490 C.2   490  SER490      0.2644
    165  O         26.2920   43.8890   39.2780 O.2   490  SER490     -0.2714
    166  CB        28.6100   45.8440   38.7170 C.3   490  SER490      0.2130
    167  OG        29.0740   47.0300   38.0720 O.3   490  SER490     -0.2179
    168  N         26.6600   44.8330   41.2900 N.am  491  GLY491     -0.1939
    169  CA        26.3350   43.5920   42.0000 C.3   491  GLY491      0.2014
    170  C         27.6130   42.7660   42.2370 C.2   491  GLY491      0.2638
    171  O         28.6110   42.9530   41.5470 O.2   491  GLY491     -0.2714
    172  N         27.5600   41.8990   43.2340 N.am  492  TYR492     -0.1973
    173  CA        28.6430   40.9380   43.5650 C.3   492  TYR492      0.1639
    174  C         28.5990   39.8620   42.4500 C.2   492  TYR492      0.2290
    175  O         27.6330   39.7710   41.6700 O.2   492  TYR492     -0.2864
    176  CB        28.3980   40.3550   44.9750 C.3   492  TYR492      0.0560
    177  CG        26.9570   39.9870   45.2060 C.ar  492  TYR492     -0.0198
    178  CD1       26.0710   40.9480   45.6850 C.ar  492  TYR492     -0.0009
    179  CD2       26.4880   38.7030   44.9220 C.ar  492  TYR492     -0.0009
    180  CE1       24.7410   40.6340   45.8380 C.ar  492  TYR492      0.0417
    181  CE2       25.1410   38.3560   45.1100 C.ar  492  TYR492      0.0417
    182  CZ        24.3070   39.3550   45.5500 C.ar  492  TYR492      0.1957
    183  OH        22.9640   39.0890   45.7220 O.3   492  TYR492     -0.2866
    184  N         25.4400   37.5820   41.9130 N.3   495  TYR495     -0.1227
    185  CA        24.1450   38.2950   41.9320 C.3   495  TYR495      0.1736
    186  C         23.1280   37.7450   40.9370 C.2   495  TYR495      0.2595
    187  O         23.3920   37.7500   39.7040 O.2   495  TYR495     -0.2718
    188  CB        24.5020   39.7700   41.7350 C.3   495  TYR495      0.0548
    189  CG        23.3230   40.7580   41.5210 C.ar  495  TYR495     -0.0200
    190  CD1       22.4350   41.0580   42.5490 C.ar  495  TYR495     -0.0009
    191  CD2       23.1740   41.3780   40.2740 C.ar  495  TYR495     -0.0009
    192  CE1       21.3540   41.9600   42.3130 C.ar  495  TYR495      0.0417
    193  CE2       22.1680   42.3160   40.0690 C.ar  495  TYR495      0.0417
    194  CZ        21.2660   42.5660   41.0760 C.ar  495  TYR495      0.1957
    195  OH        20.2630   43.4870   40.7790 O.3   495  TYR495     -0.2866
    196  N         21.9220   37.3600   41.4550 N.am  496  HIS496     -0.1975
    197  CA        20.7480   36.9280   40.6440 C.3   496  HIS496      0.1656
    198  C         21.0120   35.6670   39.7940 C.2   496  HIS496      0.2291
    199  O         20.3100   35.3980   38.8330 O.2   496  HIS496     -0.2864
    200  CB        20.2420   38.0870   39.7770 C.3   496  HIS496      0.0771
    201  CG        19.5500   39.1960   40.5550 C.ar  496  HIS496      0.0820
    202  ND1       18.9010   40.2020   39.8630 N.ar  496  HIS496     -0.2267
    203  CD2       19.3300   39.4230   41.8730 C.ar  496  HIS496      0.1154
    204  CE1       18.3290   41.0290   40.7150 C.ar  496  HIS496      0.1986
    205  NE2       18.5430   40.5570   41.9490 N.ar  496  HIS496     -0.2212
    206  N         18.9330   54.0520   37.5790 N.3   642  LYS642     -0.1231
    207  CA        17.9770   54.0050   38.6990 C.3   642  LYS642      0.1693
    208  C         18.6410   53.7180   40.0320 C.2   642  LYS642      0.2592
    209  O         18.1250   54.1330   41.0910 O.2   642  LYS642     -0.2718
    210  CB        16.9610   52.8910   38.3560 C.3   642  LYS642      0.0285
    211  CG        15.7870   52.8360   39.3300 C.3   642  LYS642      0.0035
    212  CD        14.8540   51.7180   38.9190 C.3   642  LYS642      0.0206
    213  CE        13.5440   51.9130   39.7210 C.3   642  LYS642      0.1093
    214  NZ        12.6460   50.7460   39.5090 N.3   642  LYS642     -0.1314
    215  N         19.7800   52.9840   40.0410 N.am  643  TYR643     -0.1976
    216  CA        20.3510   52.6860   41.3460 C.3   643  TYR643      0.1639
    217  C         20.9830   53.8650   42.0360 C.2   643  TYR643      0.2290
    218  O         21.0800   53.8560   43.2700 O.2   643  TYR643     -0.2864
    219  CB        21.4870   51.6770   41.1410 C.3   643  TYR643      0.0560
    220  CG        21.0910   50.2950   40.6450 C.ar  643  TYR643     -0.0198
    221  CD1       20.0070   49.5980   41.1960 C.ar  643  TYR643     -0.0009
    222  CD2       21.9020   49.6380   39.7140 C.ar  643  TYR643     -0.0009
    223  CE1       19.6740   48.2960   40.7750 C.ar  643  TYR643      0.0417
    224  CE2       21.6130   48.3110   39.2850 C.ar  643  TYR643      0.0417
    225  CZ        20.5010   47.6540   39.8420 C.ar  643  TYR643      0.1957
    226  OH        20.2180   46.3650   39.4130 O.3   643  TYR643     -0.2866
@<TRIPOS>BOND
     1    15    14    2
     2    14    13    1
     3    13    16    1
     4    13    12    1
     5    16    17    1
     6     4     3    2
     7    17    18    1
     8    18    19    1
     9    25    26    2
    10    25    24    1
    11    12     3   am
    12     3     2    1
    13    24    27    1
    14    24    23    1
    15    19    20    2
    16    10     8   ar
    17    10    11   ar
    18     8     6   ar
    19    27    28    1
    20    29    28    2
    21     2     1    1
    22     2     5    1
    23    11     9   ar
    24    20    21    1
    25    20    22    1
    26     6     5    1
    27     6     7   ar
    28    28    30   am
    29     9     7   ar
    30   206   207    1
    31   167   166    1
    32   210   207    1
    33   210   211    1
    34   207   208    1
    35   166   163    1
    36   199   198    2
    37   212   211    1
    38   212   213    1
    39   163   164    1
    40   163   162    1
    41   165   164    2
    42   224   222   ar
    43   224   225   ar
    44   226   225    1
    45   214   213    1
    46    50    49    2
    47   187   186    2
    48   222   220   ar
    49   154   153    2
    50   200   201    1
    51   200   197    1
    52   198   197    1
    53   225   223   ar
    54   202   201   ar
    55   202   204   ar
    56   164   168   am
    57   208   215   am
    58   208   209    2
    59   215   216    1
    60   193   191   ar
    61   193   194   ar
    62   162   153   am
    63    57    56    1
    64    57    58    1
    65   155   156    1
    66   155   152    1
    67   153   152    1
    68   191   189   ar
    69   201   203   ar
    70    49    48    1
    71   158   156   ar
    72   158   160   ar
    73   197   196    1
    74   220   219    1
    75   220   221   ar
    76   204   205   ar
    77   223   221   ar
    78   195   194    1
    79   186   196   am
    80   186   185    1
    81   156   157   ar
    82   194   192   ar
    83   152   151    1
    84   219   216    1
    85   168   169    1
    86   160   161   ar
    87    59    58    2
    88   216   217    1
    89    58    60   am
    90   189   188    1
    91   189   190   ar
    92   171   170    2
    93   175   174    2
    94   188   185    1
    95   151   144   am
    96    51    48    1
    97    51    52    1
    98   203   205   ar
    99    48    47    1
   100   184   185    1
   101   169   170    1
   102   217   218    2
   103   157   159   ar
   104   170   172   am
   105   192   190   ar
   106    54    53   ar
   107   161   159   ar
   108   174   173    1
   109    60    61    1
   110    42    41    2
   111   142   143    1
   112   109   108    1
   113   109   110    1
   114    52    53    1
   115    53    55   ar
   116   144   145    2
   117   144   143    1
   118    47    41   am
   119   108   104   am
   120   106   107    1
   121   106   103    1
   122   172   173    1
   123    41    40    1
   124    65    66    1
   125    65    64    1
   126    65    67    1
   127   173   176    1
   128   143   146    1
   129   104   105    2
   130   104   103    1
   131    61    62    1
   132    61    64    1
   133    62    63    2
   134   103   102    1
   135   110   111    2
   136   110   112   am
   137   147   146    1
   138   147   148    1
   139    40    39    1
   140    40    43    1
   141    38    36   ar
   142    45    46    1
   143    45    44    1
   144   179   181   ar
   145   179   177   ar
   146   176   177    1
   147   181   182   ar
   148   177   178   ar
   149   112   113    1
   150   182   183    1
   151   182   180   ar
   152   149   148    1
   153   149   150    1
   154   178   180   ar
   155    43    44    1
   156    36    35    1
   157    36    37   ar
   158   113   114    1
   159   113   116    1
   160    35    32    1
   161   115   114    2
   162    34    33    2
   163   116   117    1
   164   119   117   am
   165    89    88   ar
   166    33    32    1
   167   101    99    1
   168    32    31    1
   169   117   118    2
   170    75    73   ar
   171   100    99    1
   172   129   128    1
   173    85    84    2
   174   140   139    1
   175    88    90   ar
   176    88    87    1
   177    99    98    2
   178    86    87    1
   179    86    83    1
   180   130   128    1
   181   128   127    2
   182    81    80    1
   183    73    74   ar
   184    73    72    1
   185    84    83    1
   186    83    82    1
   187   141   139    1
   188   139   138    2
   189    98    97    1
   190    80    77    1
   191    72    69    1
   192   127   126    1
   193    97    96    1
   194   126   125    1
   195   138   137    1
   196   137   136    1
   197    76    77    1
   198    76    70   am
   199    77    78    1
   200    69    70    1
   201    69    68    1
   202    96    95    1
   203    70    71    2
   204   125   124    1
   205   136   135    1
   206    79    78    2
   207    95    92    1
   208   124   121    1
   209   135   132    1
   210    92    93    1
   211    92    91    1
   212    93    94    2
   213   121   120    1
   214   121   122    1
   215   132   133    1
   216   132   131    1
   217   134   133    2
   218   122   123    2
