@<TRIPOS>MOLECULE
tmp/6fe6A00.pdb
 176 169 0 0 0
SMALL
GASTEIGER

@<TRIPOS>ATOM
      1  N        109.1330   -8.5170   11.5410 N.3    20  GLN20      -0.1231
      2  CA       110.3020   -7.7090   11.0780 C.3    20  GLN20       0.1698
      3  C        109.8590   -6.3060   10.6610 C.2    20  GLN20       0.2593
      4  O        108.7000   -6.0710   10.3780 O.2    20  GLN20      -0.2718
      5  CB       110.8580   -8.4740    9.8770 C.3    20  GLN20       0.0381
      6  CG       111.4990   -9.7780   10.3560 C.3    20  GLN20       0.0905
      7  CD       112.0300  -10.5600    9.1530 C.2    20  GLN20       0.2608
      8  OE1      112.7190  -10.0140    8.3140 O.2    20  GLN20      -0.2717
      9  NE2      111.7310  -11.8240    9.0300 N.am   20  GLN20      -0.0878
     10  N        110.7770   -5.3750   10.6190 N.am   21  SER21      -0.1938
     11  CA       110.4180   -3.9820   10.2170 C.3    21  SER21       0.2055
     12  C        111.4980   -3.4040    9.2990 C.2    21  SER21       0.2643
     13  O        112.6480   -3.2850    9.6740 O.2    21  SER21      -0.2714
     14  CB       110.3440   -3.1960   11.5240 C.3    21  SER21       0.2130
     15  OG       110.1010   -1.8260   11.2350 O.3    21  SER21      -0.2179
     16  N        111.1280   -3.0430    8.0990 N.am   22  PHE22      -0.1973
     17  CA       112.1160   -2.4680    7.1370 C.3    22  PHE22       0.1639
     18  C        111.5150   -1.2410    6.4460 C.2    22  PHE22       0.2290
     19  O        110.3740   -0.8910    6.6780 O.2    22  PHE22      -0.2864
     20  CB       112.4010   -3.5810    6.1190 C.3    22  PHE22       0.0560
     21  CG       111.1080   -4.0620    5.4980 C.ar   22  PHE22      -0.0200
     22  CD1      110.3600   -5.0560    6.1380 C.ar   22  PHE22      -0.0042
     23  CD2      110.6620   -3.5180    4.2880 C.ar   22  PHE22      -0.0042
     24  CE1      109.1660   -5.5070    5.5700 C.ar   22  PHE22      -0.0003
     25  CE2      109.4640   -3.9710    3.7190 C.ar   22  PHE22      -0.0003
     26  CZ       108.7160   -4.9660    4.3610 C.ar   22  PHE22      -0.0000
     27  N        113.6400   -4.7790    0.5450 N.3    34  VAL34      -0.1231
     28  CA       114.5690   -5.9490    0.5990 C.3    34  VAL34       0.1692
     29  C        113.7610   -7.2520    0.5720 C.2    34  VAL34       0.2592
     30  O        112.6900   -7.3360    1.1440 O.2    34  VAL34      -0.2718
     31  CB       115.3290   -5.8010    1.9190 C.3    34  VAL34       0.0266
     32  CG1      116.3360   -6.9490    2.0650 C.3    34  VAL34       0.0020
     33  CG2      116.0750   -4.4610    1.9340 C.3    34  VAL34       0.0020
     34  N        114.2550   -8.2600   -0.1080 N.am   35  TYR35      -0.1962
     35  CA       113.5030   -9.5490   -0.1930 C.3    35  TYR35       0.1771
     36  C        113.6790  -10.3930    1.0800 C.2    35  TYR35       0.2620
     37  O        112.7380  -11.0170    1.5350 O.2    35  TYR35      -0.2715
     38  CB       114.0720  -10.2590   -1.4310 C.3    35  TYR35       0.0574
     39  CG       113.4870  -11.6480   -1.5530 C.ar   35  TYR35      -0.0198
     40  CD1      112.3870  -11.8790   -2.3860 C.ar   35  TYR35      -0.0009
     41  CD2      114.0480  -12.7020   -0.8250 C.ar   35  TYR35      -0.0009
     42  CE1      111.8480  -13.1670   -2.4910 C.ar   35  TYR35       0.0417
     43  CE2      113.5110  -13.9880   -0.9290 C.ar   35  TYR35       0.0417
     44  CZ       112.4110  -14.2220   -1.7620 C.ar   35  TYR35       0.1957
     45  OH       111.8800  -15.4920   -1.8650 O.3    35  TYR35      -0.2866
     46  N        114.8620  -10.4400    1.6520 N.am   36  HIS36      -0.1959
     47  CA       115.0500  -11.2760    2.8810 C.3    36  HIS36       0.1787
     48  C        114.1130  -10.7970    4.0040 C.2    36  HIS36       0.2620
     49  O        113.7750  -11.5490    4.8990 O.2    36  HIS36      -0.2715
     50  CB       116.5450  -11.1650    3.2610 C.3    36  HIS36       0.0785
     51  CG       116.8880   -9.8410    3.9130 C.ar   36  HIS36       0.0821
     52  ND1      117.9550   -9.0520    3.4650 N.ar   36  HIS36      -0.2267
     53  CD2      116.3690   -9.1810    5.0080 C.ar   36  HIS36       0.1154
     54  CE1      118.0430   -7.9810    4.2810 C.ar   36  HIS36       0.1986
     55  NE2      117.1060   -8.0320    5.2120 N.ar   36  HIS36      -0.2212
     56  N        113.6840   -9.5600    3.9490 N.am   37  GLY37      -0.1954
     57  CA       112.7580   -9.0370    4.9960 C.3    37  GLY37       0.1869
     58  C        111.3660   -9.6280    4.7640 C.2    37  GLY37       0.2309
     59  O        110.9060  -10.4650    5.5180 O.2    37  GLY37      -0.2863
     60  N        115.8970  -13.9310   -4.7360 N.3    57  VAL57      -0.1245
     61  CA       116.6550  -14.2790   -3.4950 C.3    57  VAL57       0.1561
     62  C        118.1570  -14.0470   -3.7180 C.2    57  VAL57       0.2260
     63  O        118.8410  -13.5170   -2.8630 O.2    57  VAL57      -0.2867
     64  CB       116.3440  -15.7650   -3.2290 C.3    57  VAL57       0.0252
     65  CG1      117.2490  -16.3170   -2.1160 C.3    57  VAL57       0.0019
     66  CG2      114.8860  -15.9060   -2.7840 C.3    57  VAL57       0.0019
     67  N        118.4400  -10.5350   -3.7190 N.3    60  ASP60      -0.1239
     68  CA       117.7470   -9.9410   -2.5290 C.3    60  ASP60       0.1674
     69  C        116.9870   -8.6790   -2.9510 C.2    60  ASP60       0.2266
     70  O        116.9740   -7.6850   -2.2510 O.2    60  ASP60      -0.2867
     71  CB       118.8600   -9.5940   -1.5310 C.3    60  ASP60       0.1410
     72  CG       118.2730   -9.4470   -0.1220 C.2    60  ASP60       0.3668
     73  OD1      117.0680   -9.3040    0.0200 O.co2  60  ASP60      -0.2456
     74  OD2      119.1310   -9.4800    0.9590 O.co2  60  ASP60      -0.2456
     75  N        130.0400   -2.7570   -2.9440 N.3   102  ARG102     -0.1245
     76  CA       130.5540   -2.7780   -1.5410 C.3   102  ARG102      0.1563
     77  C        131.2900   -1.4730   -1.2200 C.2   102  ARG102      0.2260
     78  O        131.9620   -0.9060   -2.0610 O.2   102  ARG102     -0.2867
     79  CB       131.5160   -3.9650   -1.4900 C.3   102  ARG102      0.0307
     80  CG       131.9760   -4.1860   -0.0480 C.3   102  ARG102      0.0489
     81  CD       132.6090   -5.5740    0.0790 C.3   102  ARG102      0.2205
     82  NE       133.8850   -5.5020   -0.7020 N.pl3 102  ARG102     -0.0865
     83  CZ       134.6070   -6.5810   -0.9330 C.cat 102  ARG102      0.5346
     84  NH1      134.3510   -7.7180   -0.3290 N.pl3 102  ARG102      0.1354
     85  NH2      135.5980   -6.5160   -1.7790 N.pl3 102  ARG102      0.1354
     86  N        126.5950   -4.2060   14.5470 N.3   111  VAL111     -0.1245
     87  CA       125.4500   -4.4830   13.6180 C.3   111  VAL111      0.1561
     88  C        124.1230   -4.0650   14.2700 C.2   111  VAL111      0.2260
     89  O        123.2160   -3.6040   13.6020 O.2   111  VAL111     -0.2867
     90  CB       125.4860   -6.0040   13.3770 C.3   111  VAL111      0.0252
     91  CG1      124.2720   -6.4400   12.5510 C.3   111  VAL111      0.0019
     92  CG2      126.7620   -6.3740   12.6140 C.3   111  VAL111      0.0019
     93  N        123.1470   -0.5370   13.4970 N.3   114  LEU114     -0.1231
     94  CA       122.6830   -0.3730   12.0880 C.3   114  LEU114      0.1693
     95  C        121.6080   -1.4170   11.7480 C.2   114  LEU114      0.2592
     96  O        121.3130   -1.6550   10.5920 O.2   114  LEU114     -0.2718
     97  CB       123.9450   -0.6020   11.2490 C.3   114  LEU114      0.0284
     98  CG       123.7130   -0.1380    9.8070 C.3   114  LEU114      0.0019
     99  CD1      123.4660    1.3720    9.7820 C.3   114  LEU114      0.0001
    100  CD2      124.9520   -0.4600    8.9670 C.3   114  LEU114      0.0001
    101  N        121.0220   -2.0480   12.7400 N.am  115  LYS115     -0.1966
    102  CA       119.9770   -3.0770   12.4540 C.3   115  LYS115      0.1728
    103  C        118.5880   -2.4370   12.3920 C.2   115  LYS115      0.2616
    104  O        118.2660   -1.5490   13.1590 O.2   115  LYS115     -0.2715
    105  CB       120.0620   -4.0750   13.6050 C.3   115  LYS115      0.0311
    106  CG       119.6180   -5.4480   13.1010 C.3   115  LYS115      0.0038
    107  CD       119.6960   -6.4660   14.2400 C.3   115  LYS115      0.0206
    108  CE       119.3570   -7.8580   13.7000 C.3   115  LYS115      0.1093
    109  NZ       118.9810   -8.6560   14.9000 N.3   115  LYS115     -0.1314
    110  N        117.7680   -2.8870   11.4770 N.am  116  GLY116     -0.1955
    111  CA       116.3940   -2.3170   11.3430 C.3   116  GLY116      0.1869
    112  C        116.4190   -1.1010   10.4100 C.2   116  GLY116      0.2309
    113  O        115.5260   -0.2750   10.4410 O.2   116  GLY116     -0.2863
    114  N        117.1540   -1.5300    6.9290 N.3   118  SER118     -0.1217
    115  CA       117.1430   -2.0340    5.5170 C.3   118  SER118      0.1889
    116  C        116.2040   -1.1790    4.6620 C.2   118  SER118      0.2288
    117  O        115.1800   -0.7130    5.1280 O.2   118  SER118     -0.2866
    118  CB       116.6180   -3.4670    5.6020 C.3   118  SER118      0.2089
    119  OG       117.4750   -4.2330    6.4340 O.3   118  SER118     -0.2183
    120  N        120.2230    0.1130    0.9550 N.3   133  PHE133     -0.1227
    121  CA       120.9760   -0.7850    1.8870 C.3   133  PHE133      0.1736
    122  C        120.4720   -2.2260    1.7510 C.2   133  PHE133      0.2595
    123  O        119.2870   -2.4630    1.6140 O.2   133  PHE133     -0.2718
    124  CB       120.6780   -0.2430    3.2890 C.3   133  PHE133      0.0547
    125  CG       121.6800   -0.7920    4.2810 C.ar  133  PHE133     -0.0202
    126  CD1      123.0530   -0.6740    4.0340 C.ar  133  PHE133     -0.0042
    127  CD2      121.2310   -1.4150    5.4520 C.ar  133  PHE133     -0.0042
    128  CE1      123.9770   -1.1790    4.9560 C.ar  133  PHE133     -0.0003
    129  CE2      122.1560   -1.9190    6.3740 C.ar  133  PHE133     -0.0003
    130  CZ       123.5280   -1.8010    6.1270 C.ar  133  PHE133     -0.0000
    131  N        121.3650   -3.1860    1.7820 N.am  134  ARG134     -0.1966
    132  CA       120.9370   -4.6130    1.6480 C.3   134  ARG134      0.1729
    133  C        121.3940   -5.4350    2.8600 C.2   134  ARG134      0.2616
    134  O        120.5840   -5.9010    3.6420 O.2   134  ARG134     -0.2715
    135  CB       121.6180   -5.1110    0.3720 C.3   134  ARG134      0.0348
    136  CG       121.1870   -6.5510    0.0900 C.3   134  ARG134      0.0492
    137  CD       121.8700   -7.0490   -1.1870 C.3   134  ARG134      0.2205
    138  NE       123.3150   -7.2040   -0.8260 N.pl3 134  ARG134     -0.0865
    139  CZ       124.2260   -7.4540   -1.7450 C.cat 134  ARG134      0.5346
    140  NH1      123.9470   -7.3820   -3.0250 N.pl3 134  ARG134      0.1354
    141  NH2      125.4340   -7.7780   -1.3730 N.pl3 134  ARG134      0.1354
    142  N        122.6810   -5.6260    3.0140 N.am  135  ALA135     -0.1963
    143  CA       123.1880   -6.4320    4.1660 C.3   135  ALA135      0.1728
    144  C        124.3840   -5.7420    4.8270 C.2   135  ALA135      0.2616
    145  O        125.1450   -5.0450    4.1820 O.2   135  ALA135     -0.2715
    146  CB       123.6170   -7.7680    3.5530 C.3   135  ALA135      0.0334
    147  N        124.5580   -5.9490    6.1070 N.am  136  ALA136     -0.1963
    148  CA       125.7110   -5.3280    6.8240 C.3   136  ALA136      0.1728
    149  C        126.8750   -6.3210    6.8650 C.2   136  ALA136      0.2616
    150  O        126.6700   -7.5140    6.8340 O.2   136  ALA136     -0.2715
    151  CB       125.1960   -5.0420    8.2350 C.3   136  ALA136      0.0334
    152  N        128.0920   -5.8360    6.9160 N.am  137  VAL137     -0.1963
    153  CA       129.2680   -6.7630    6.9410 C.3   137  VAL137      0.1727
    154  C        130.0880   -6.5520    8.2170 C.2   137  VAL137      0.2616
    155  O        130.5990   -5.4770    8.4630 O.2   137  VAL137     -0.2715
    156  CB       130.0980   -6.3870    5.7100 C.3   137  VAL137      0.0290
    157  CG1      131.3030   -7.3240    5.5970 C.3   137  VAL137      0.0023
    158  CG2      129.2430   -6.5170    4.4460 C.3   137  VAL137      0.0023
    159  N        130.2250   -7.5760    9.0220 N.am  138  CYS138     -0.1968
    160  CA       131.0220   -7.4460   10.2790 C.3   138  CYS138      0.1712
    161  C        131.8280   -8.7250   10.5360 C.2   138  CYS138      0.2296
    162  O        131.4930   -9.7870   10.0450 O.2   138  CYS138     -0.2864
    163  CB       129.9890   -7.2080   11.3900 C.3   138  CYS138      0.0983
    164  SG       128.8340   -8.6030   11.4930 S.3   138  CYS138     -0.0798
    165  N        130.5650   -8.9530   14.8530 N.3   141  GLY141     -0.1225
    166  CA       129.3790   -8.1380   15.2530 C.3   141  GLY141      0.1811
    167  C        129.6380   -6.6500   14.9660 C.2   141  GLY141      0.2280
    168  O        128.7360   -5.8370   15.0450 O.2   141  GLY141     -0.2866
    169  N        127.3890   -3.2880    2.1530 N.3   147  ASP147     -0.1239
    170  CA       127.1360   -3.7270    0.7490 C.3   147  ASP147      0.1674
    171  C        125.7220   -3.3340    0.3130 C.2   147  ASP147      0.2266
    172  O        124.7590   -3.5570    1.0240 O.2   147  ASP147     -0.2867
    173  CB       127.2820   -5.2490    0.7770 C.3   147  ASP147      0.1410
    174  CG       128.7480   -5.6260    0.5540 C.2   147  ASP147      0.3668
    175  OD1      129.2850   -5.2500   -0.4750 O.co2 147  ASP147     -0.2456
    176  OD2      129.3070   -6.2850    1.4130 O.co2 147  ASP147     -0.2456
@<TRIPOS>BOND
     1    60    61    1
     2    67    68    1
     3    62    61    1
     4    62    63    2
     5    61    64    1
     6    64    66    1
     7    64    65    1
     8   140   139    1
     9    69    68    1
    10    69    70    2
    11    75    76    1
    12    68    71    1
    13    42    40   ar
    14    42    44   ar
    15    40    39   ar
    16    78    77    2
    17    45    44    1
    18    85    83    1
    19    44    43   ar
    20   139   141    1
    21   139   138    2
    22    39    38    1
    23    39    41   ar
    24    76    79    1
    25    76    77    1
    26    71    72    1
    27    79    80    1
    28    38    35    1
    29   137   138    1
    30   137   136    1
    31    83    82    2
    32    83    84    1
    33    43    41   ar
    34    82    81    1
    35   175   174   ar
    36    35    34    1
    37    35    36    1
    38    72    73   ar
    39    72    74   ar
    40    34    29   am
    41    80    81    1
    42   136   135    1
    43   171   170    1
    44   171   172    2
    45   135   132    1
    46    27    28    1
    47   174   173    1
    48   174   176   ar
    49    29    28    1
    50    29    30    2
    51    28    31    1
    52   170   173    1
    53   170   169    1
    54   120   121    1
    55    36    37    2
    56    36    46   am
    57   123   122    2
    58   132   131    1
    59   132   133    1
    60    46    47    1
    61   122   131   am
    62   122   121    1
    63   121   124    1
    64    31    33    1
    65    31    32    1
    66   133   142   am
    67   133   134    2
    68    47    50    1
    69    47    48    1
    70   142   143    1
    71    50    51    1
    72   124   125    1
    73    52    51   ar
    74    52    54   ar
    75   146   143    1
    76    25    23   ar
    77    25    26   ar
    78    51    53   ar
    79    56    48   am
    80    56    57    1
    81    48    49    2
    82   126   125   ar
    83   126   128   ar
    84   143   144    1
    85   145   144    2
    86    54    55   ar
    87   125   127   ar
    88    23    21   ar
    89    26    24   ar
    90   158   156    1
    91   116   117    2
    92   116   115    1
    93    58    57    1
    94    58    59    2
    95   144   147   am
    96   128   130   ar
    97    53    55   ar
    98   127   129   ar
    99    21    20    1
   100    21    22   ar
   101   115   118    1
   102   115   114    1
   103    24    22   ar
   104   157   156    1
   105   118   119    1
   106   156   153    1
   107   147   148    1
   108    20    17    1
   109   130   129   ar
   110    18    19    2
   111    18    17    1
   112   148   149    1
   113   148   151    1
   114   150   149    2
   115   149   152   am
   116   152   153    1
   117   153   154    1
   118    17    16    1
   119    16    12   am
   120   154   155    2
   121   154   159   am
   122     8     7    2
   123   100    98    1
   124   159   160    1
   125     9     7   am
   126     7     6    1
   127    12    13    2
   128    12    11    1
   129    99    98    1
   130    98    97    1
   131     5     6    1
   132     5     2    1
   133   162   161    2
   134    11    10    1
   135    11    14    1
   136   160   161    1
   137   160   163    1
   138     4     3    2
   139   112   113    2
   140   112   111    1
   141    96    95    2
   142    10     3   am
   143     3     2    1
   144     2     1    1
   145    15    14    1
   146    97    94    1
   147   111   110    1
   148   163   164    1
   149   110   103   am
   150    95    94    1
   151    95   101   am
   152    94    93    1
   153   103   102    1
   154   103   104    2
   155   102   101    1
   156   102   105    1
   157    91    90    1
   158    92    90    1
   159   106   105    1
   160   106   107    1
   161    90    87    1
   162    89    88    2
   163    87    88    1
   164    87    86    1
   165   108   107    1
   166   108   109    1
   167   165   166    1
   168   167   168    2
   169   167   166    1
