@<TRIPOS>MOLECULE
tmp/6fekA00.pdb
 149 140 0 0 0
SMALL
GASTEIGER

@<TRIPOS>ATOM
      1  N         27.4910   -8.7190    4.9560 N.3    31  LEU31      -0.1231
      2  CA        27.9290   -9.1540    6.2750 C.3    31  LEU31       0.1693
      3  C         28.3890  -10.6030    6.2970 C.2    31  LEU31       0.2593
      4  O         29.0770  -11.0040    7.2420 O.2    31  LEU31      -0.2718
      5  CB        26.8020   -8.9690    7.2950 C.3    31  LEU31       0.0284
      6  CG        26.3210   -7.5280    7.4650 C.3    31  LEU31       0.0019
      7  CD1       25.0700   -7.4700    8.3300 C.3    31  LEU31       0.0001
      8  CD2       27.4220   -6.6630    8.0590 C.3    31  LEU31       0.0001
      9  N         28.0320  -11.3820    5.2910 N.am   32  GLY32      -0.1942
     10  CA        28.4800  -12.7530    5.1820 C.3    32  GLY32       0.2014
     11  C         27.5600  -13.5610    4.3020 C.2    32  GLY32       0.2639
     12  O         26.4280  -13.1720    4.0060 O.2    32  GLY32      -0.2714
     13  N         28.0680  -14.7090    3.8640 N.am   33  GLU33      -0.1963
     14  CA        27.3040  -15.6630    3.0720 C.3    33  GLU33       0.1733
     15  C         27.1250  -16.9410    3.8760 C.2    33  GLU33       0.2616
     16  O         28.1050  -17.5190    4.3570 O.2    33  GLU33      -0.2715
     17  CB        28.0040  -15.9670    1.7440 C.3    33  GLU33       0.0429
     18  CG        28.0100  -14.7910    0.7440 C.3    33  GLU33       0.1163
     19  CD        28.3080  -15.2160   -0.6920 C.2    33  GLU33       0.3649
     20  OE1       29.4210  -15.7010   -0.9520 O.co2  33  GLU33      -0.2457
     21  OE2       27.4340  -15.0520   -1.5740 O.co2  33  GLU33      -0.2457
     22  N         25.8760  -17.3670    4.0330 N.am   34  GLY34      -0.1955
     23  CA        25.5820  -18.6270    4.6860 C.3    34  GLY34       0.1869
     24  C         24.9880  -19.6240    3.7150 C.2    34  GLY34       0.2309
     25  O         25.3730  -19.6630    2.5420 O.2    34  GLY34      -0.2863
     26  N         21.3040  -20.9560    1.9310 N.3    36  PHE36      -0.1241
     27  CA        20.1000  -20.3030    1.4200 C.3    36  PHE36       0.1605
     28  C         20.4540  -18.9900    0.7320 C.2    36  PHE36       0.2264
     29  O         19.9440  -18.7100   -0.3570 O.2    36  PHE36      -0.2867
     30  CB        19.0560  -20.0680    2.5200 C.3    36  PHE36       0.0534
     31  CG        19.4450  -19.2140    3.7090 C.ar   36  PHE36      -0.0203
     32  CD1       19.4710  -17.8000    3.6270 C.ar   36  PHE36      -0.0042
     33  CD2       19.8640  -19.7470    4.9220 C.ar   36  PHE36      -0.0042
     34  CE1       19.8060  -17.0270    4.6950 C.ar   36  PHE36      -0.0003
     35  CE2       20.1600  -18.9740    6.0130 C.ar   36  PHE36      -0.0003
     36  CZ        20.1600  -17.5920    5.9030 C.ar   36  PHE36      -0.0000
     37  N         23.7640  -12.2560    3.4630 N.3    39  VAL39      -0.1245
     38  CA        23.2170  -11.2620    4.3780 C.3    39  VAL39       0.1561
     39  C         23.9870   -9.9660    4.1810 C.2    39  VAL39       0.2260
     40  O         25.2210   -9.9810    4.1020 O.2    39  VAL39      -0.2867
     41  CB        23.3050  -11.7270    5.8440 C.3    39  VAL39       0.0252
     42  CG1       22.7650  -10.6540    6.7880 C.3    39  VAL39       0.0019
     43  CG2       22.5370  -13.0200    6.0240 C.3    39  VAL39       0.0019
     44  N         19.4140   -5.8730    9.1220 N.3    57  ALA57      -0.1245
     45  CA        20.0660   -6.8490    8.2640 C.3    57  ALA57       0.1562
     46  C         19.0420   -7.3870    7.2750 C.2    57  ALA57       0.2260
     47  O         17.8390   -7.3850    7.5470 O.2    57  ALA57      -0.2867
     48  CB        20.6690   -7.9980    9.0750 C.3    57  ALA57       0.0290
     49  N         18.2430  -10.6320    4.6510 N.3    59  LYS59      -0.1245
     50  CA        18.5150  -11.9940    4.2110 C.3    59  LYS59       0.1561
     51  C         17.9010  -12.1840    2.8300 C.2    59  LYS59       0.2260
     52  O         16.6890  -12.0160    2.6590 O.2    59  LYS59      -0.2867
     53  CB        17.9310  -12.9960    5.2080 C.3    59  LYS59       0.0271
     54  CG        18.8110  -13.1440    6.4480 C.3    59  LYS59       0.0035
     55  CD        18.4390  -14.3820    7.2340 C.3    59  LYS59       0.0206
     56  CE        19.4540  -14.7600    8.3040 C.3    59  LYS59       0.1093
     57  NZ        19.3420  -16.1690    8.7230 N.3    59  LYS59      -0.1314
     58  N         16.4340  -13.9970   17.0310 N.3    89  ILE89      -0.1245
     59  CA        16.5160  -12.8780   16.1020 C.3    89  ILE89       0.1561
     60  C         15.1150  -12.4900   15.6600 C.2    89  ILE89       0.2260
     61  O         14.2410  -13.3440   15.4790 O.2    89  ILE89      -0.2867
     62  CB        17.4130  -13.2330   14.9020 C.3    89  ILE89       0.0252
     63  CG1       17.8100  -11.9720   14.1310 C.3    89  ILE89       0.0019
     64  CG2       16.7180  -14.2200   13.9670 C.3    89  ILE89       0.0019
     65  CD1       18.7910  -11.0800   14.8670 C.3    89  ILE89       0.0001
     66  N         15.5400   -8.2120    9.0560 N.3   105  VAL105     -0.1231
     67  CA        15.6690   -8.7390   10.4070 C.3   105  VAL105      0.1692
     68  C         16.4880   -7.7800   11.2610 C.2   105  VAL105      0.2592
     69  O         17.1820   -6.8900   10.7660 O.2   105  VAL105     -0.2718
     70  CB        16.3020  -10.1470   10.4340 C.3   105  VAL105      0.0266
     71  CG1       15.4810  -11.1170    9.5940 C.3   105  VAL105      0.0020
     72  CG2       17.7510  -10.1090    9.9540 C.3   105  VAL105      0.0020
     73  N         16.3910   -7.9950   12.5690 N.am  106  GLU106     -0.1966
     74  CA        17.1800   -7.2680   13.5490 C.3   106  GLU106      0.1733
     75  C         18.6660   -7.3500   13.2210 C.2   106  GLU106      0.2616
     76  O         19.1810   -8.4170   12.8800 O.2   106  GLU106     -0.2715
     77  CB        16.8920   -7.8630   14.9280 C.3   106  GLU106      0.0429
     78  CG        17.6990   -7.3090   16.0810 C.3   106  GLU106      0.1163
     79  CD        17.4050   -8.0450   17.3840 C.2   106  GLU106      0.3649
     80  OE1       16.7870   -9.1330   17.3290 O.co2 106  GLU106     -0.2457
     81  OE2       17.7890   -7.5410   18.4620 O.co2 106  GLU106     -0.2457
     82  N         19.3500   -6.2120   13.3180 N.am  107  TYR107     -0.1960
     83  CA        20.7870   -6.1460   13.0860 C.3   107  TYR107      0.1771
     84  C         21.5320   -6.4790   14.3740 C.2   107  TYR107      0.2619
     85  O         21.2650   -5.8870   15.4240 O.2   107  TYR107     -0.2715
     86  CB        21.1910   -4.7580   12.5820 C.3   107  TYR107      0.0574
     87  CG        22.6850   -4.5670   12.4680 C.ar  107  TYR107     -0.0198
     88  CD1       23.4190   -5.2410   11.5020 C.ar  107  TYR107     -0.0009
     89  CD2       23.3620   -3.7120   13.3250 C.ar  107  TYR107     -0.0009
     90  CE1       24.7880   -5.0700   11.3940 C.ar  107  TYR107      0.0417
     91  CE2       24.7270   -3.5320   13.2250 C.ar  107  TYR107      0.0417
     92  CZ        25.4380   -4.2150   12.2590 C.ar  107  TYR107      0.1957
     93  OH        26.8030   -4.0430   12.1560 O.3   107  TYR107     -0.2866
     94  N         22.4590   -7.4310   14.2870 N.am  108  ALA108     -0.1977
     95  CA        23.2910   -7.8520   15.4110 C.3   108  ALA108      0.1597
     96  C         24.6880   -7.2880   15.1790 C.2   108  ALA108      0.2287
     97  O         25.4030   -7.7380   14.2780 O.2   108  ALA108     -0.2864
     98  CB        23.3130   -9.3740   15.5350 C.3   108  ALA108      0.0319
     99  N         28.0100   -9.5110   14.9920 N.3   111  GLY111     -0.1210
    100  CA        28.0880  -10.6620   14.1120 C.3   111  GLY111      0.1956
    101  C         27.8290  -11.9820   14.8270 C.2   111  GLY111      0.2612
    102  O         27.2350  -12.0470   15.9070 O.2   111  GLY111     -0.2717
    103  N         28.3010  -13.0540   14.1930 N.am  112  SER112     -0.1952
    104  CA        28.0400  -14.4010   14.6790 C.3   112  SER112      0.1924
    105  C         28.8390  -14.6950   15.9440 C.2   112  SER112      0.2314
    106  O         29.9270  -14.1580   16.1640 O.2   112  SER112     -0.2863
    107  CB        28.3880  -15.4320   13.6060 C.3   112  SER112      0.2116
    108  OG        29.7780  -15.7110   13.5980 O.3   112  SER112     -0.2180
    109  N         28.1360  -20.7220   14.7420 N.3   164  ARG164     -0.1231
    110  CA        28.0300  -19.9650   13.5010 C.3   164  ARG164      0.1694
    111  C         26.6130  -19.4680   13.2460 C.2   164  ARG164      0.2592
    112  O         26.4280  -18.5600   12.4290 O.2   164  ARG164     -0.2718
    113  CB        28.4990  -20.8210   12.3220 C.3   164  ARG164      0.0321
    114  CG        28.4160  -20.1730   10.9100 C.3   164  ARG164      0.0489
    115  CD        28.5270  -21.2050    9.8010 C.3   164  ARG164      0.2205
    116  NE        27.5360  -22.1530   10.0300 N.pl3 164  ARG164     -0.0865
    117  CZ        27.4660  -23.3450    9.5450 C.cat 164  ARG164      0.5346
    118  NH1       28.3750  -23.8080    8.6720 N.pl3 164  ARG164      0.1354
    119  NH2       26.5050  -24.1730    9.9160 N.pl3 164  ARG164      0.1354
    120  N         25.6160  -20.0370   13.9230 N.am  165  ASN165     -0.1974
    121  CA        24.2190  -19.6670   13.7320 C.3   165  ASN165      0.1688
    122  C         23.6450  -18.9140   14.9250 C.2   165  ASN165      0.2292
    123  O         22.4250  -18.7370   15.0070 O.2   165  ASN165     -0.2864
    124  CB        23.3800  -20.9140   13.4530 C.3   165  ASN165      0.1181
    125  CG        23.7620  -21.5920   12.1540 C.2   165  ASN165      0.2629
    126  OD1       24.1460  -20.9340   11.1880 O.2   165  ASN165     -0.2716
    127  ND2       23.6600  -22.9150   12.1240 N.am  165  ASN165     -0.0877
    128  N         23.8700  -15.1990   16.8760 N.3   167  LEU167     -0.1245
    129  CA        24.2900  -13.8270   16.6420 C.3   167  LEU167      0.1561
    130  C         24.4670  -13.1010   17.9680 C.2   167  LEU167      0.2260
    131  O         23.7720  -13.3790   18.9480 O.2   167  LEU167     -0.2867
    132  CB        23.2760  -13.0790   15.7780 C.3   167  LEU167      0.0270
    133  CG        23.1270  -13.5790   14.3430 C.3   167  LEU167      0.0019
    134  CD1       21.8350  -13.0580   13.7390 C.3   167  LEU167      0.0001
    135  CD2       24.3170  -13.1530   13.4960 C.3   167  LEU167      0.0001
    136  N         19.5200  -17.7130   15.3430 N.3   177  SER177     -0.1202
    137  CA        19.1990  -17.3440   13.9710 C.3   177  SER177      0.2020
    138  C         19.2810  -18.5940   13.1030 C.2   177  SER177      0.2618
    139  O         19.4080  -19.7160   13.6040 O.2   177  SER177     -0.2717
    140  CB        20.1400  -16.2350   13.4810 C.3   177  SER177      0.2103
    141  OG        19.8840  -15.9100   12.1260 O.3   177  SER177     -0.2182
    142  N         19.1980  -18.3990   11.7860 N.am  178  ASP178     -0.1973
    143  CA        19.2970  -19.4830   10.8090 C.3   178  ASP178      0.1709
    144  C         18.1940  -20.5220   11.0430 C.2   178  ASP178      0.2293
    145  O         18.4280  -21.6450   11.4940 O.2   178  ASP178     -0.2864
    146  CB        20.6930  -20.1210   10.8560 C.3   178  ASP178      0.1436
    147  CG        21.0650  -20.9420    9.6370 C.2   178  ASP178      0.3671
    148  OD1       20.2330  -21.3790    8.8040 O.co2 178  ASP178     -0.2456
    149  OD2       22.3070  -21.1430    9.5530 O.co2 178  ASP178     -0.2456
@<TRIPOS>BOND
     1    21    19   ar
     2    20    19   ar
     3    19    18    1
     4    29    28    2
     5    28    27    1
     6    18    17    1
     7    27    26    1
     8    27    30    1
     9    17    14    1
    10    30    31    1
    11    25    24    2
    12    52    51    2
    13    51    50    1
    14    14    13    1
    15    14    15    1
    16    37    38    1
    17    32    31   ar
    18    32    34   ar
    19    31    33   ar
    20    24    23    1
    21    13    11   am
    22    15    22   am
    23    15    16    2
    24    12    11    2
    25    22    23    1
    26    40    39    2
    27    39    38    1
    28    50    49    1
    29    50    53    1
    30    11    10    1
    31    38    41    1
    32    34    36   ar
    33    33    35   ar
    34     1     2    1
    35    10     9    1
    36    53    54    1
    37     9     3   am
    38    41    43    1
    39    41    42    1
    40    36    35   ar
    41     2     3    1
    42     2     5    1
    43     3     4    2
    44    54    55    1
    45    55    56    1
    46    46    47    2
    47    46    45    1
    48     5     6    1
    49     6     8    1
    50     6     7    1
    51    45    48    1
    52    45    44    1
    53    56    57    1
    54   118   117    1
    55   148   147   ar
    56    66    67    1
    57   117   119    1
    58   117   116    2
    59   149   147   ar
    60    71    70    1
    61   147   146    1
    62   115   116    1
    63   115   114    1
    64    72    70    1
    65    67    70    1
    66    67    68    1
    67    69    68    2
    68   143   146    1
    69   143   144    1
    70   143   142    1
    71   114   113    1
    72   144   145    2
    73   126   125    2
    74    68    73   am
    75    90    88   ar
    76    90    92   ar
    77    88    87   ar
    78   142   138   am
    79   127   125   am
    80   141   140    1
    81   125   124    1
    82    93    92    1
    83    92    91   ar
    84   113   110    1
    85   112   111    2
    86    87    86    1
    87    87    89   ar
    88    73    74    1
    89    86    83    1
    90    76    75    2
    91    83    82    1
    92    83    84    1
    93   138   139    2
    94   138   137    1
    95    75    82   am
    96    75    74    1
    97    91    89   ar
    98   111   110    1
    99   111   120   am
   100   124   121    1
   101   140   137    1
   102   135   133    1
   103   110   109    1
   104    74    77    1
   105   108   107    1
   106   107   104    1
   107   121   120    1
   108   121   122    1
   109   134   133    1
   110    64    62    1
   111   137   136    1
   112   100   101    1
   113   100    99    1
   114    63    65    1
   115    63    62    1
   116   103   104    1
   117   103   101   am
   118    97    96    2
   119    94    84   am
   120    94    95    1
   121   133   132    1
   122    84    85    2
   123   104   105    1
   124   101   102    2
   125    62    59    1
   126   122   123    2
   127    77    78    1
   128    96    95    1
   129    95    98    1
   130    61    60    2
   131    60    59    1
   132   132   129    1
   133   105   106    2
   134    78    79    1
   135    59    58    1
   136   129   128    1
   137   129   130    1
   138    80    79   ar
   139    79    81   ar
   140   130   131    2
