@<TRIPOS>MOLECULE
tmp/6feqA01.pdb
 147 139 0 0 0
SMALL
GASTEIGER

@<TRIPOS>ATOM
      1  N        144.5050  132.5720  106.9370 N.3   305  GLN305     -0.1245
      2  CA       143.2550  133.0720  107.4930 C.3   305  GLN305      0.1566
      3  C        142.3560  131.9790  108.0600 C.2   305  GLN305      0.2260
      4  O        141.3440  132.3000  108.6870 O.2   305  GLN305     -0.2867
      5  CB       142.4950  133.8620  106.4240 C.3   305  GLN305      0.0367
      6  CG       143.1970  135.1320  105.9380 C.3   305  GLN305      0.0905
      7  CD       143.2550  136.2300  106.9920 C.2   305  GLN305      0.2608
      8  OE1      142.3050  136.4350  107.7470 O.2   305  GLN305     -0.2717
      9  NE2      144.3740  136.9470  107.0370 N.am  305  GLN305     -0.0878
     10  N        143.5950  132.7960  112.2930 N.3   309  ALA309     -0.1231
     11  CA       142.3460  133.1980  112.9260 C.3   309  ALA309      0.1694
     12  C        142.0530  132.4240  114.1990 C.2   309  ALA309      0.2591
     13  O        141.5750  133.0170  115.1670 O.2   309  ALA309     -0.2718
     14  CB       141.1840  133.0250  111.9530 C.3   309  ALA309      0.0304
     15  N        142.3560  131.1360  114.2380 N.am  310  GLN310     -0.1979
     16  CA       142.2030  130.3930  115.4740 C.3   310  GLN310      0.1601
     17  C        143.2150  130.7930  116.5300 C.2   310  GLN310      0.2287
     18  O        142.9470  130.6060  117.7180 O.2   310  GLN310     -0.2864
     19  CB       142.3160  128.8960  115.2190 C.3   310  GLN310      0.0394
     20  CG       141.1710  128.3300  114.4340 C.3   310  GLN310      0.0908
     21  CD       141.2920  126.8410  114.2700 C.2   310  GLN310      0.2608
     22  OE1      142.2670  126.2370  114.7110 O.2   310  GLN310     -0.2717
     23  NE2      140.3020  126.2330  113.6320 N.am  310  GLN310     -0.0878
     24  N        141.6800  134.4100  117.8220 N.3   313  VAL313     -0.1245
     25  CA       140.5270  134.1530  118.6790 C.3   313  VAL313      0.1561
     26  C        140.9690  133.5890  120.0190 C.2   313  VAL313      0.2260
     27  O        140.4340  133.9670  121.0640 O.2   313  VAL313     -0.2867
     28  CB       139.5390  133.2210  117.9540 C.3   313  VAL313      0.0252
     29  CG1      138.4410  132.7490  118.8730 C.3   313  VAL313      0.0019
     30  CG2      138.9110  133.9480  116.7960 C.3   313  VAL313      0.0019
     31  N        140.0890  135.8060  123.2840 N.3   317  LEU317     -0.1245
     32  CA       139.2680  135.1460  124.2870 C.3   317  LEU317      0.1561
     33  C        140.1120  134.6830  125.4610 C.2   317  LEU317      0.2260
     34  O        139.5840  134.4470  126.5450 O.2   317  LEU317     -0.2867
     35  CB       138.5210  133.9840  123.6520 C.3   317  LEU317      0.0270
     36  CG       137.3810  133.3050  124.3810 C.3   317  LEU317      0.0019
     37  CD1      136.3220  134.3290  124.6800 C.3   317  LEU317      0.0001
     38  CD2      136.8220  132.2750  123.4630 C.3   317  LEU317      0.0001
     39  N        134.9670  125.4140  133.7490 N.3   343  PHE343     -0.1227
     40  CA       133.9560  124.9110  132.8400 C.3   343  PHE343      0.1736
     41  C        133.9990  125.6350  131.5140 C.2   343  PHE343      0.2595
     42  O        133.5980  125.0770  130.4920 O.2   343  PHE343     -0.2718
     43  CB       132.5760  125.0430  133.4640 C.3   343  PHE343      0.0547
     44  CG       131.4920  124.4990  132.6160 C.ar  343  PHE343     -0.0202
     45  CD1      131.3470  123.1430  132.4620 C.ar  343  PHE343     -0.0042
     46  CD2      130.6190  125.3400  131.9650 C.ar  343  PHE343     -0.0042
     47  CE1      130.3570  122.6360  131.6750 C.ar  343  PHE343     -0.0003
     48  CE2      129.6200  124.8320  131.1790 C.ar  343  PHE343     -0.0003
     49  CZ       129.4910  123.4780  131.0400 C.ar  343  PHE343     -0.0000
     50  N        134.4840  126.8650  131.4970 N.am  344  PHE344     -0.1976
     51  CA       134.5330  127.5580  130.2240 C.3   344  PHE344      0.1639
     52  C        135.7540  127.1460  129.4210 C.2   344  PHE344      0.2290
     53  O        135.7140  127.1600  128.1900 O.2   344  PHE344     -0.2864
     54  CB       134.5140  129.0620  130.4390 C.3   344  PHE344      0.0560
     55  CG       134.4280  129.8370  129.1740 C.ar  344  PHE344     -0.0200
     56  CD1      133.2360  129.9360  128.4990 C.ar  344  PHE344     -0.0042
     57  CD2      135.5440  130.4530  128.6490 C.ar  344  PHE344     -0.0042
     58  CE1      133.1550  130.6430  127.3300 C.ar  344  PHE344     -0.0003
     59  CE2      135.4700  131.1560  127.4790 C.ar  344  PHE344     -0.0003
     60  CZ       134.2730  131.2570  126.8230 C.ar  344  PHE344     -0.0000
     61  N        135.0170  123.3630  127.8830 N.3   347  THR347     -0.1203
     62  CA       134.0490  123.4030  126.8060 C.3   347  THR347      0.1994
     63  C        134.4980  124.2530  125.6380 C.2   347  THR347      0.2617
     64  O        134.0050  124.0440  124.5310 O.2   347  THR347     -0.2717
     65  CB       132.7230  123.9210  127.3210 C.3   347  THR347      0.1784
     66  OG1      132.9210  125.2140  127.8950 O.3   347  THR347     -0.2211
     67  CG2      132.1900  122.9870  128.3670 C.3   347  THR347      0.0376
     68  N        135.4230  125.1870  125.8410 N.am  348  ASN348     -0.1974
     69  CA       135.9520  125.9210  124.7000 C.3   348  ASN348      0.1688
     70  C        136.7810  125.0170  123.8080 C.2   348  ASN348      0.2292
     71  O        136.8510  125.2330  122.5970 O.2   348  ASN348     -0.2864
     72  CB       136.8120  127.0850  125.1570 C.3   348  ASN348      0.1181
     73  CG       136.8780  128.1850  124.1370 C.2   348  ASN348      0.2629
     74  OD1      137.4580  129.2270  124.3930 O.2   348  ASN348     -0.2716
     75  ND2      136.2290  127.9900  122.9980 N.am  348  ASN348     -0.0877
     76  N        133.9310  122.8680  121.6390 N.3   351  PHE351     -0.1227
     77  CA       133.1690  123.5350  120.5980 C.3   351  PHE351      0.1736
     78  C        134.0500  124.2240  119.5730 C.2   351  PHE351      0.2596
     79  O        133.5840  124.4990  118.4670 O.2   351  PHE351     -0.2718
     80  CB       132.2010  124.5160  121.2310 C.3   351  PHE351      0.0547
     81  CG       131.0850  123.8510  121.9660 C.ar  351  PHE351     -0.0202
     82  CD1      129.9650  123.4200  121.2930 C.ar  351  PHE351     -0.0042
     83  CD2      131.1680  123.6290  123.3230 C.ar  351  PHE351     -0.0042
     84  CE1      128.9400  122.8100  121.9670 C.ar  351  PHE351     -0.0003
     85  CE2      130.1530  123.0120  123.9990 C.ar  351  PHE351     -0.0003
     86  CZ       129.0380  122.6060  123.3240 C.ar  351  PHE351     -0.0000
     87  N        135.3130  124.4760  119.8870 N.am  352  SER352     -0.1952
     88  CA       136.2180  124.9420  118.8500 C.3   352  SER352      0.1924
     89  C        136.8310  123.8000  118.0690 C.2   352  SER352      0.2314
     90  O        137.5880  124.0510  117.1280 O.2   352  SER352     -0.2863
     91  CB       137.3320  125.7980  119.4420 C.3   352  SER352      0.2116
     92  OG       138.1570  125.0260  120.2930 O.3   352  SER352     -0.2180
     93  N        135.5820  122.7980  114.0630 N.3   355  SER355     -0.1217
     94  CA       136.3090  123.1170  112.8420 C.3   355  SER355      0.1889
     95  C        137.1640  121.9650  112.3290 C.2   355  SER355      0.2288
     96  O        137.6800  122.0570  111.2130 O.2   355  SER355     -0.2866
     97  CB       137.1950  124.3390  113.0700 C.3   355  SER355      0.2089
     98  OG       138.2220  124.0500  114.0000 O.3   355  SER355     -0.2183
     99  N        126.1040  119.9570  112.3080 N.3   451  LEU451     -0.1245
    100  CA       124.9540  119.8110  113.1860 C.3   451  LEU451      0.1561
    101  C        125.2010  118.7460  114.2350 C.2   451  LEU451      0.2260
    102  O        125.0310  118.9950  115.4290 O.2   451  LEU451     -0.2867
    103  CB       123.7160  119.4440  112.3810 C.3   451  LEU451      0.0270
    104  CG       122.5190  119.1630  113.2830 C.3   451  LEU451      0.0019
    105  CD1      122.0850  120.4300  114.0000 C.3   451  LEU451      0.0001
    106  CD2      121.3770  118.5460  112.5060 C.3   451  LEU451      0.0001
    107  N        127.3220  119.3850  117.1490 N.3   454  THR454     -0.1203
    108  CA       126.6800  120.2880  118.0910 C.3   454  THR454      0.1994
    109  C        125.6650  119.5430  118.9450 C.2   454  THR454      0.2617
    110  O        125.4660  119.8930  120.1120 O.2   454  THR454     -0.2717
    111  CB       126.0230  121.4390  117.3320 C.3   454  THR454      0.1784
    112  OG1      126.9710  121.9900  116.4160 O.3   454  THR454     -0.2211
    113  CG2      125.5990  122.5420  118.2750 C.3   454  THR454      0.0376
    114  N        125.0530  118.4900  118.3970 N.am  455  ILE455     -0.1979
    115  CA       124.0950  117.7070  119.1670 C.3   455  ILE455      0.1595
    116  C        124.8090  116.9500  120.2660 C.2   455  ILE455      0.2287
    117  O        124.3700  116.9470  121.4180 O.2   455  ILE455     -0.2864
    118  CB       123.3250  116.7250  118.2730 C.3   455  ILE455      0.0276
    119  CG1      122.7810  117.4030  117.0240 C.3   455  ILE455      0.0022
    120  CG2      122.2070  116.0790  119.0530 C.3   455  ILE455      0.0022
    121  CD1      121.9130  118.5580  117.2590 C.3   455  ILE455      0.0001
    122  N        126.2300  119.1660  123.4320 N.3   458  VAL458     -0.1231
    123  CA       125.2810  119.7230  124.3930 C.3   458  VAL458      0.1692
    124  C        124.6210  118.6610  125.2480 C.2   458  VAL458      0.2592
    125  O        124.0080  119.0030  126.2590 O.2   458  VAL458     -0.2718
    126  CB       124.1620  120.5510  123.7410 C.3   458  VAL458      0.0266
    127  CG1      124.7610  121.6210  122.8910 C.3   458  VAL458      0.0020
    128  CG2      123.2330  119.6900  122.9390 C.3   458  VAL458      0.0020
    129  N        124.7210  117.3880  124.8790 N.am  459  PHE459     -0.1976
    130  CA       124.3680  116.3480  125.8260 C.3   459  PHE459      0.1639
    131  C        125.5380  115.9830  126.7130 C.2   459  PHE459      0.2290
    132  O        125.3390  115.6700  127.8910 O.2   459  PHE459     -0.2864
    133  CB       123.8570  115.1040  125.1070 C.3   459  PHE459      0.0560
    134  CG       122.4850  115.2580  124.5540 C.ar  459  PHE459     -0.0200
    135  CD1      121.3870  115.1950  125.3840 C.ar  459  PHE459     -0.0042
    136  CD2      122.2850  115.4400  123.2030 C.ar  459  PHE459     -0.0042
    137  CE1      120.1130  115.3340  124.8780 C.ar  459  PHE459     -0.0003
    138  CE2      121.0140  115.5820  122.6900 C.ar  459  PHE459     -0.0003
    139  CZ       119.9290  115.5260  123.5280 C.ar  459  PHE459     -0.0000
    140  N        127.6880  118.1850  127.6260 N.3   461  MET461     -0.1245
    141  CA       127.7980  119.3420  128.4900 C.3   461  MET461      0.1570
    142  C        126.9260  119.2390  129.7290 C.2   461  MET461      0.2261
    143  O        127.3170  119.7440  130.7830 O.2   461  MET461     -0.2867
    144  CB       127.4230  120.5980  127.7050 C.3   461  MET461      0.0387
    145  CG       127.7320  121.8690  128.4070 C.3   461  MET461      0.0595
    146  SD       127.2950  123.3040  127.4420 S.3   461  MET461     -0.1393
    147  CE       125.5240  123.2610  127.6180 C.3   461  MET461      0.0692
@<TRIPOS>BOND
     1     6     5    1
     2     6     7    1
     3     5     2    1
     4     1     2    1
     5     7     9   am
     6     7     8    2
     7     2     3    1
     8     3     4    2
     9    96    95    2
    10    14    11    1
    11    10    11    1
    12    99   100    1
    13    95    94    1
    14   103   100    1
    15   103   104    1
    16   106   104    1
    17    94    97    1
    18    94    93    1
    19    11    12    1
    20    97    98    1
    21   100   101    1
    22   104   105    1
    23    23    21   am
    24    12    15   am
    25    12    13    2
    26   101   102    2
    27    15    16    1
    28    21    20    1
    29    21    22    2
    30    20    19    1
    31    19    16    1
    32    16    17    1
    33   112   111    1
    34    17    18    2
    35    30    28    1
    36   119   121    1
    37   119   118    1
    38    90    89    2
    39   107   108    1
    40   111   108    1
    41   111   113    1
    42    24    25    1
    43    28    25    1
    44    28    29    1
    45    89    88    1
    46   108   109    1
    47   118   120    1
    48   118   115    1
    49   114   109   am
    50   114   115    1
    51    79    78    2
    52    25    26    1
    53    88    91    1
    54    88    87    1
    55   109   110    2
    56   115   116    1
    57    91    92    1
    58    78    87   am
    59    78    77    1
    60    26    27    2
    61   116   117    2
    62    77    80    1
    63    77    76    1
    64    80    81    1
    65    82    81   ar
    66    82    84   ar
    67    81    83   ar
    68    84    86   ar
    69    71    70    2
    70   138   136   ar
    71   138   139   ar
    72   127   126    1
    73   128   126    1
    74    75    73   am
    75   136   134   ar
    76    31    32    1
    77    83    85   ar
    78    86    85   ar
    79   122   123    1
    80    38    36    1
    81   139   137   ar
    82    35    32    1
    83    35    36    1
    84   126   123    1
    85    70    69    1
    86    73    74    2
    87    73    72    1
    88    32    33    1
    89    36    37    1
    90   123   124    1
    91    64    63    2
    92   134   133    1
    93   134   135   ar
    94    69    72    1
    95    69    68    1
    96   137   135   ar
    97   129   124   am
    98   129   130    1
    99   133   130    1
   100   124   125    2
   101    33    34    2
   102    63    68   am
   103    63    62    1
   104   130   131    1
   105   131   132    2
   106    62    65    1
   107    62    61    1
   108    60    58   ar
   109    60    59   ar
   110    65    66    1
   111    65    67    1
   112    58    56   ar
   113   146   147    1
   114   146   145    1
   115    59    57   ar
   116   140   141    1
   117   144   145    1
   118   144   141    1
   119    53    52    2
   120   141   142    1
   121    56    55   ar
   122    57    55   ar
   123    55    54    1
   124    52    51    1
   125   142   143    2
   126    51    54    1
   127    51    50    1
   128    42    41    2
   129    49    48   ar
   130    49    47   ar
   131    48    46   ar
   132    50    41   am
   133    41    40    1
   134    47    45   ar
   135    46    44   ar
   136    45    44   ar
   137    44    43    1
   138    40    43    1
   139    40    39    1
