@<TRIPOS>MOLECULE
tmp/6ferD00.pdb
 222 211 0 0 0
SMALL
GASTEIGER

@<TRIPOS>ATOM
      1  N         46.7020  110.9810   19.2870 N.3    17  LEU17      -0.1231
      2  CA        45.9240  110.7730   20.4990 C.3    17  LEU17       0.1693
      3  C         46.4220  109.6140   21.3440 C.2    17  LEU17       0.2592
      4  O         46.2880  109.6500   22.5690 O.2    17  LEU17      -0.2718
      5  CB        44.4470  110.5710   20.1460 C.3    17  LEU17       0.0284
      6  CG        43.7380  111.8590   19.7100 C.3    17  LEU17       0.0019
      7  CD1       42.2410  111.6750   19.5270 C.3    17  LEU17       0.0001
      8  CD2       44.0180  112.9560   20.7250 C.3    17  LEU17       0.0001
      9  N         47.0110  108.6020   20.7330 N.am   18  GLY18      -0.1957
     10  CA        47.4950  107.4760   21.5020 C.3    18  GLY18       0.1869
     11  C         48.1870  106.4910   20.5890 C.2    18  GLY18       0.2309
     12  O         48.0720  106.5560   19.3560 O.2    18  GLY18      -0.2863
     13  N         46.4250  106.2380   17.1110 N.3    25  VAL25      -0.1245
     14  CA        45.1440  106.9240   17.0060 C.3    25  VAL25       0.1561
     15  C         45.4030  108.4140   16.8220 C.2    25  VAL25       0.2260
     16  O         46.1200  109.0380   17.6200 O.2    25  VAL25      -0.2867
     17  CB        44.2510  106.6550   18.2300 C.3    25  VAL25       0.0252
     18  CG1       43.0160  107.5040   18.1720 C.3    25  VAL25       0.0019
     19  CG2       43.8510  105.2180   18.2340 C.3    25  VAL25       0.0019
     20  N         38.4430  111.0600   15.4970 N.3    35  ALA35      -0.1231
     21  CA        39.5420  110.1820   15.8720 C.3    35  ALA35       0.1694
     22  C         39.6100  108.9910   14.9240 C.2    35  ALA35       0.2592
     23  O         38.6150  108.2840   14.7470 O.2    35  ALA35      -0.2718
     24  CB        39.3710  109.6910   17.3100 C.3    35  ALA35       0.0304
     25  N         40.7850  108.7700   14.3290 N.am   36  VAL36      -0.1966
     26  CA        41.0680  107.6340   13.4520 C.3    36  VAL36       0.1727
     27  C         41.9840  106.6720   14.1910 C.2    36  VAL36       0.2616
     28  O         43.0470  107.0680   14.6790 O.2    36  VAL36      -0.2715
     29  CB        41.7290  108.0790   12.1350 C.3    36  VAL36       0.0290
     30  CG1       41.5340  107.0200   11.0650 C.3    36  VAL36       0.0023
     31  CG2       41.1760  109.4000   11.6840 C.3    36  VAL36       0.0023
     32  N         41.5780  105.4150   14.2730 N.am   37  LYS37      -0.1977
     33  CA        42.4370  104.3590   14.7910 C.3    37  LYS37       0.1596
     34  C         42.9940  103.6520   13.5710 C.2    37  LYS37       0.2287
     35  O         42.2800  102.9250   12.8780 O.2    37  LYS37      -0.2864
     36  CB        41.6780  103.4140   15.7090 C.3    37  LYS37       0.0298
     37  CG        42.4210  102.1670   16.1100 C.3    37  LYS37       0.0038
     38  CD        41.6990  101.5330   17.2810 C.3    37  LYS37       0.0206
     39  CE        42.3720  100.2660   17.7500 C.3    37  LYS37       0.1093
     40  NZ        41.5740   99.5930   18.8140 N.3    37  LYS37      -0.1314
     41  N         37.9740   93.5300   14.9060 N.3    54  GLU54      -0.1245
     42  CA        37.5480   94.7280   15.6180 C.3    54  GLU54       0.1567
     43  C         36.6250   95.5710   14.7460 C.2    54  GLU54       0.2260
     44  O         35.6140   96.0850   15.2300 O.2    54  GLU54      -0.2867
     45  CB        38.7770   95.5270   16.0760 C.3    54  GLU54       0.0388
     46  CG        38.5310   96.6740   17.0810 C.3    54  GLU54       0.1160
     47  CD        38.9190   96.3270   18.5250 C.2    54  GLU54       0.3649
     48  OE1       38.4870   95.2530   19.0200 O.co2  54  GLU54      -0.2457
     49  OE2       39.6530   97.1320   19.1580 O.co2  54  GLU54      -0.2457
     50  N         32.9050   96.4690   15.9460 N.3    58  MET58      -0.1245
     51  CA        32.5350   97.8710   16.1210 C.3    58  MET58       0.1570
     52  C         31.3930   98.2770   15.2010 C.2    58  MET58       0.2261
     53  O         30.5630   99.1190   15.5800 O.2    58  MET58      -0.2867
     54  CB        33.7420   98.7810   15.8690 C.3    58  MET58       0.0387
     55  CG        34.8100   98.6070   16.9100 C.3    58  MET58       0.0595
     56  SD        34.1500   98.8150   18.5670 S.3    58  MET58      -0.1393
     57  CE        34.1390  100.5910   18.6760 C.3    58  MET58       0.0692
     58  N         27.8950   98.0140   16.8200 N.3    61  LEU61      -0.1245
     59  CA        27.6110   98.7210   18.0710 C.3    61  LEU61       0.1561
     60  C         26.9440  100.0650   17.7710 C.2    61  LEU61       0.2260
     61  O         27.5960  100.9940   17.2760 O.2    61  LEU61      -0.2867
     62  CB        28.8930   98.9250   18.8740 C.3    61  LEU61       0.0270
     63  CG        29.7160   97.7100   19.2610 C.3    61  LEU61       0.0019
     64  CD1       30.6600   98.1250   20.3300 C.3    61  LEU61       0.0001
     65  CD2       28.8000   96.6490   19.7750 C.3    61  LEU61       0.0001
     66  N         28.1520  104.5410   23.4060 N.3    66  ILE66      -0.1231
     67  CA        29.2110  103.6030   23.0670 C.3    66  ILE66       0.1692
     68  C         29.9830  104.1840   21.8920 C.2    66  ILE66       0.2591
     69  O         29.4300  104.9360   21.0850 O.2    66  ILE66      -0.2718
     70  CB        28.6610  102.1950   22.7470 C.3    66  ILE66       0.0266
     71  CG1       27.7930  101.6840   23.9030 C.3    66  ILE66       0.0019
     72  CG2       29.7900  101.2200   22.4980 C.3    66  ILE66       0.0020
     73  CD1       28.5180  101.4490   25.2220 C.3    66  ILE66       0.0001
     74  N         31.2780  103.8590   21.8080 N.am   67  ILE67      -0.1980
     75  CA        32.0600  104.3320   20.6750 C.3    67  ILE67       0.1595
     76  C         31.3970  103.8010   19.4120 C.2    67  ILE67       0.2287
     77  O         31.0540  102.6160   19.3200 O.2    67  ILE67      -0.2864
     78  CB        33.5370  103.8950   20.8080 C.3    67  ILE67       0.0276
     79  CG1       34.3340  104.8920   21.6370 C.3    67  ILE67       0.0022
     80  CG2       34.2470  103.8720   19.4790 C.3    67  ILE67       0.0022
     81  CD1       34.4880  106.2370   20.9360 C.3    67  ILE67       0.0001
     82  N         31.0120  103.6020   15.1450 N.3    69  LEU69      -0.1245
     83  CA        31.8260  103.5740   13.9340 C.3    69  LEU69       0.1561
     84  C         31.1670  104.3980   12.8320 C.2    69  LEU69       0.2260
     85  O         30.1270  103.9990   12.2940 O.2    69  LEU69      -0.2867
     86  CB        32.0280  102.1340   13.4840 C.3    69  LEU69       0.0270
     87  CG        33.1900  101.9950   12.5280 C.3    69  LEU69       0.0019
     88  CD1       34.3940  102.4550   13.2870 C.3    69  LEU69       0.0001
     89  CD2       33.3560  100.5590   12.0860 C.3    69  LEU69       0.0001
     90  N         39.7690  103.0710   11.3070 N.3    81  MET81      -0.1230
     91  CA        38.4090  103.2560   11.7780 C.3    81  MET81       0.1702
     92  C         38.2450  104.7070   12.2010 C.2    81  MET81       0.2592
     93  O         39.1900  105.3350   12.6840 O.2    81  MET81      -0.2718
     94  CB        38.0920  102.3310   12.9390 C.3    81  MET81       0.0401
     95  CG        38.1230  100.8590   12.6150 C.3    81  MET81       0.0596
     96  SD        37.6150   99.9470   14.0850 S.3    81  MET81      -0.1393
     97  CE        39.1490   99.7660   14.9950 C.3    81  MET81       0.0692
     98  N         37.0490  105.2520   12.0040 N.am   82  ILE82      -0.1966
     99  CA        36.8090  106.6700   12.2550 C.3    82  ILE82       0.1727
    100  C         35.6950  106.8250   13.2880 C.2    82  ILE82       0.2617
    101  O         34.7290  106.0550   13.2940 O.2    82  ILE82      -0.2715
    102  CB        36.4810  107.4140   10.9440 C.3    82  ILE82       0.0290
    103  CG1       37.5380  107.0800    9.8880 C.3    82  ILE82       0.0022
    104  CG2       36.4440  108.9160   11.1630 C.3    82  ILE82       0.0023
    105  CD1       37.2860  107.7570    8.5630 C.3    82  ILE82       0.0001
    106  N         35.8290  107.8370   14.1480 N.am   83  THR83      -0.1937
    107  CA        34.9990  108.0210   15.3310 C.3    83  THR83       0.2028
    108  C         34.9180  109.5150   15.6260 C.2    83  THR83       0.2642
    109  O         35.7690  110.2880   15.1990 O.2    83  THR83      -0.2714
    110  CB        35.5840  107.2130   16.5080 C.3    83  THR83       0.1808
    111  OG1       35.0160  105.9040   16.4880 O.3    83  THR83      -0.2208
    112  CG2       35.3260  107.8350   17.8670 C.3    83  THR83       0.0379
    113  N         33.8510  109.9300   16.3030 N.am   84  GLU84      -0.1963
    114  CA        33.7090  111.3260   16.7020 C.3    84  GLU84       0.1733
    115  C         34.8070  111.7590   17.6660 C.2    84  GLU84       0.2616
    116  O         35.1530  111.0360   18.6040 O.2    84  GLU84      -0.2715
    117  CB        32.3680  111.5340   17.3990 C.3    84  GLU84       0.0429
    118  CG        31.1680  111.5930   16.5330 C.3    84  GLU84       0.1163
    119  CD        30.0070  112.1140   17.3340 C.2    84  GLU84       0.3649
    120  OE1       30.2770  112.8010   18.3520 O.co2  84  GLU84      -0.2457
    121  OE2       28.8470  111.8230   16.9680 O.co2  84  GLU84      -0.2457
    122  N         35.2950  112.9850   17.4930 N.am   85  TYR85      -0.1960
    123  CA        36.2070  113.5410   18.4820 C.3    85  TYR85       0.1771
    124  C         35.4330  113.9100   19.7420 C.2    85  TYR85       0.2619
    125  O         34.4950  114.7110   19.6950 O.2    85  TYR85      -0.2715
    126  CB        36.9460  114.7610   17.9150 C.3    85  TYR85       0.0574
    127  CG        37.9440  115.4290   18.8710 C.ar   85  TYR85      -0.0198
    128  CD1       39.0090  114.7160   19.4270 C.ar   85  TYR85      -0.0009
    129  CD2       37.8190  116.7710   19.2030 C.ar   85  TYR85      -0.0009
    130  CE1       39.9080  115.3190   20.2930 C.ar   85  TYR85       0.0417
    131  CE2       38.7090  117.3860   20.0650 C.ar   85  TYR85       0.0417
    132  CZ        39.7550  116.6610   20.6110 C.ar   85  TYR85       0.1957
    133  OH        40.6470  117.2930   21.4650 O.3    85  TYR85      -0.2866
    134  N         35.8150  113.3280   20.8690 N.am   86  MET86      -0.1977
    135  CA        35.3850  113.8340   22.1670 C.3    86  MET86       0.1605
    136  C         36.4380  114.8310   22.6390 C.2    86  MET86       0.2287
    137  O         37.6170  114.4870   22.7760 O.2    86  MET86      -0.2864
    138  CB        35.2070  112.6890   23.1570 C.3    86  MET86       0.0413
    139  CG        34.4860  111.4970   22.5410 C.3    86  MET86       0.0598
    140  SD        32.7940  111.9030   22.1050 S.3    86  MET86      -0.1393
    141  CE        32.0120  111.7950   23.7120 C.3    86  MET86       0.0692
    142  N         38.5890  114.4780   26.4460 N.3    89  GLY89      -0.1210
    143  CA        39.4930  113.4160   26.8740 C.3    89  GLY89       0.1956
    144  C         38.8170  112.3240   27.6970 C.2    89  GLY89       0.2611
    145  O         37.6070  112.2910   27.8730 O.2    89  GLY89      -0.2717
    146  N         39.6350  111.4220   28.2240 N.am   90  ASP90      -0.1973
    147  CA        39.0540  110.3390   28.9930 C.3    90  ASP90       0.1709
    148  C         38.5500  110.8730   30.3210 C.2    90  ASP90       0.2293
    149  O         39.1050  111.8220   30.8840 O.2    90  ASP90      -0.2864
    150  CB        40.0580  109.2110   29.2230 C.3    90  ASP90       0.1436
    151  CG        41.2180  109.6310   30.0800 C.2    90  ASP90       0.3671
    152  OD1       42.2670  109.9810   29.4970 O.co2  90  ASP90      -0.2456
    153  OD2       41.0780  109.6160   31.3280 O.co2  90  ASP90      -0.2456
    154  N         25.4490   97.0980   25.9760 N.3   130  LEU130     -0.1245
    155  CA        26.3650   96.0330   25.7500 C.3   130  LEU130      0.1561
    156  C         25.8520   94.8430   26.4680 C.2   130  LEU130      0.2260
    157  O         25.8990   93.7330   25.9800 O.2   130  LEU130     -0.2867
    158  CB        27.7350   96.4220   26.2700 C.3   130  LEU130      0.0270
    159  CG        28.5350   97.5760   25.6790 C.3   130  LEU130      0.0019
    160  CD1       29.7600   97.8310   26.5390 C.3   130  LEU130      0.0001
    161  CD2       28.9400   97.2930   24.2460 C.3   130  LEU130      0.0001
    162  N         27.6770   91.2960   25.3720 N.3   135  PHE135     -0.1241
    163  CA        29.0520   91.7760   25.1870 C.3   135  PHE135      0.1605
    164  C         29.5500   92.2530   26.5560 C.2   135  PHE135      0.2264
    165  O         29.1610   93.3280   27.0260 O.2   135  PHE135     -0.2867
    166  CB        29.0620   92.8930   24.1380 C.3   135  PHE135      0.0534
    167  CG        30.4100   93.4440   23.7960 C.ar  135  PHE135     -0.0203
    168  CD1       31.0410   94.3740   24.6210 C.ar  135  PHE135     -0.0042
    169  CD2       31.0340   93.0910   22.6090 C.ar  135  PHE135     -0.0042
    170  CE1       32.3060   94.9050   24.2870 C.ar  135  PHE135     -0.0003
    171  CE2       32.2980   93.6240   22.2670 C.ar  135  PHE135     -0.0003
    172  CZ        32.9230   94.5340   23.1090 C.ar  135  PHE135     -0.0000
    173  N         32.3910   93.9060   28.8290 N.3   137  HIS137     -0.1241
    174  CA        33.4270   94.8930   28.5110 C.3   137  HIS137      0.1621
    175  C         34.7990   94.4580   29.0060 C.2   137  HIS137      0.2264
    176  O         35.7960   94.5920   28.2860 O.2   137  HIS137     -0.2867
    177  CB        33.0880   96.2540   29.1130 C.3   137  HIS137      0.0745
    178  CG        33.9740   97.3620   28.6260 C.ar  137  HIS137      0.0817
    179  ND1       35.2360   97.5860   29.1400 N.ar  137  HIS137     -0.2268
    180  CD2       33.7840   98.3020   27.6640 C.ar  137  HIS137      0.1154
    181  CE1       35.7800   98.6190   28.5190 C.ar  137  HIS137      0.1986
    182  NE2       34.9220   99.0710   27.6190 N.ar  137  HIS137     -0.2212
    183  N         35.3390  108.2100   27.2940 N.3   146  LEU146     -0.1245
    184  CA        35.5570  109.5330   26.7300 C.3   146  LEU146      0.1561
    185  C         34.4740  110.5270   27.1380 C.2   146  LEU146      0.2260
    186  O         33.2850  110.1820   27.2060 O.2   146  LEU146     -0.2867
    187  CB        35.5950  109.4500   25.2160 C.3   146  LEU146      0.0270
    188  CG        36.4660  108.3640   24.6530 C.3   146  LEU146      0.0019
    189  CD1       36.5180  108.5870   23.1640 C.3   146  LEU146      0.0001
    190  CD2       37.8190  108.4960   25.2790 C.3   146  LEU146      0.0001
    191  N         31.4360  105.1610   26.4130 N.3   155  ILE155     -0.1231
    192  CA        32.3070  104.0950   26.8920 C.3   155  ILE155      0.1692
    193  C         33.2250  103.6510   25.7630 C.2   155  ILE155      0.2592
    194  O         32.8020  103.5760   24.6000 O.2   155  ILE155     -0.2718
    195  CB        31.4700  102.9190   27.4170 C.3   155  ILE155      0.0266
    196  CG1       30.3380  103.4350   28.2930 C.3   155  ILE155      0.0019
    197  CG2       32.3280  101.9820   28.2210 C.3   155  ILE155      0.0020
    198  CD1       29.5270  102.3480   28.9060 C.3   155  ILE155      0.0001
    199  N         34.4790  103.3240   26.1050 N.am  156  ALA156     -0.1966
    200  CA        35.4970  102.9130   25.1340 C.3   156  ALA156      0.1728
    201  C         36.3460  101.7940   25.7480 C.2   156  ALA156      0.2616
    202  O         35.9810  101.2200   26.7770 O.2   156  ALA156     -0.2715
    203  CB        36.3170  104.1310   24.6980 C.3   156  ALA156      0.0334
    204  N         37.4820  101.4620   25.1040 N.am  157  ASP157     -0.1957
    205  CA        38.3750  100.3810   25.5440 C.3   157  ASP157      0.1840
    206  C         39.8220  100.5330   25.0450 C.2   157  ASP157      0.2622
    207  O         40.2380   99.8600   24.0940 O.2   157  ASP157     -0.2715
    208  CB        37.8140   99.0290   25.0980 C.3   157  ASP157      0.1450
    209  CG        38.4790   97.8530   25.8040 C.2   157  ASP157      0.3671
    210  OD1       39.6640   97.9750   26.2100 O.co2 157  ASP157     -0.2456
    211  OD2       37.8070   96.7990   25.9530 O.co2 157  ASP157     -0.2456
    212  N         40.6130  101.3870   25.7040 N.am  158  PHE158     -0.1974
    213  CA        41.9850  101.6420   25.2660 C.3   158  PHE158      0.1639
    214  C         42.8980  100.4270   25.4410 C.2   158  PHE158      0.2290
    215  O         43.9210  100.3190   24.7590 O.2   158  PHE158     -0.2864
    216  CB        42.5600  102.8190   26.0370 C.3   158  PHE158      0.0560
    217  CG        41.8020  104.0920   25.8720 C.ar  158  PHE158     -0.0200
    218  CD1       40.6370  104.3140   26.5750 C.ar  158  PHE158     -0.0042
    219  CD2       42.2830  105.0920   25.0450 C.ar  158  PHE158     -0.0042
    220  CE1       39.9480  105.5010   26.4260 C.ar  158  PHE158     -0.0003
    221  CE2       41.6120  106.2780   24.8980 C.ar  158  PHE158     -0.0003
    222  CZ        40.4470  106.4900   25.5840 C.ar  158  PHE158     -0.0000
@<TRIPOS>BOND
     1   105   103    1
     2   103   102    1
     3   102   104    1
     4   102    99    1
     5    30    29    1
     6    90    91    1
     7    31    29    1
     8    91    92    1
     9    91    94    1
    10    98    92   am
    11    98    99    1
    12    89    87    1
    13    29    26    1
    14    92    93    2
    15    99   100    1
    16    85    84    2
    17    87    88    1
    18    87    86    1
    19    95    94    1
    20    95    96    1
    21    84    83    1
    22    35    34    2
    23   100   101    2
    24   100   106   am
    25    26    27    1
    26    26    25    1
    27    86    83    1
    28    34    33    1
    29    83    82    1
    30    96    97    1
    31   106   107    1
    32    27    32   am
    33    27    28    2
    34    32    33    1
    35    25    22   am
    36    43    44    2
    37    43    42    1
    38    23    22    2
    39    33    36    1
    40    41    42    1
    41    22    21    1
    42   109   108    2
    43    52    53    2
    44    52    51    1
    45   107   108    1
    46   107   110    1
    47    20    21    1
    48    42    45    1
    49   108   113   am
    50    36    37    1
    51    54    51    1
    52    54    55    1
    53    21    24    1
    54    50    51    1
    55    45    46    1
    56    37    38    1
    57   113   114    1
    58   111   110    1
    59   110   112    1
    60   118   119    1
    61   118   117    1
    62   114   117    1
    63   114   115    1
    64    58    59    1
    65    15    14    1
    66    15    16    2
    67    55    56    1
    68   121   119   ar
    69    14    13    1
    70    14    17    1
    71    46    47    1
    72    61    60    2
    73    38    39    1
    74   119   120   ar
    75   122   115   am
    76   122   123    1
    77   115   116    2
    78    39    40    1
    79    60    59    1
    80   126   123    1
    81   126   127    1
    82    59    62    1
    83    18    17    1
    84    17    19    1
    85   123   124    1
    86    47    48   ar
    87    47    49   ar
    88    56    57    1
    89   127   129   ar
    90   127   128   ar
    91    62    63    1
    92   129   131   ar
    93    63    65    1
    94    63    64    1
    95     1     2    1
    96    77    76    2
    97    12    11    2
    98    76    75    1
    99   128   130   ar
   100    80    78    1
   101     7     6    1
   102   125   124    2
   103     6     5    1
   104     6     8    1
   105   124   134   am
   106   131   132   ar
   107     5     2    1
   108   130   132   ar
   109     2     3    1
   110    11    10    1
   111   132   133    1
   112    75    78    1
   113    75    74    1
   114     9     3   am
   115     9    10    1
   116    78    79    1
   117   134   135    1
   118    81    79    1
   119    69    68    2
   120     3     4    2
   121    74    68   am
   122    68    67    1
   123   140   139    1
   124   140   141    1
   125   135   136    1
   126   135   138    1
   127   171   169   ar
   128   171   172   ar
   129    72    70    1
   130   139   138    1
   131   169   167   ar
   132   136   137    2
   133    70    67    1
   134    70    71    1
   135    67    66    1
   136   172   170   ar
   137   189   188    1
   138   167   166    1
   139   167   168   ar
   140    71    73    1
   141   207   206    2
   142   166   163    1
   143   161   159    1
   144   170   168   ar
   145   194   193    2
   146   188   187    1
   147   188   190    1
   148   203   200    1
   149   215   214    2
   150   221   219   ar
   151   221   222   ar
   152   206   205    1
   153   206   212   am
   154   219   217   ar
   155   208   205    1
   156   208   209    1
   157   204   205    1
   158   204   201   am
   159   200   201    1
   160   200   199    1
   161   163   162    1
   162   163   164    1
   163   187   184    1
   164   213   214    1
   165   213   212    1
   166   213   216    1
   167   222   220   ar
   168   159   158    1
   169   159   160    1
   170   201   202    2
   171   155   154    1
   172   155   158    1
   173   155   156    1
   174   193   199   am
   175   193   192    1
   176   209   211   ar
   177   209   210   ar
   178   217   216    1
   179   217   218   ar
   180   157   156    2
   181   191   192    1
   182   220   218   ar
   183   142   143    1
   184   164   165    2
   185   184   185    1
   186   184   183    1
   187   143   144    1
   188   192   195    1
   189   185   186    2
   190   195   197    1
   191   195   196    1
   192   182   180   ar
   193   182   181   ar
   194   180   178   ar
   195   144   145    2
   196   144   146   am
   197   146   147    1
   198   176   175    2
   199   196   198    1
   200   174   173    1
   201   174   175    1
   202   174   177    1
   203   181   179   ar
   204   178   177    1
   205   178   179   ar
   206   147   150    1
   207   147   148    1
   208   150   151    1
   209   152   151   ar
   210   151   153   ar
   211   148   149    2
