@<TRIPOS>MOLECULE
tmp/6fevB00.pdb
 120 115 0 0 0
SMALL
GASTEIGER

@<TRIPOS>ATOM
      1  N        -34.4910   11.4650   45.8470 N.3    20  HIS20      -0.1241
      2  CA       -34.7550   10.3480   44.9250 C.3    20  HIS20       0.1621
      3  C        -36.1840    9.8600   45.1610 C.2    20  HIS20       0.2264
      4  O        -36.4190    9.0470   46.0610 O.2    20  HIS20      -0.2867
      5  CB       -33.7420    9.2240   45.1080 C.3    20  HIS20       0.0745
      6  CG       -33.8830    8.1080   44.1090 C.ar   20  HIS20       0.0817
      7  ND1      -32.8210    7.6310   43.3670 N.ar   20  HIS20      -0.2268
      8  CD2      -34.9610    7.3800   43.7250 C.ar   20  HIS20       0.1154
      9  CE1      -33.2350    6.6510   42.5800 C.ar   20  HIS20       0.1986
     10  NE2      -34.5310    6.4820   42.7750 N.ar   20  HIS20      -0.2212
     11  N        -40.3760    9.3880   43.0040 N.3    22  HIS22      -0.1241
     12  CA       -41.1280    9.3010   41.7600 C.3    22  HIS22       0.1621
     13  C        -42.5700    9.6480   42.0540 C.2    22  HIS22       0.2264
     14  O        -43.1320    9.1560   43.0370 O.2    22  HIS22      -0.2867
     15  CB       -41.1110    7.8910   41.1480 C.3    22  HIS22       0.0745
     16  CG       -39.7520    7.2980   41.0170 C.ar   22  HIS22       0.0817
     17  ND1      -38.9800    7.4590   39.8890 N.ar   22  HIS22      -0.2268
     18  CD2      -39.0290    6.5310   41.8670 C.ar   22  HIS22       0.1154
     19  CE1      -37.8350    6.8260   40.0520 C.ar   22  HIS22       0.1986
     20  NE2      -37.8380    6.2550   41.2450 N.ar   22  HIS22      -0.2212
     21  N        -43.9180    5.5260   38.6070 N.3    25  GLY25      -0.1225
     22  CA       -42.9370    4.7110   37.9160 C.3    25  GLY25       0.1811
     23  C        -43.5870    3.9130   36.8050 C.2    25  GLY25       0.2280
     24  O        -44.3020    2.9380   37.0590 O.2    25  GLY25      -0.2866
     25  N        -33.0760    5.2760   32.1000 N.3    96  TRP96      -0.1241
     26  CA       -33.1600    4.3220   33.2070 C.3    96  TRP96       0.1605
     27  C        -32.9660    2.9090   32.6480 C.2    96  TRP96       0.2264
     28  O        -32.1900    2.7340   31.7040 O.2    96  TRP96      -0.2867
     29  CB       -34.4900    4.5580   33.9370 C.3    96  TRP96       0.0550
     30  CG       -34.8940    3.6320   35.0540 C.ar   96  TRP96       0.0003
     31  CD1      -34.3160    3.5000   36.2850 C.ar   96  TRP96       0.0946
     32  CD2      -35.9990    2.7320   35.0280 C.ar   96  TRP96       0.0152
     33  NE1      -34.9900    2.5580   37.0250 N.ar   96  TRP96      -0.2442
     34  CE2      -36.0300    2.0700   36.2740 C.ar   96  TRP96       0.0810
     35  CE3      -36.9620    2.4100   34.0630 C.ar   96  TRP96       0.0012
     36  CZ2      -36.9850    1.1060   36.5810 C.ar   96  TRP96       0.0191
     37  CZ3      -37.9120    1.4520   34.3670 C.ar   96  TRP96       0.0001
     38  CH2      -37.9150    0.8090   35.6200 C.ar   96  TRP96       0.0015
     39  N        -30.3740   11.3880   35.3330 N.3   134  LYS134     -0.1245
     40  CA       -30.4660   10.0490   35.9140 C.3   134  LYS134      0.1561
     41  C        -29.9040    8.9980   34.9530 C.2   134  LYS134      0.2260
     42  O        -30.2370    9.0050   33.7620 O.2   134  LYS134     -0.2867
     43  CB       -31.9320    9.7410   36.2460 C.3   134  LYS134      0.0271
     44  CG       -32.1590    8.3700   36.7850 C.3   134  LYS134      0.0035
     45  CD       -31.2080    8.1270   37.9190 C.3   134  LYS134      0.0206
     46  CE       -31.5080    6.8180   38.5270 C.3   134  LYS134      0.1093
     47  NZ       -32.9500    6.9200   38.7240 N.3   134  LYS134     -0.1314
     48  N        -28.5690    4.8670   39.4180 N.3   166  HIS166     -0.1241
     49  CA       -29.1700    3.6340   39.8970 C.3   166  HIS166      0.1621
     50  C        -28.0770    2.5760   39.8630 C.2   166  HIS166      0.2264
     51  O        -27.3390    2.4720   38.8750 O.2   166  HIS166     -0.2867
     52  CB       -30.3750    3.2620   39.0130 C.3   166  HIS166      0.0745
     53  CG       -30.8900    1.8680   39.1960 C.ar  166  HIS166      0.0817
     54  ND1      -32.2100    1.6050   39.4880 N.ar  166  HIS166     -0.2268
     55  CD2      -30.2890    0.6600   39.0660 C.ar  166  HIS166      0.1154
     56  CE1      -32.3940    0.2990   39.5740 C.ar  166  HIS166      0.1986
     57  NE2      -31.2440   -0.2990   39.3180 N.ar  166  HIS166     -0.2212
     58  N        -29.1830    4.1130   45.4020 N.3   195  HIS195     -0.1241
     59  CA       -29.5260    2.7880   45.9470 C.3   195  HIS195      0.1621
     60  C        -28.3890    2.2000   46.7840 C.2   195  HIS195      0.2264
     61  O        -28.2670    0.9770   46.9210 O.2   195  HIS195     -0.2867
     62  CB       -29.9490    1.8160   44.8420 C.3   195  HIS195      0.0745
     63  CG       -31.1280    2.2970   44.0540 C.ar  195  HIS195      0.0817
     64  ND1      -32.0950    3.1200   44.5940 N.ar  195  HIS195     -0.2268
     65  CD2      -31.4870    2.0920   42.7650 C.ar  195  HIS195      0.1154
     66  CE1      -33.0020    3.3960   43.6730 C.ar  195  HIS195      0.1986
     67  NE2      -32.6550    2.7850   42.5560 N.ar  195  HIS195     -0.2212
     68  N        -37.9210    0.6850   51.9950 N.3   222  HIS222     -0.1241
     69  CA       -38.1080   -0.5050   51.1650 C.3   222  HIS222      0.1621
     70  C        -37.8140   -1.7450   52.0010 C.2   222  HIS222      0.2264
     71  O        -36.6530   -2.0330   52.3120 O.2   222  HIS222     -0.2867
     72  CB       -37.2070   -0.4810   49.9360 C.3   222  HIS222      0.0745
     73  CG       -37.5950    0.5330   48.9040 C.ar  222  HIS222      0.0817
     74  ND1      -37.4860    0.2940   47.5500 N.ar  222  HIS222     -0.2268
     75  CD2      -38.0540    1.8000   49.0270 C.ar  222  HIS222      0.1154
     76  CE1      -37.8770    1.3640   46.8830 C.ar  222  HIS222      0.1986
     77  NE2      -38.2310    2.2920   47.7560 N.ar  222  HIS222     -0.2212
     78  N        -38.4820   -7.3820   45.0710 N.3   236  LEU236     -0.1245
     79  CA       -38.3550   -5.9500   44.8250 C.3   236  LEU236      0.1561
     80  C        -37.7810   -5.2280   46.0410 C.2   236  LEU236      0.2260
     81  O        -36.8580   -4.4160   45.9180 O.2   236  LEU236     -0.2867
     82  CB       -39.7170   -5.3550   44.4540 C.3   236  LEU236      0.0270
     83  CG       -39.7730   -3.8210   44.3140 C.3   236  LEU236      0.0019
     84  CD1      -38.8490   -3.3430   43.2180 C.3   236  LEU236      0.0001
     85  CD2      -41.1810   -3.3500   44.0330 C.3   236  LEU236      0.0001
     86  N        -37.3100    6.7680   47.7850 N.3   266  ASP266     -0.1239
     87  CA       -37.5470    6.0660   46.5290 C.3   266  ASP266      0.1674
     88  C        -38.9720    5.5340   46.4920 C.2   266  ASP266      0.2266
     89  O        -39.2200    4.3580   46.2210 O.2   266  ASP266     -0.2867
     90  CB       -36.5410    4.9360   46.3110 C.3   266  ASP266      0.1410
     91  CG       -36.5630    4.4090   44.8910 C.2   266  ASP266      0.3668
     92  OD1      -37.0580    5.1200   43.9880 O.co2 266  ASP266     -0.2456
     93  OD2      -36.1060    3.2780   44.6900 O.co2 266  ASP266     -0.2456
     94  N        -43.2410    6.1120   45.3330 N.3   268  LEU268     -0.1245
     95  CA       -44.0370    6.4980   44.1750 C.3   268  LEU268      0.1561
     96  C        -45.5060    6.3730   44.5500 C.2   268  LEU268      0.2260
     97  O        -45.8620    5.7510   45.5520 O.2   268  LEU268     -0.2867
     98  CB       -43.7180    5.6510   42.9280 C.3   268  LEU268      0.0270
     99  CG       -42.8020    4.4200   42.9470 C.3   268  LEU268      0.0019
    100  CD1      -43.3770    3.3000   43.8390 C.3   268  LEU268      0.0001
    101  CD2      -42.5580    3.9010   41.5230 C.3   268  LEU268      0.0001
    102  N        -47.3220    2.7860   39.8420 N.3   271  PHE271     -0.1241
    103  CA       -46.2160    1.8580   39.6170 C.3   271  PHE271      0.1605
    104  C        -46.7140    0.7950   38.6350 C.2   271  PHE271      0.2264
    105  O        -47.4320   -0.1210   39.0330 O.2   271  PHE271     -0.2867
    106  CB       -45.7550    1.2500   40.9410 C.3   271  PHE271      0.0534
    107  CG       -44.4260    0.5290   40.8810 C.ar  271  PHE271     -0.0203
    108  CD1      -43.7870    0.2700   39.6700 C.ar  271  PHE271     -0.0042
    109  CD2      -43.8230    0.0850   42.0580 C.ar  271  PHE271     -0.0042
    110  CE1      -42.5710   -0.4170   39.6430 C.ar  271  PHE271     -0.0003
    111  CE2      -42.6190   -0.5910   42.0420 C.ar  271  PHE271     -0.0003
    112  CZ       -41.9870   -0.8540   40.8480 C.ar  271  PHE271     -0.0000
    113  N        -46.9930   -2.0220   48.4620 N.3   282  MET282     -0.1245
    114  CA       -46.0780   -1.0490   49.0520 C.3   282  MET282      0.1570
    115  C        -46.8160   -0.0730   49.9600 C.2   282  MET282      0.2261
    116  O        -46.3280    0.2680   51.0460 O.2   282  MET282     -0.2867
    117  CB       -45.3260   -0.3030   47.9480 C.3   282  MET282      0.0387
    118  CG       -44.3430   -1.1800   47.1800 C.3   282  MET282      0.0595
    119  SD       -43.4190   -0.2790   45.9250 S.3   282  MET282     -0.1393
    120  CE       -42.7780    1.0970   46.8670 C.3   282  MET282      0.0692
@<TRIPOS>BOND
     1    28    27    2
     2    25    26    1
     3    27    26    1
     4    26    29    1
     5    42    41    2
     6    29    30    1
     7    35    37   ar
     8    35    32   ar
     9    37    38   ar
    10    41    40    1
    11    32    30   ar
    12    32    34   ar
    13    30    31   ar
    14    39    40    1
    15    38    36   ar
    16    40    43    1
    17    43    44    1
    18    34    36   ar
    19    34    33   ar
    20    31    33   ar
    21    44    45    1
    22    23    24    2
    23    23    22    1
    24    22    21    1
    25    45    46    1
    26    46    47    1
    27   104   105    2
    28   104   103    1
    29    51    50    2
    30    52    53    1
    31    52    49    1
    32    55    53   ar
    33    55    57   ar
    34    53    54   ar
    35    57    56   ar
    36    48    49    1
    37    54    56   ar
    38   103   102    1
    39   103   106    1
    40   110   108   ar
    41   110   112   ar
    42   108   107   ar
    43    50    49    1
    44    17    19   ar
    45    17    16   ar
    46    19    20   ar
    47   112   111   ar
    48   107   106    1
    49   107   109   ar
    50    16    15    1
    51    16    18   ar
    52    15    12    1
    53    20    18   ar
    54   101    99    1
    55    12    13    1
    56    12    11    1
    57   111   109   ar
    58    13    14    2
    59    67    65   ar
    60    67    66   ar
    61     9    10   ar
    62     9     7   ar
    63    65    63   ar
    64    10     8   ar
    65    98    99    1
    66    98    95    1
    67    99   100    1
    68    84    83    1
    69     7     6   ar
    70    66    64   ar
    71     8     6   ar
    72    92    91   ar
    73    85    83    1
    74    63    64   ar
    75    63    62    1
    76     6     5    1
    77    95    96    1
    78    95    94    1
    79    83    82    1
    80    82    79    1
    81    96    97    2
    82    93    91   ar
    83    79    78    1
    84    79    80    1
    85    62    59    1
    86    91    90    1
    87     2     5    1
    88     2     3    1
    89     2     1    1
    90     3     4    2
    91    58    59    1
    92    81    80    2
    93   119   120    1
    94   119   118    1
    95    59    60    1
    96    89    88    2
    97    90    87    1
    98    88    87    1
    99    87    86    1
   100    60    61    2
   101    76    74   ar
   102    76    77   ar
   103   118   117    1
   104    74    73   ar
   105    77    75   ar
   106   117   114    1
   107   113   114    1
   108    73    75   ar
   109    73    72    1
   110   114   115    1
   111    72    69    1
   112   115   116    2
   113    69    68    1
   114    69    70    1
   115    70    71    2
