@<TRIPOS>MOLECULE
tmp/6fexA01.pdb
 105 104 0 0 0
SMALL
GASTEIGER

@<TRIPOS>ATOM
      1  N         -1.8260    6.6870  -26.3420 N.3   215  TRP215     -0.1241
      2  CA        -2.2110    7.9120  -27.0220 C.3   215  TRP215      0.1605
      3  C         -3.3470    8.6260  -26.2740 C.2   215  TRP215      0.2264
      4  O         -3.3050    9.8430  -26.0620 O.2   215  TRP215     -0.2867
      5  CB        -2.6050    7.5810  -28.4630 C.3   215  TRP215      0.0550
      6  CG        -3.0050    8.7700  -29.2940 C.ar  215  TRP215      0.0003
      7  CD1       -2.1940    9.5090  -30.1070 C.ar  215  TRP215      0.0946
      8  CD2       -4.3200    9.3180  -29.4380 C.ar  215  TRP215      0.0152
      9  NE1       -2.9130   10.4970  -30.7270 N.ar  215  TRP215     -0.2442
     10  CE2       -4.2300   10.3920  -30.3500 C.ar  215  TRP215      0.0810
     11  CE3       -5.5570    9.0000  -28.8940 C.ar  215  TRP215      0.0012
     12  CZ2       -5.3380   11.1670  -30.6980 C.ar  215  TRP215      0.0191
     13  CZ3       -6.6500    9.7700  -29.2290 C.ar  215  TRP215      0.0001
     14  CH2       -6.5430   10.8240  -30.1580 C.ar  215  TRP215      0.0015
     15  N         -3.2810   12.3110  -24.5680 N.3   219  MET219     -0.1245
     16  CA        -4.3030   13.2820  -24.9520 C.3   219  MET219      0.1570
     17  C         -5.1940   13.6800  -23.7790 C.2   219  MET219      0.2261
     18  O         -6.1820   14.4160  -23.9620 O.2   219  MET219     -0.2867
     19  CB        -5.1660   12.6940  -26.0630 C.3   219  MET219      0.0387
     20  CG        -4.4250   12.5220  -27.3910 C.3   219  MET219      0.0595
     21  SD        -3.9110   14.0800  -28.1690 S.3   219  MET219     -0.1393
     22  CE        -5.4740   14.6890  -28.7730 C.3   219  MET219      0.0692
     23  N         -9.1370   13.4660  -23.8300 N.3   222  ARG222     -0.1231
     24  CA       -10.0030   14.5270  -24.3230 C.3   222  ARG222      0.1694
     25  C        -10.2510   14.4350  -25.8250 C.2   222  ARG222      0.2592
     26  O        -10.8220   15.3580  -26.3990 O.2   222  ARG222     -0.2718
     27  CB        -9.4470   15.8960  -23.9160 C.3   222  ARG222      0.0321
     28  CG        -9.6950   16.2100  -22.4220 C.3   222  ARG222      0.0489
     29  CD        -8.6140   17.0770  -21.7780 C.3   222  ARG222      0.2205
     30  NE        -8.8200   18.5040  -21.9980 N.pl3 222  ARG222     -0.0865
     31  CZ        -9.2660   19.3720  -21.0880 C.cat 222  ARG222      0.5346
     32  NH1       -9.5680   18.9850  -19.8540 N.pl3 222  ARG222      0.1354
     33  NH2       -9.4130   20.6510  -21.4210 N.pl3 222  ARG222      0.1354
     34  N         -9.8550   13.3350  -26.4580 N.am  223  ALA223     -0.1966
     35  CA       -10.1170   13.1230  -27.8710 C.3   223  ALA223      0.1728
     36  C        -10.3440   11.6440  -28.1440 C.2   223  ALA223      0.2616
     37  O         -9.7460   10.7740  -27.5060 O.2   223  ALA223     -0.2715
     38  CB        -8.9310   13.6020  -28.7000 C.3   223  ALA223      0.0334
     39  N        -11.2070   11.3680  -29.1090 N.am  224  GLN224     -0.1977
     40  CA       -11.3800    9.9820  -29.5310 C.3   224  GLN224      0.1601
     41  C        -10.3360    9.6380  -30.5950 C.2   224  GLN224      0.2287
     42  O        -10.0750   10.4500  -31.4910 O.2   224  GLN224     -0.2864
     43  CB       -12.7620    9.7870  -30.1390 C.3   224  GLN224      0.0394
     44  CG       -13.0860    8.3530  -30.4710 C.3   224  GLN224      0.0908
     45  CD       -14.3820    8.2150  -31.2410 C.2   224  GLN224      0.2608
     46  OE1      -14.6060    8.8990  -32.2510 O.2   224  GLN224     -0.2717
     47  NE2      -15.2320    7.3250  -30.7840 N.am  224  GLN224     -0.0878
     48  N         -8.7220    8.7290  -33.9240 N.3   226  PHE226     -0.1227
     49  CA        -9.1890    8.9430  -35.3040 C.3   226  PHE226      0.1736
     50  C        -10.4930    9.7420  -35.3290 C.2   226  PHE226      0.2596
     51  O        -11.3500    9.5380  -36.1870 O.2   226  PHE226     -0.2718
     52  CB        -9.3400    7.6290  -36.0860 C.3   226  PHE226      0.0547
     53  CG        -8.0410    6.9000  -36.3160 C.ar  226  PHE226     -0.0202
     54  CD1       -7.0350    7.4720  -37.0930 C.ar  226  PHE226     -0.0042
     55  CD2       -7.8230    5.6510  -35.7760 C.ar  226  PHE226     -0.0042
     56  CE1       -5.8370    6.8050  -37.3140 C.ar  226  PHE226     -0.0003
     57  CE2       -6.6110    5.0010  -35.9930 C.ar  226  PHE226     -0.0003
     58  CZ        -5.6330    5.5760  -36.7690 C.ar  226  PHE226     -0.0000
     59  N        -10.6400   10.6590  -34.3670 N.am  227  GLY227     -0.1942
     60  CA       -11.9200   11.2750  -34.0800 C.3   227  GLY227      0.2014
     61  C        -12.5250   12.0650  -35.2180 C.2   227  GLY227      0.2639
     62  O        -13.7450   12.3030  -35.2170 O.2   227  GLY227     -0.2714
     63  N        -11.7170   12.5160  -36.1710 N.am  228  GLN228     -0.1963
     64  CA       -12.2500   13.2630  -37.3030 C.3   228  GLN228      0.1733
     65  C        -12.6130   12.3610  -38.4730 C.2   228  GLN228      0.2616
     66  O        -13.1660   12.8520  -39.4730 O.2   228  GLN228     -0.2715
     67  CB       -11.2790   14.3650  -37.7470 C.3   228  GLN228      0.0408
     68  CG       -10.9040   15.3730  -36.6580 C.3   228  GLN228      0.0908
     69  CD       -12.1000   16.1430  -36.0980 C.2   228  GLN228      0.2608
     70  OE1      -12.8070   15.6540  -35.2140 O.2   228  GLN228     -0.2717
     71  NE2      -12.3120   17.3590  -36.5950 N.am  228  GLN228     -0.0878
     72  N        -12.3330   11.0670  -38.3600 N.am  229  LEU229     -0.1977
     73  CA       -12.6630   10.0980  -39.3960 C.3   229  LEU229      0.1596
     74  C        -13.9180    9.3120  -39.0240 C.2   229  LEU229      0.2287
     75  O        -14.1610    9.0050  -37.8520 O.2   229  LEU229     -0.2864
     76  CB       -11.5120    9.1010  -39.5810 C.3   229  LEU229      0.0297
     77  CG       -10.1550    9.6920  -39.9280 C.3   229  LEU229      0.0022
     78  CD1       -9.1450    8.5900  -40.1530 C.3   229  LEU229      0.0001
     79  CD2      -10.2450   10.5820  -41.1410 C.3   229  LEU229      0.0001
     80  N         -2.0760    7.0080  -39.1740 N.3   250  TYR250     -0.1227
     81  CA        -1.8340    6.7810  -37.7660 C.3   250  TYR250      0.1736
     82  C         -2.4070    7.9270  -36.9460 C.2   250  TYR250      0.2595
     83  O         -2.5960    9.0470  -37.4310 O.2   250  TYR250     -0.2718
     84  CB        -0.3200    6.7460  -37.4790 C.3   250  TYR250      0.0548
     85  CG         0.3890    5.6900  -38.2430 C.ar  250  TYR250     -0.0200
     86  CD1        0.4970    4.4070  -37.7250 C.ar  250  TYR250     -0.0009
     87  CD2        0.9270    5.9380  -39.4980 C.ar  250  TYR250     -0.0009
     88  CE1        1.1430    3.4060  -38.4220 C.ar  250  TYR250      0.0417
     89  CE2        1.5590    4.9370  -40.2010 C.ar  250  TYR250      0.0417
     90  CZ         1.6680    3.6760  -39.6590 C.ar  250  TYR250      0.1957
     91  OH         2.3010    2.6980  -40.3860 O.3   250  TYR250     -0.2866
     92  N         -2.6600    7.6450  -35.6730 N.am  251  LEU251     -0.1966
     93  CA        -2.9330    8.7080  -34.7280 C.3   251  LEU251      0.1728
     94  C         -1.7680    9.6810  -34.7030 C.2   251  LEU251      0.2616
     95  O         -0.5950    9.2860  -34.7970 O.2   251  LEU251     -0.2715
     96  CB        -3.1220    8.0830  -33.3570 C.3   251  LEU251      0.0311
     97  CG        -4.2960    7.0940  -33.2720 C.3   251  LEU251      0.0022
     98  CD1       -4.3140    6.4270  -31.9000 C.3   251  LEU251      0.0001
     99  CD2       -5.6210    7.7730  -33.5290 C.3   251  LEU251      0.0001
    100  N         -2.0950   10.9580  -34.5850 N.am  252  SER252     -0.1950
    101  CA        -1.0760   12.0020  -34.5830 C.3   252  SER252      0.1924
    102  C         -0.3790   12.0970  -33.2280 C.2   252  SER252      0.2314
    103  O         -0.8880   11.6520  -32.2050 O.2   252  SER252     -0.2863
    104  CB        -1.7220   13.3560  -34.8570 C.3   252  SER252      0.2116
    105  OG        -2.3860   13.4010  -36.1100 O.3   252  SER252     -0.2180
@<TRIPOS>BOND
     1    79    77    1
     2    91    90    1
     3    89    90   ar
     4    89    87   ar
     5    78    77    1
     6    77    76    1
     7    90    88   ar
     8    76    73    1
     9    87    85   ar
    10    66    65    2
    11    73    74    1
    12    73    72    1
    13    80    81    1
    14    74    75    2
    15    65    72   am
    16    65    64    1
    17    88    86   ar
    18    85    86   ar
    19    85    84    1
    20    81    84    1
    21    81    82    1
    22    67    64    1
    23    67    68    1
    24    83    82    2
    25    56    54   ar
    26    56    58   ar
    27    64    63    1
    28    54    53   ar
    29    82    92   am
    30    58    57   ar
    31    68    69    1
    32    71    69   am
    33    53    52    1
    34    53    55   ar
    35    51    50    2
    36    63    61   am
    37   105   104    1
    38    69    70    2
    39    52    49    1
    40    57    55   ar
    41    92    93    1
    42    50    49    1
    43    50    59   am
    44    49    48    1
    45    61    62    2
    46    61    60    1
    47   104   101    1
    48    95    94    2
    49    93    94    1
    50    93    96    1
    51    94   100   am
    52   100   101    1
    53   101   102    1
    54    59    60    1
    55    99    97    1
    56    96    97    1
    57    97    98    1
    58   102   103    2
    59    46    45    2
    60    42    41    2
    61    45    47   am
    62    45    44    1
    63     9    10   ar
    64     9     7   ar
    65    12    10   ar
    66    12    14   ar
    67    41    40    1
    68    44    43    1
    69    10     8   ar
    70    14    13   ar
    71    43    40    1
    72     7     6   ar
    73    40    39    1
    74     8     6   ar
    75     8    11   ar
    76     6     5    1
    77    13    11   ar
    78    39    36   am
    79    22    21    1
    80    38    35    1
    81     5     2    1
    82    21    20    1
    83    36    35    1
    84    36    37    2
    85    35    34    1
    86    20    19    1
    87     2     1    1
    88     2     3    1
    89    34    25   am
    90    26    25    2
    91     3     4    2
    92    19    16    1
    93    25    24    1
    94    16    15    1
    95    16    17    1
    96    24    27    1
    97    24    23    1
    98    18    17    2
    99    27    28    1
   100    28    29    1
   101    30    29    1
   102    30    31    2
   103    33    31    1
   104    31    32    1
