@<TRIPOS>MOLECULE
tmp/6ff4I00.pdb
 200 193 0 0 0
SMALL
GASTEIGER

@<TRIPOS>ATOM
      1  N        254.9380  302.0060  192.8840 N.3    83  LEU83      -0.1231
      2  CA       254.7070  300.7370  193.5740 C.3    83  LEU83       0.1693
      3  C        253.3580  300.0540  193.3360 C.2    83  LEU83       0.2592
      4  O        253.3240  298.9610  192.7700 O.2    83  LEU83      -0.2718
      5  CB       254.9110  300.9510  195.0710 C.3    83  LEU83       0.0284
      6  CG       254.7140  299.7380  195.9740 C.3    83  LEU83       0.0019
      7  CD1      255.6190  298.5930  195.5980 C.3    83  LEU83       0.0001
      8  CD2      254.9530  300.1230  197.4110 C.3    83  LEU83       0.0001
      9  N        252.2470  300.6510  193.7460 N.am   84  HIS84      -0.1962
     10  CA       250.9480  299.9790  193.7150 C.3    84  HIS84       0.1787
     11  C        249.9980  300.6060  192.7060 C.2    84  HIS84       0.2620
     12  O        248.8440  300.8940  193.0140 O.2    84  HIS84      -0.2715
     13  CB       250.2850  299.9490  195.0870 C.3    84  HIS84       0.0785
     14  CG       250.8300  298.9040  196.0060 C.ar   84  HIS84       0.0821
     15  ND1      250.6210  297.5580  195.8030 N.ar   84  HIS84      -0.2267
     16  CD2      251.5300  299.0050  197.1580 C.ar   84  HIS84       0.1154
     17  CE1      251.2010  296.8730  196.7700 C.ar   84  HIS84       0.1986
     18  NE2      251.7600  297.7280  197.6050 N.ar   84  HIS84      -0.2212
     19  N        250.4780  300.8250  191.4870 N.am   85  HIS85      -0.1959
     20  CA       249.7690  301.6180  190.4960 C.3    85  HIS85       0.1787
     21  C        249.1760  300.7710  189.3830 C.2    85  HIS85       0.2621
     22  O        248.9610  301.2600  188.2720 O.2    85  HIS85      -0.2715
     23  CB       250.7240  302.6690  189.9700 C.3    85  HIS85       0.0785
     24  CG       251.1120  303.6490  191.0200 C.ar   85  HIS85       0.0821
     25  ND1      250.5050  304.8720  191.1510 N.ar   85  HIS85      -0.2267
     26  CD2      251.9190  303.5190  192.0940 C.ar   85  HIS85       0.1154
     27  CE1      251.0050  305.5050  192.1940 C.ar   85  HIS85       0.1986
     28  NE2      251.8620  304.7020  192.7890 N.ar   85  HIS85      -0.2212
     29  N        248.9180  299.5020  189.6680 N.am   86  GLY86      -0.1940
     30  CA       247.9940  298.7200  188.8810 C.3    86  GLY86       0.2014
     31  C        248.5240  298.1700  187.5860 C.2    86  GLY86       0.2639
     32  O        247.7310  297.7190  186.7560 O.2    86  GLY86      -0.2714
     33  N        249.8360  298.1660  187.3860 N.am   87  LYS87      -0.1963
     34  CA       250.3580  297.7850  186.0820 C.3    87  LYS87       0.1728
     35  C        250.4220  296.2720  185.9180 C.2    87  LYS87       0.2617
     36  O        250.1490  295.7520  184.8290 O.2    87  LYS87      -0.2715
     37  CB       251.7130  298.4470  185.8740 C.3    87  LYS87       0.0311
     38  CG       252.6370  298.1790  186.9770 C.3    87  LYS87       0.0038
     39  CD       253.9340  298.8640  186.9460 C.3    87  LYS87       0.0206
     40  CE       254.6180  298.4320  188.2090 C.3    87  LYS87       0.1093
     41  NZ       255.9910  298.9090  188.3430 N.3    87  LYS87      -0.1314
     42  N        250.7260  295.5370  186.9870 N.am   88  THR88      -0.1937
     43  CA       250.7020  294.0900  186.8750 C.3    88  THR88       0.2028
     44  C        249.2890  293.5520  186.9260 C.2    88  THR88       0.2642
     45  O        249.0880  292.3720  186.6470 O.2    88  THR88      -0.2714
     46  CB       251.5510  293.4300  187.9640 C.3    88  THR88       0.1808
     47  OG1      251.7940  292.0700  187.6000 O.3    88  THR88      -0.2208
     48  CG2      250.8210  293.4020  189.2680 C.3    88  THR88       0.0379
     49  N        248.3170  294.3860  187.2800 N.am   89  CYS89      -0.1967
     50  CA       246.9210  294.0970  187.0230 C.3    89  CYS89       0.1712
     51  C        246.4870  294.5860  185.6520 C.2    89  CYS89       0.2296
     52  O        245.5440  294.0350  185.0780 O.2    89  CYS89      -0.2864
     53  CB       246.0510  294.7380  188.1100 C.3    89  CYS89       0.0983
     54  SG       244.2840  294.4140  188.0030 S.3    89  CYS89      -0.0798
     55  N        238.6970  288.3850  189.2370 N.3   105  ARG105     -0.1245
     56  CA       238.5810  288.6890  190.6520 C.3   105  ARG105      0.1563
     57  C        237.1200  288.8360  191.0840 C.2   105  ARG105      0.2260
     58  O        236.4000  289.7420  190.6510 O.2   105  ARG105     -0.2867
     59  CB       239.4200  289.9240  190.9830 C.3   105  ARG105      0.0307
     60  CG       239.1310  291.2510  190.3210 C.3   105  ARG105      0.0489
     61  CD       240.2050  292.2380  190.7390 C.3   105  ARG105      0.2205
     62  NE       240.3610  292.3320  192.1940 N.pl3 105  ARG105     -0.0865
     63  CZ       239.6070  293.0580  193.0130 C.cat 105  ARG105      0.5346
     64  NH1      239.8600  293.0650  194.3160 N.pl3 105  ARG105      0.1354
     65  NH2      238.5950  293.7660  192.5380 N.pl3 105  ARG105      0.1354
     66  N        242.3480  289.6350  193.6980 N.3   109  ASP109     -0.1239
     67  CA       242.7970  290.0260  192.3720 C.3   109  ASP109      0.1674
     68  C        243.5990  288.9190  191.7000 C.2   109  ASP109      0.2266
     69  O        244.1240  288.0120  192.3480 O.2   109  ASP109     -0.2867
     70  CB       243.5900  291.3300  192.4660 C.3   109  ASP109      0.1410
     71  CG       244.5600  291.3400  193.6260 C.2   109  ASP109      0.3668
     72  OD1      244.6170  290.3420  194.3700 O.co2 109  ASP109     -0.2456
     73  OD2      245.2320  292.3700  193.8230 O.co2 109  ASP109     -0.2456
     74  N        246.4310  288.7050  190.0870 N.3   111  CYS111     -0.1235
     75  CA       247.8210  289.0700  189.8240 C.3   111  CYS111      0.1677
     76  C        248.6700  287.8080  189.7040 C.2   111  CYS111      0.2270
     77  O        249.5290  287.5130  190.5350 O.2   111  CYS111     -0.2867
     78  CB       248.3400  289.9910  190.9180 C.3   111  CYS111      0.0956
     79  SG       247.4870  291.5750  190.9840 S.3   111  CYS111     -0.0801
     80  N        252.4450  288.5020  188.9650 N.3   114  ASP114     -0.1239
     81  CA       253.2440  288.3390  190.1780 C.3   114  ASP114      0.1674
     82  C        253.1960  286.8540  190.5060 C.2   114  ASP114      0.2266
     83  O        252.2870  286.3740  191.1790 O.2   114  ASP114     -0.2867
     84  CB       252.7040  289.1820  191.3280 C.3   114  ASP114      0.1410
     85  CG       252.9050  290.6680  191.1170 C.2   114  ASP114      0.3668
     86  OD1      253.8690  291.0540  190.4260 O.co2 114  ASP114     -0.2456
     87  OD2      252.1000  291.4540  191.6550 O.co2 114  ASP114     -0.2456
     88  N        252.8220  290.8100  197.9690 N.3   123  GLY123     -0.1210
     89  CA       252.0870  291.6570  197.0660 C.3   123  GLY123      0.1956
     90  C        252.8960  292.7780  196.4670 C.2   123  GLY123      0.2612
     91  O        252.3370  293.8450  196.1970 O.2   123  GLY123     -0.2717
     92  N        254.1960  292.5840  196.2620 N.am  124  VAL124     -0.1965
     93  CA       255.0680  293.7200  196.0030 C.3   124  VAL124      0.1727
     94  C        255.7410  293.6320  194.6430 C.2   124  VAL124      0.2616
     95  O        256.2060  294.6420  194.1060 O.2   124  VAL124     -0.2715
     96  CB       256.1260  293.8620  197.1100 C.3   124  VAL124      0.0290
     97  CG1      255.4570  294.0610  198.4160 C.3   124  VAL124      0.0023
     98  CG2      257.0240  292.6510  197.1780 C.3   124  VAL124      0.0023
     99  N        255.8670  292.4320  194.1050 N.am  125  GLY125     -0.1955
    100  CA       256.6190  292.3060  192.8820 C.3   125  GLY125      0.1869
    101  C        258.0890  292.2090  193.2190 C.2   125  GLY125      0.2309
    102  O        258.6600  293.1500  193.7640 O.2   125  GLY125     -0.2863
    103  N        257.8590  295.5710  185.3490 N.3   150  THR150     -0.1204
    104  CA       258.8220  295.5460  186.4260 C.3   150  THR150      0.1979
    105  C        258.1470  295.7150  187.7890 C.2   150  THR150      0.2460
    106  O        256.9990  296.1580  187.8730 O.2   150  THR150     -0.2732
    107  CB       259.8370  296.6540  186.2140 C.3   150  THR150      0.1783
    108  OG1      260.8750  296.5510  187.1880 O.3   150  THR150     -0.2211
    109  CG2      259.1670  297.9930  186.3490 C.3   150  THR150      0.0376
    110  N        258.8070  295.2880  188.8630 N.am  151  PRO151     -0.2717
    111  CA       258.4230  295.7640  190.1890 C.3   151  PRO151      0.1535
    112  C        258.5710  297.2690  190.2940 C.2   151  PRO151      0.2599
    113  O        259.4930  297.8630  189.7370 O.2   151  PRO151     -0.2715
    114  CB       259.4040  295.0430  191.1150 C.3   151  PRO151      0.0310
    115  CG       259.7090  293.7950  190.3990 C.3   151  PRO151      0.0237
    116  CD       259.7100  294.1290  188.9430 C.3   151  PRO151      0.0939
    117  N        257.6470  297.8860  191.0180 N.am  152  GLY152     -0.1955
    118  CA       257.6550  299.3260  191.1560 C.3   152  GLY152      0.1869
    119  C        258.1440  299.8030  192.5000 C.2   152  GLY152      0.2309
    120  O        258.0690  300.9940  192.8070 O.2   152  GLY152     -0.2863
    121  N        246.6000  305.8130  185.8370 N.3   203  ASN203     -0.1225
    122  CA       245.7060  304.7190  186.1660 C.3   203  ASN203      0.1785
    123  C        244.8480  305.1410  187.3480 C.2   203  ASN203      0.2597
    124  O        245.0470  306.2120  187.9290 O.2   203  ASN203     -0.2718
    125  CB       246.5040  303.4520  186.4790 C.3   203  ASN203      0.1169
    126  CG       245.6920  302.2010  186.3180 C.2   203  ASN203      0.2627
    127  OD1      244.5320  302.2620  185.9160 O.2   203  ASN203     -0.2716
    128  ND2      246.2760  301.0620  186.6550 N.am  203  ASN203     -0.0877
    129  N        243.8700  304.2850  187.6700 N.am  204  LYS204     -0.1980
    130  CA       243.0170  304.3960  188.8520 C.3   204  LYS204      0.1596
    131  C        242.2030  305.6880  188.8530 C.2   204  LYS204      0.2287
    132  O        242.3240  306.5090  189.7590 O.2   204  LYS204     -0.2864
    133  CB       243.8280  304.2770  190.1450 C.3   204  LYS204      0.0298
    134  CG       244.4490  302.9360  190.4520 C.3   204  LYS204      0.0038
    135  CD       245.2600  303.0430  191.7350 C.3   204  LYS204      0.0206
    136  CE       245.6550  301.6940  192.3110 C.3   204  LYS204      0.1093
    137  NZ       246.5600  300.9510  191.4190 N.3   204  LYS204     -0.1314
    138  N        238.8290  305.4270  188.5050 N.3   206  ASP206     -0.1225
    139  CA       237.7810  304.9680  189.4030 C.3   206  ASP206      0.1805
    140  C        238.1160  305.3150  190.8450 C.2   206  ASP206      0.2597
    141  O        237.2690  305.8220  191.5820 O.2   206  ASP206     -0.2718
    142  CB       237.6040  303.4690  189.2230 C.3   206  ASP206      0.1424
    143  CG       238.9210  302.7490  189.2490 C.2   206  ASP206      0.3668
    144  OD1      239.9490  303.4420  189.2870 O.co2 206  ASP206     -0.2456
    145  OD2      238.9650  301.5140  189.2250 O.co2 206  ASP206     -0.2456
    146  N        239.3740  305.1070  191.2400 N.am  207  ARG207     -0.1979
    147  CA       239.8480  305.5010  192.5590 C.3   207  ARG207      0.1597
    148  C        239.8700  307.0070  192.7080 C.2   207  ARG207      0.2287
    149  O        239.7770  307.5210  193.8260 O.2   207  ARG207     -0.2864
    150  CB       241.2410  304.9160  192.8030 C.3   207  ARG207      0.0334
    151  CG       241.7700  305.0730  194.2170 C.3   207  ARG207      0.0492
    152  CD       243.0410  304.3060  194.4330 C.3   207  ARG207      0.2205
    153  NE       243.4790  304.3840  195.8180 N.pl3 207  ARG207     -0.0865
    154  CZ       244.3490  305.2700  196.2700 C.cat 207  ARG207      0.5346
    155  NH1      244.8880  306.1460  195.4380 N.pl3 207  ARG207      0.1354
    156  NH2      244.6920  305.2730  197.5490 N.pl3 207  ARG207      0.1354
    157  N        241.5170  302.3970  184.1690 N.3   256  SER256     -0.1202
    158  CA       241.2150  301.8090  185.4720 C.3   256  SER256      0.2020
    159  C        241.3800  300.3090  185.3110 C.2   256  SER256      0.2619
    160  O        240.5280  299.6390  184.7260 O.2   256  SER256     -0.2717
    161  CB       239.8300  302.1500  185.9440 C.3   256  SER256      0.2103
    162  OG       239.7310  303.5170  186.2520 O.3   256  SER256     -0.2182
    163  N        242.4700  299.7750  185.8410 N.am  257  SER257     -0.1937
    164  CA       242.6950  298.3440  185.7480 C.3   257  SER257      0.2055
    165  C        241.8160  297.5410  186.6900 C.2   257  SER257      0.2643
    166  O        241.8180  296.3110  186.6130 O.2   257  SER257     -0.2714
    167  CB       244.1480  298.0260  186.0460 C.3   257  SER257      0.2130
    168  OG       244.3050  296.6290  186.1040 O.3   257  SER257     -0.2179
    169  N        241.1080  298.1880  187.6060 N.am  258  GLN258     -0.1963
    170  CA       240.2030  297.4550  188.4750 C.3   258  GLN258      0.1733
    171  C        239.0370  296.9620  187.6490 C.2   258  GLN258      0.2616
    172  O        238.5530  295.8440  187.8400 O.2   258  GLN258     -0.2715
    173  CB       239.6980  298.3310  189.6160 C.3   258  GLN258      0.0408
    174  CG       238.8460  297.6200  190.6160 C.3   258  GLN258      0.0908
    175  CD       239.5890  296.5160  191.2910 C.2   258  GLN258      0.2608
    176  OE1      239.4220  295.3570  190.9440 O.2   258  GLN258     -0.2717
    177  NE2      240.4110  296.8600  192.2720 N.am  258  GLN258     -0.0878
    178  N        238.6010  297.7890  186.7110 N.am  259  TYR259     -0.1974
    179  CA       237.4240  297.4840  185.9260 C.3   259  TYR259      0.1639
    180  C        237.7150  297.3690  184.4410 C.2   259  TYR259      0.2290
    181  O        236.7750  297.2220  183.6580 O.2   259  TYR259     -0.2864
    182  CB       236.3650  298.5370  186.1850 C.3   259  TYR259      0.0560
    183  CG       236.1280  298.7050  187.6500 C.ar  259  TYR259     -0.0198
    184  CD1      235.5470  297.7000  188.3940 C.ar  259  TYR259     -0.0009
    185  CD2      236.4700  299.8750  188.2880 C.ar  259  TYR259     -0.0009
    186  CE1      235.3460  297.8500  189.7420 C.ar  259  TYR259      0.0417
    187  CE2      236.2540  300.0400  189.6320 C.ar  259  TYR259      0.0417
    188  CZ       235.6890  299.0300  190.3510 C.ar  259  TYR259      0.1957
    189  OH       235.4840  299.1970  191.6940 O.3   259  TYR259     -0.2866
    190  N        230.7070  295.3500  192.3010 N.3   358  ARG358     -0.1245
    191  CA       232.0300  295.5730  191.7390 C.3   358  ARG358      0.1563
    192  C        232.3000  294.6670  190.5270 C.2   358  ARG358      0.2260
    193  O        232.7600  295.1920  189.5000 O.2   358  ARG358     -0.2867
    194  CB       233.0800  295.4240  192.8500 C.3   358  ARG358      0.0307
    195  CG       234.4890  295.8050  192.4950 C.3   358  ARG358      0.0489
    196  CD       235.4540  295.4690  193.6310 C.3   358  ARG358      0.2205
    197  NE       235.2050  296.2310  194.8490 N.pl3 358  ARG358     -0.0865
    198  CZ       235.7540  297.4080  195.1180 C.cat 358  ARG358      0.5346
    199  NH1      236.5970  297.9550  194.2610 N.pl3 358  ARG358      0.1354
    200  NH2      235.4740  298.0310  196.2490 N.pl3 358  ARG358      0.1354
@<TRIPOS>BOND
     1   181   180    2
     2   157   158    1
     3   180   179    1
     4   160   159    2
     5    36    35    2
     6    52    51    2
     7   159   158    1
     8   159   163   am
     9   103   104    1
    10   158   161    1
    11    51    50    1
    12   164   163    1
    13   164   167    1
    14   164   165    1
    15   121   122    1
    16    37    34    1
    17    37    38    1
    18   127   126    2
    19    35    34    1
    20    35    42   am
    21   179   182    1
    22   179   178    1
    23   161   162    1
    24   167   168    1
    25    34    33    1
    26   122   125    1
    27   122   123    1
    28   182   183    1
    29   107   109    1
    30   107   104    1
    31   107   108    1
    32   126   125    1
    33   126   128   am
    34   104   105    1
    35   166   165    2
    36    45    44    2
    37   165   169   am
    38   178   171   am
    39    32    31    2
    40    43    44    1
    41    43    42    1
    42    43    46    1
    43    44    49   am
    44    39    38    1
    45    39    40    1
    46    50    49    1
    47    50    53    1
    48   123   129   am
    49   123   124    2
    50    33    31   am
    51    31    30    1
    52    47    46    1
    53   169   170    1
    54   171   172    2
    55   171   170    1
    56   183   185   ar
    57   183   184   ar
    58   129   130    1
    59   105   106    2
    60   105   110   am
    61    46    48    1
    62    54    53    1
    63    40    41    1
    64    22    21    2
    65   185   187   ar
    66   184   186   ar
    67   170   173    1
    68   138   139    1
    69   130   131    1
    70   130   133    1
    71   131   132    2
    72   110   116    1
    73   110   111    1
    74    30    29    1
    75   116   115    1
    76    80    81    1
    77   142   143    1
    78   142   139    1
    79   145   143   ar
    80    55    56    1
    81   143   144   ar
    82    21    29   am
    83    21    20    1
    84   139   140    1
    85   193   192    2
    86   173   174    1
    87   187   188   ar
    88    76    75    1
    89    76    77    2
    90   113   112    2
    91   186   188   ar
    92    75    74    1
    93    75    78    1
    94    23    20    1
    95    23    24    1
    96   133   134    1
    97    81    82    1
    98    81    84    1
    99   111   112    1
   100   111   114    1
   101   112   117   am
   102    60    61    1
   103    60    59    1
   104   188   189    1
   105   115   114    1
   106    86    85   ar
   107   134   135    1
   108    20    19    1
   109    82    83    2
   110   192   191    1
   111   174   175    1
   112    58    57    2
   113    56    59    1
   114    56    57    1
   115    61    62    1
   116   140   146   am
   117   140   141    2
   118    78    79    1
   119   176   175    2
   120   117   118    1
   121    24    25   ar
   122    24    26   ar
   123    85    84    1
   124    85    87   ar
   125    25    27   ar
   126   118   119    1
   127   146   147    1
   128   175   177   am
   129   137   136    1
   130    19    11   am
   131    68    69    2
   132    68    67    1
   133   135   136    1
   134   191   190    1
   135   191   194    1
   136    26    28   ar
   137    27    28   ar
   138    62    63    2
   139    67    70    1
   140    67    66    1
   141    70    71    1
   142   195   194    1
   143   195   196    1
   144   119   120    2
   145    65    63    1
   146   147   148    1
   147   147   150    1
   148    11    12    2
   149    11    10    1
   150   148   149    2
   151     4     3    2
   152   150   151    1
   153   100   101    1
   154   100    99    1
   155     1     2    1
   156    63    64    1
   157   101   102    2
   158     3     2    1
   159     3     9   am
   160     2     5    1
   161    71    73   ar
   162    71    72   ar
   163   196   197    1
   164    10     9    1
   165    10    13    1
   166    99    94   am
   167    95    94    2
   168   151   152    1
   169   199   198    1
   170   152   153    1
   171    94    93    1
   172   197   198    2
   173     5     6    1
   174    13    14    1
   175   198   200    1
   176   155   154    1
   177     7     6    1
   178    15    14   ar
   179    15    17   ar
   180   153   154    2
   181     6     8    1
   182    93    92    1
   183    93    96    1
   184    14    16   ar
   185    91    90    2
   186    92    90   am
   187   154   156    1
   188    90    89    1
   189    17    18   ar
   190    89    88    1
   191    96    98    1
   192    96    97    1
   193    16    18   ar
