@<TRIPOS>MOLECULE
tmp/6ff8A00.pdb
 179 176 0 0 0
SMALL
GASTEIGER

@<TRIPOS>ATOM
      1  N        -22.6310  -28.9170   19.2070 N.3    15  LEU15      -0.1231
      2  CA       -21.2290  -29.4130   19.2870 C.3    15  LEU15       0.1693
      3  C        -20.9150  -30.4740   18.2720 C.2    15  LEU15       0.2593
      4  O        -21.6830  -31.3950   18.1460 O.2    15  LEU15      -0.2718
      5  CB       -21.0480  -30.0310   20.6410 C.3    15  LEU15       0.0284
      6  CG       -21.0800  -29.0720   21.8210 C.3    15  LEU15       0.0019
      7  CD1      -21.2810  -29.8910   23.0900 C.3    15  LEU15       0.0001
      8  CD2      -19.8000  -28.2660   21.8940 C.3    15  LEU15       0.0001
      9  N        -19.8390  -30.2800   17.5110 N.am   16  GLY16      -0.1942
     10  CA       -19.2380  -31.3440   16.6890 C.3    16  GLY16       0.2014
     11  C        -19.9240  -31.5800   15.3760 C.2    16  GLY16       0.2639
     12  O        -19.6110  -32.5710   14.7410 O.2    16  GLY16      -0.2714
     13  N        -20.8540  -30.6920   14.9600 N.am   17  VAL17      -0.1963
     14  CA       -21.6390  -30.9120   13.7270 C.3    17  VAL17       0.1727
     15  C        -20.9060  -30.5260   12.4890 C.2    17  VAL17       0.2617
     16  O        -21.2600  -31.0220   11.4360 O.2    17  VAL17      -0.2715
     17  CB       -23.0480  -30.2620   13.6780 C.3    17  VAL17       0.0290
     18  CG1      -23.9230  -30.8160   14.7690 C.3    17  VAL17       0.0023
     19  CG2      -23.0070  -28.7100   13.7040 C.3    17  VAL17       0.0023
     20  N        -19.8420  -29.6920   12.6120 N.am   18  GLY18      -0.1940
     21  CA       -19.0480  -29.2580   11.4880 C.3    18  GLY18       0.2014
     22  C        -18.9700  -27.7300   11.2400 C.2    18  GLY18       0.2639
     23  O        -18.5910  -27.3410   10.2200 O.2    18  GLY18      -0.2714
     24  N        -19.4940  -26.9010   12.1000 N.am   19  LYS19      -0.1963
     25  CA       -19.5880  -25.4220   11.8670 C.3    19  LYS19       0.1728
     26  C        -18.2500  -24.8650   11.4560 C.2    19  LYS19       0.2617
     27  O        -18.1400  -24.3240   10.3780 O.2    19  LYS19      -0.2715
     28  CB       -20.0660  -24.7150   13.1020 C.3    19  LYS19       0.0311
     29  CG       -21.5310  -25.0260   13.4410 C.3    19  LYS19       0.0038
     30  CD       -21.9870  -24.3740   14.7580 C.3    19  LYS19       0.0206
     31  CE       -21.2000  -24.7740   15.9970 C.3    19  LYS19       0.1093
     32  NZ       -21.1260  -26.2540   16.2820 N.3    19  LYS19      -0.1314
     33  N        -17.2120  -25.2040   12.1950 N.am   20  THR20      -0.1937
     34  CA       -15.8800  -24.6850   11.9800 C.3    20  THR20       0.2028
     35  C        -15.2840  -25.1570   10.6780 C.2    20  THR20       0.2642
     36  O        -14.6460  -24.3650    9.9790 O.2    20  THR20      -0.2714
     37  CB       -14.9930  -24.9160   13.1620 C.3    20  THR20       0.1808
     38  OG1      -15.5230  -24.1860   14.2720 O.3    20  THR20      -0.2208
     39  CG2      -13.4480  -24.5330   12.9480 C.3    20  THR20       0.0379
     40  N        -15.5040  -26.4200   10.3640 N.am   21  SER21      -0.1949
     41  CA       -14.9830  -27.0580    9.2040 C.3    21  SER21       0.1924
     42  C        -15.6390  -26.6570    7.9340 C.2    21  SER21       0.2314
     43  O        -14.9890  -26.6050    6.9020 O.2    21  SER21      -0.2863
     44  CB       -15.1330  -28.6190    9.3320 C.3    21  SER21       0.2116
     45  OG       -14.4850  -29.0740   10.4800 O.3    21  SER21      -0.2180
     46  N         -9.3410  -28.8120    5.1070 N.3    31  PHE31      -0.1227
     47  CA       -10.0580  -29.6810    6.0610 C.3    31  PHE31       0.1736
     48  C         -9.0840  -30.4880    6.8940 C.2    31  PHE31       0.2596
     49  O         -8.1540  -31.0470    6.3770 O.2    31  PHE31      -0.2718
     50  CB       -10.9590  -30.6470    5.3010 C.3    31  PHE31       0.0547
     51  CG       -11.6680  -31.6070    6.1650 C.ar   31  PHE31      -0.0202
     52  CD1      -12.8750  -31.2480    6.7540 C.ar   31  PHE31      -0.0042
     53  CD2      -11.1770  -32.8820    6.3770 C.ar   31  PHE31      -0.0042
     54  CE1      -13.5600  -32.1530    7.5510 C.ar   31  PHE31      -0.0003
     55  CE2      -11.8380  -33.7620    7.2010 C.ar   31  PHE31      -0.0003
     56  CZ       -13.0510  -33.3910    7.7690 C.ar   31  PHE31      -0.0000
     57  N         -9.3570  -30.5510    8.1900 N.am   32  SER32      -0.1938
     58  CA        -8.7050  -31.4040    9.1110 C.3    32  SER32       0.2055
     59  C         -9.7650  -32.2640    9.7360 C.2    32  SER32       0.2643
     60  O        -10.7820  -31.8060   10.1800 O.2    32  SER32      -0.2714
     61  CB        -7.9990  -30.5630   10.1990 C.3    32  SER32       0.2130
     62  OG        -7.4490  -31.3920   11.2040 O.3    32  SER32      -0.2179
     63  N         -9.4930  -33.5570    9.7860 N.am   33  GLN33      -0.1963
     64  CA       -10.2800  -34.4680   10.6000 C.3    33  GLN33       0.1733
     65  C        -10.1250  -34.2370   12.1240 C.2    33  GLN33       0.2616
     66  O        -10.8820  -34.8170   12.9120 O.2    33  GLN33      -0.2715
     67  CB        -9.9290  -35.9290   10.2170 C.3    33  GLN33       0.0408
     68  CG        -8.5400  -36.3260   10.5760 C.3    33  GLN33       0.0908
     69  CD        -7.4780  -36.1430    9.4870 C.2    33  GLN33       0.2608
     70  OE1       -7.4400  -35.1540    8.7020 O.2    33  GLN33      -0.2717
     71  NE2       -6.5680  -37.1030    9.4670 N.am   33  GLN33      -0.0878
     72  N         -9.1090  -33.4800   12.5760 N.am   34  HIS34      -0.1959
     73  CA        -8.8630  -33.3850   14.0220 C.3    34  HIS34       0.1787
     74  C         -9.8400  -32.3810   14.5890 C.2    34  HIS34       0.2620
     75  O         -9.8740  -31.2690   14.1850 O.2    34  HIS34      -0.2715
     76  CB        -7.4190  -33.0420   14.3550 C.3    34  HIS34       0.0785
     77  CG        -6.4470  -34.0590   13.8600 C.ar   34  HIS34       0.0821
     78  ND1       -6.6210  -35.4140   14.0670 N.ar   34  HIS34      -0.2267
     79  CD2       -5.3460  -33.9360   13.0760 C.ar   34  HIS34       0.1154
     80  CE1       -5.6500  -36.0760   13.4600 C.ar   34  HIS34       0.1986
     81  NE2       -4.8820  -35.2010   12.8250 N.ar   34  HIS34      -0.2212
     82  N        -10.6370  -32.8150   15.5470 N.am   35  TYR35      -0.1960
     83  CA       -11.5410  -31.9810   16.2770 C.3    35  TYR35       0.1771
     84  C        -10.8100  -31.0130   17.2030 C.2    35  TYR35       0.2619
     85  O        -10.1210  -31.4050   18.0860 O.2    35  TYR35      -0.2715
     86  CB       -12.5130  -32.8270   17.0970 C.3    35  TYR35       0.0574
     87  CG       -13.5630  -32.0260   17.8690 C.ar   35  TYR35      -0.0198
     88  CD1      -14.2360  -30.9470   17.2710 C.ar   35  TYR35      -0.0009
     89  CD2      -13.9330  -32.3750   19.1580 C.ar   35  TYR35      -0.0009
     90  CE1      -15.2350  -30.2430   17.9680 C.ar   35  TYR35       0.0417
     91  CE2      -14.9160  -31.6780   19.8710 C.ar   35  TYR35       0.0417
     92  CZ       -15.5580  -30.6070   19.2640 C.ar   35  TYR35       0.1957
     93  OH       -16.5070  -29.8970   19.9880 O.3    35  TYR35      -0.2866
     94  N        -10.9950  -29.7220   16.9840 N.am   36  ARG36      -0.1963
     95  CA       -10.5260  -28.7250   17.9230 C.3    36  ARG36       0.1729
     96  C        -11.8010  -27.9480   18.2920 C.2    36  ARG36       0.2616
     97  O        -12.3770  -27.3150   17.4780 O.2    36  ARG36      -0.2715
     98  CB        -9.5360  -27.7960   17.2410 C.3    36  ARG36       0.0348
     99  CG        -8.2300  -28.4790   16.8530 C.3    36  ARG36       0.0492
    100  CD        -7.0980  -27.4730   16.6440 C.3    36  ARG36       0.2205
    101  NE        -6.3880  -27.2160   17.8920 N.pl3  36  ARG36      -0.0865
    102  CZ        -5.7180  -26.1000   18.1840 C.cat  36  ARG36       0.5346
    103  NH1       -5.6460  -25.0800   17.3220 N.pl3  36  ARG36       0.1354
    104  NH2       -5.1110  -25.9950   19.3640 N.pl3  36  ARG36       0.1354
    105  N        -12.1900  -27.9820   19.5600 N.am   37  ALA37      -0.1963
    106  CA       -13.5060  -27.5090   19.9580 C.3    37  ALA37       0.1728
    107  C        -13.4680  -25.9710   20.0210 C.2    37  ALA37       0.2616
    108  O        -12.5570  -25.4160   20.6230 O.2    37  ALA37      -0.2715
    109  CB       -13.8150  -28.0990   21.3230 C.3    37  ALA37       0.0334
    110  N        -14.4410  -25.3010   19.4580 N.am   38  THR38      -0.1951
    111  CA       -14.4270  -23.8360   19.4730 C.3    38  THR38       0.1897
    112  C        -14.8210  -23.3140   20.8940 C.2    38  THR38       0.2313
    113  O        -15.6780  -23.8930   21.5680 O.2    38  THR38      -0.2863
    114  CB       -15.3310  -23.2990   18.3680 C.3    38  THR38       0.1794
    115  OG1      -14.9280  -23.8460   17.1130 O.3    38  THR38      -0.2208
    116  CG2      -15.2920  -21.7250   18.3070 C.3    38  THR38       0.0378
    117  N        -19.9980  -21.2670   18.8510 N.3    64  ALA64      -0.1231
    118  CA       -19.7030  -22.5620   19.4340 C.3    64  ALA64       0.1694
    119  C        -21.0230  -23.2200   19.9150 C.2    64  ALA64       0.2592
    120  O        -21.9050  -22.5490   20.4220 O.2    64  ALA64      -0.2718
    121  CB       -18.7640  -22.4130   20.5960 C.3    64  ALA64       0.0304
    122  N        -21.0100  -24.5460   19.8940 N.am   65  GLY65      -0.1957
    123  CA       -22.1140  -25.4220   20.2530 C.3    65  GLY65       0.1869
    124  C        -22.7460  -25.2370   21.5930 C.2    65  GLY65       0.2309
    125  O        -23.9710  -25.3800   21.7180 O.2    65  GLY65      -0.2863
    126  N        -24.8360  -31.7930    7.4880 N.3   124  ASN124     -0.1225
    127  CA       -23.3790  -31.9590    7.1980 C.3   124  ASN124      0.1785
    128  C        -22.9270  -33.3690    7.4600 C.2   124  ASN124      0.2597
    129  O        -23.6170  -34.1650    8.1240 O.2   124  ASN124     -0.2718
    130  CB       -22.5590  -30.8870    7.9570 C.3   124  ASN124      0.1169
    131  CG       -21.1160  -30.7680    7.4850 C.2   124  ASN124      0.2627
    132  OD1      -20.8330  -30.6950    6.2820 O.2   124  ASN124     -0.2716
    133  ND2      -20.1760  -30.8260    8.4370 N.am  124  ASN124     -0.0877
    134  N        -21.7900  -33.7010    6.8710 N.am  125  LYS125     -0.1980
    135  CA       -21.1810  -35.0380    6.9490 C.3   125  LYS125      0.1596
    136  C        -21.8730  -36.0420    6.0520 C.2   125  LYS125      0.2287
    137  O        -21.8130  -37.2870    6.3010 O.2   125  LYS125     -0.2864
    138  CB       -21.0370  -35.5290    8.3830 C.3   125  LYS125      0.0298
    139  CG       -20.4760  -34.5130    9.3570 C.3   125  LYS125      0.0038
    140  CD       -19.8500  -35.1790   10.5770 C.3   125  LYS125      0.0206
    141  CE       -19.4190  -34.1020   11.5600 C.3   125  LYS125      0.1093
    142  NZ       -19.2930  -34.5340   12.9560 N.3   125  LYS125     -0.1314
    143  N        -21.0610  -37.3690    3.3960 N.3   127  ASP127     -0.1225
    144  CA       -20.1270  -38.3830    3.0780 C.3   127  ASP127      0.1805
    145  C        -20.1730  -39.6550    3.9510 C.2   127  ASP127      0.2597
    146  O        -19.8320  -40.6990    3.4500 O.2   127  ASP127     -0.2718
    147  CB       -18.6980  -37.7760    3.0240 C.3   127  ASP127      0.1424
    148  CG       -18.2290  -37.2130    4.3410 C.2   127  ASP127      0.3668
    149  OD1      -18.4990  -35.9780    4.6490 O.co2 127  ASP127     -0.2456
    150  OD2      -17.5000  -37.9350    5.0660 O.co2 127  ASP127     -0.2456
    151  N        -20.6440  -39.6170    5.1950 N.am  128  GLN128     -0.1979
    152  CA       -20.7290  -40.7900    6.0590 C.3   128  GLN128      0.1601
    153  C        -21.8640  -41.7990    5.7110 C.2   128  GLN128      0.2287
    154  O        -22.9140  -41.4110    5.1790 O.2   128  GLN128     -0.2864
    155  CB       -20.8040  -40.3710    7.5200 C.3   128  GLN128      0.0394
    156  CG       -19.4630  -39.8550    8.0050 C.3   128  GLN128      0.0908
    157  CD       -19.4840  -39.0560    9.3060 C.2   128  GLN128      0.2608
    158  OE1      -18.4310  -38.6700    9.7950 O.2   128  GLN128     -0.2717
    159  NE2      -20.6750  -38.7640    9.8470 N.am  128  GLN128     -0.0878
    160  N        -20.7150  -31.7870    2.6710 N.3   151  SER151     -0.1202
    161  CA       -19.5280  -32.3360    3.2510 C.3   151  SER151      0.2020
    162  C        -18.4060  -31.2910    3.2520 C.2   151  SER151      0.2619
    163  O        -17.8860  -30.9030    2.1780 O.2   151  SER151     -0.2717
    164  CB       -19.0980  -33.5880    2.4870 C.3   151  SER151      0.2103
    165  OG       -17.8620  -34.1070    2.9610 O.3   151  SER151     -0.2182
    166  N        -17.9530  -30.9040    4.4450 N.am  152  ALA152     -0.1965
    167  CA       -16.7090  -30.1600    4.5120 C.3   152  ALA152      0.1728
    168  C        -15.4830  -31.0270    4.0930 C.2   152  ALA152      0.2616
    169  O        -14.5010  -30.5330    3.5340 O.2   152  ALA152     -0.2715
    170  CB       -16.5230  -29.5150    5.8880 C.3   152  ALA152      0.0334
    171  N        -15.5600  -32.3120    4.3540 N.am  153  LYS153     -0.1977
    172  CA       -14.4740  -33.2420    4.0510 C.3   153  LYS153      0.1596
    173  C        -14.2230  -33.3640    2.5320 C.2   153  LYS153      0.2287
    174  O        -13.0910  -33.1300    2.0300 O.2   153  LYS153     -0.2864
    175  CB       -14.8160  -34.6210    4.6280 C.3   153  LYS153      0.0298
    176  CG       -13.6980  -35.5870    4.5610 C.3   153  LYS153      0.0038
    177  CD       -14.1000  -36.9500    5.1060 C.3   153  LYS153      0.0206
    178  CE       -12.9910  -37.9290    4.8090 C.3   153  LYS153      0.1093
    179  NZ       -12.8730  -39.0590    5.7830 N.3   153  LYS153     -0.1314
@<TRIPOS>BOND
     1   174   173    2
     2   163   162    2
     3   164   165    1
     4   164   161    1
     5   173   172    1
     6   160   161    1
     7   147   144    1
     8   147   148    1
     9   144   143    1
    10   144   145    1
    11   161   162    1
    12   162   166   am
    13   146   145    2
    14   169   168    2
    15   145   151   am
    16   172   171    1
    17   172   175    1
    18   168   171   am
    19   168   167    1
    20   148   149   ar
    21   148   150   ar
    22   166   167    1
    23   167   170    1
    24   176   175    1
    25   176   177    1
    26   178   177    1
    27   178   179    1
    28    46    47    1
    29   154   153    2
    30   151   152    1
    31    50    47    1
    32    50    51    1
    33   153   152    1
    34   136   137    2
    35   136   135    1
    36   152   155    1
    37    47    48    1
    38    51    53   ar
    39    51    52   ar
    40   132   131    2
    41    53    55   ar
    42    49    48    2
    43    52    54   ar
    44   134   135    1
    45   134   128   am
    46    48    57   am
    47    43    42    2
    48   135   138    1
    49   127   128    1
    50   127   126    1
    51   127   130    1
    52    55    56   ar
    53   128   129    2
    54   131   130    1
    55   131   133   am
    56   155   156    1
    57    54    56   ar
    58    42    41    1
    59   156   157    1
    60    57    58    1
    61   138   139    1
    62    70    69    2
    63    58    59    1
    64    58    61    1
    65    41    44    1
    66    41    40    1
    67   157   158    2
    68   157   159   am
    69    44    45    1
    70   139   140    1
    71    71    69   am
    72    69    68    1
    73    59    63   am
    74    59    60    2
    75    63    64    1
    76    36    35    2
    77    61    62    1
    78    67    68    1
    79    67    64    1
    80    23    22    2
    81    40    35   am
    82    27    26    2
    83   140   141    1
    84    64    65    1
    85    35    34    1
    86    22    21    1
    87    22    24   am
    88    16    15    2
    89    26    25    1
    90    26    33   am
    91    21    20    1
    92   141   142    1
    93    25    24    1
    94    25    28    1
    95    34    33    1
    96    34    37    1
    97    65    72   am
    98    65    66    2
    99    15    20   am
   100    15    14    1
   101    72    73    1
   102    81    79   ar
   103    81    80   ar
   104    39    37    1
   105    79    77   ar
   106    28    29    1
   107    37    38    1
   108    29    30    1
   109    80    78   ar
   110    17    19    1
   111    17    14    1
   112    17    18    1
   113    14    13    1
   114    77    78   ar
   115    77    76    1
   116    73    76    1
   117    73    74    1
   118    75    74    2
   119    74    82   am
   120    12    11    2
   121    30    31    1
   122    13    11   am
   123    11    10    1
   124    82    83    1
   125    31    32    1
   126    83    86    1
   127    83    84    1
   128   100    99    1
   129   100   101    1
   130    10     9    1
   131    99    98    1
   132    94    84   am
   133    94    95    1
   134    86    87    1
   135   115   114    1
   136    84    85    2
   137    98    95    1
   138    88    87   ar
   139    88    90   ar
   140   103   102    1
   141    97    96    2
   142     9     3   am
   143    87    89   ar
   144   101   102    2
   145    95    96    1
   146    90    92   ar
   147     4     3    2
   148   102   104    1
   149     3     2    1
   150    96   105   am
   151   116   114    1
   152   114   111    1
   153   117   118    1
   154    89    91   ar
   155     1     2    1
   156    92    91   ar
   157    92    93    1
   158     2     5    1
   159   118   119    1
   160   118   121    1
   161   110   111    1
   162   110   107   am
   163   111   112    1
   164   105   106    1
   165   122   119   am
   166   122   123    1
   167   119   120    2
   168   106   107    1
   169   106   109    1
   170   107   108    2
   171   123   124    1
   172     5     6    1
   173   112   113    2
   174   124   125    2
   175     6     8    1
   176     6     7    1
