@<TRIPOS>MOLECULE
tmp/6ffdA00.pdb
 143 143 0 0 0
SMALL
GASTEIGER

@<TRIPOS>ATOM
      1  N        -36.5980   72.8160    2.5800 N.3    28  TRP28      -0.1228
      2  CA       -36.2280   74.0070    3.3710 C.3    28  TRP28       0.1722
      3  C        -35.4310   73.7520    4.6670 C.2    28  TRP28       0.2437
      4  O        -34.5550   74.5530    5.0060 O.2    28  TRP28      -0.2733
      5  CB       -37.4480   74.9420    3.6380 C.3    28  TRP28       0.0563
      6  CG       -38.4680   74.3640    4.5640 C.ar   28  TRP28       0.0003
      7  CD1      -39.6120   73.7000    4.2130 C.ar   28  TRP28       0.0946
      8  CD2      -38.4230   74.3550    5.9920 C.ar   28  TRP28       0.0152
      9  NE1      -40.2770   73.2830    5.3330 N.ar   28  TRP28      -0.2442
     10  CE2      -39.5700   73.6680    6.4410 C.ar   28  TRP28       0.0810
     11  CE3      -37.5190   74.8530    6.9380 C.ar   28  TRP28       0.0012
     12  CZ2      -39.8510   73.4820    7.7970 C.ar   28  TRP28       0.0191
     13  CZ3      -37.7930   74.6570    8.2850 C.ar   28  TRP28       0.0001
     14  CH2      -38.9500   73.9800    8.7000 C.ar   28  TRP28       0.0015
     15  N        -35.6990   72.6380    5.3930 N.am   29  PRO29      -0.2718
     16  CA       -34.8950   72.4500    6.6140 C.3    29  PRO29       0.1535
     17  C        -33.4090   72.1870    6.3550 C.2    29  PRO29       0.2598
     18  O        -32.5930   72.3470    7.2570 O.2    29  PRO29      -0.2715
     19  CB       -35.5410   71.2210    7.2860 C.3    29  PRO29       0.0310
     20  CG       -36.8780   71.0930    6.6590 C.3    29  PRO29       0.0237
     21  CD       -36.7150   71.5840    5.2570 C.3    29  PRO29       0.0939
     22  N        -33.0740   71.7860    5.1270 N.am   30  PHE30      -0.1974
     23  CA       -31.7230   71.4080    4.7690 C.3    30  PHE30       0.1639
     24  C        -30.9230   72.5580    4.1290 C.2    30  PHE30       0.2290
     25  O        -29.7450   72.3890    3.8370 O.2    30  PHE30      -0.2864
     26  CB       -31.8020   70.1680    3.8670 C.3    30  PHE30       0.0560
     27  CG       -32.6480   69.0940    4.4610 C.ar   30  PHE30      -0.0200
     28  CD1      -32.1650   68.3340    5.5210 C.ar   30  PHE30      -0.0042
     29  CD2      -33.9540   68.9150    4.0490 C.ar   30  PHE30      -0.0042
     30  CE1      -32.9580   67.3760    6.1150 C.ar   30  PHE30      -0.0003
     31  CE2      -34.7530   67.9580    4.6390 C.ar   30  PHE30      -0.0003
     32  CZ       -34.2540   67.1900    5.6740 C.ar   30  PHE30      -0.0000
     33  N        -29.8030   75.5320    5.3990 N.3    32  LYS32      -0.1231
     34  CA       -28.7840   76.1620    6.2430 C.3    32  LYS32       0.1678
     35  C        -28.4590   75.2430    7.4200 C.2    32  LYS32       0.2434
     36  O        -29.2090   74.2980    7.6900 O.2    32  LYS32      -0.2733
     37  CB       -29.2870   77.5290    6.7450 C.3    32  LYS32       0.0284
     38  CG       -29.4650   78.5770    5.6720 C.3    32  LYS32       0.0035
     39  CD       -29.8220   79.8980    6.3310 C.3    32  LYS32       0.0206
     40  CE       -29.9870   81.0180    5.3230 C.3    32  LYS32       0.1093
     41  NZ       -31.0090   80.7090    4.2930 N.3    32  LYS32      -0.1314
     42  N        -27.3380   75.5110    8.1290 N.am   33  PRO33      -0.2718
     43  CA       -26.9690   74.6230    9.2390 C.3    33  PRO33       0.1535
     44  C        -28.0720   74.5060   10.2830 C.2    33  PRO33       0.2598
     45  O        -28.8280   75.4570   10.5070 O.2    33  PRO33      -0.2715
     46  CB       -25.7210   75.2900    9.8390 C.3    33  PRO33       0.0310
     47  CG       -25.1640   76.1340    8.7430 C.3    33  PRO33       0.0237
     48  CD       -26.3370   76.5800    7.9200 C.3    33  PRO33       0.0939
     49  N        -28.1770   73.3340   10.8970 N.am   34  VAL34      -0.1964
     50  CA       -29.1110   73.1530   12.0020 C.3    34  VAL34       0.1727
     51  C        -28.7580   74.2210   13.0460 C.2    34  VAL34       0.2616
     52  O        -27.5870   74.3800   13.4010 O.2    34  VAL34      -0.2715
     53  CB       -29.0350   71.7220   12.5940 C.3    34  VAL34       0.0290
     54  CG1      -29.8550   71.6100   13.8800 C.3    34  VAL34       0.0023
     55  CG2      -29.5250   70.6980   11.5710 C.3    34  VAL34       0.0023
     56  N        -29.7620   74.9840   13.4760 N.am   35  ASP35      -0.1971
     57  CA       -29.5690   76.0400   14.4680 C.3    35  ASP35       0.1709
     58  C        -29.5920   75.3880   15.8410 C.2    35  ASP35       0.2293
     59  O        -30.6570   75.1710   16.4220 O.2    35  ASP35      -0.2864
     60  CB       -30.6640   77.1090   14.3460 C.3    35  ASP35       0.1436
     61  CG       -30.5470   78.2180   15.4030 C.2    35  ASP35       0.3671
     62  OD1      -29.5060   78.3230   16.1020 O.co2  35  ASP35      -0.2456
     63  OD2      -31.5220   78.9870   15.5270 O.co2  35  ASP35      -0.2456
     64  N        -33.0910   71.6560   20.3920 N.3    41  LEU41      -0.1245
     65  CA       -31.8620   71.2190   19.6990 C.3    41  LEU41       0.1561
     66  C        -30.5700   71.3450   20.5330 C.2    41  LEU41       0.2260
     67  O        -29.4770   71.1590   20.0050 O.2    41  LEU41      -0.2867
     68  CB       -31.7090   71.9830   18.3720 C.3    41  LEU41       0.0270
     69  CG       -32.8560   71.7860   17.3730 C.3    41  LEU41       0.0019
     70  CD1      -32.6280   72.6030   16.1120 C.3    41  LEU41       0.0001
     71  CD2      -33.0350   70.3190   17.0180 C.3    41  LEU41       0.0001
     72  N        -28.0880   68.6030   19.9150 N.3    44  TYR44      -0.1241
     73  CA       -27.7920   68.2240   18.5220 C.3    44  TYR44       0.1605
     74  C        -26.3150   67.8670   18.3420 C.2    44  TYR44       0.2264
     75  O        -25.9830   66.8080   17.7920 O.2    44  TYR44      -0.2867
     76  CB       -28.1890   69.3390   17.5430 C.3    44  TYR44       0.0534
     77  CG       -28.1070   68.9060   16.0900 C.ar   44  TYR44      -0.0201
     78  CD1      -29.1200   68.1280   15.5150 C.ar   44  TYR44      -0.0009
     79  CD2      -27.0220   69.2640   15.2960 C.ar   44  TYR44      -0.0009
     80  CE1      -29.0450   67.7150   14.1890 C.ar   44  TYR44       0.0417
     81  CE2      -26.9370   68.8620   13.9700 C.ar   44  TYR44       0.0417
     82  CZ       -27.9520   68.0890   13.4240 C.ar   44  TYR44       0.1957
     83  OH       -27.8740   67.6840   12.1230 O.3    44  TYR44      -0.2866
     84  N        -29.9050   63.7230    9.7670 N.3    83  CYS83      -0.1235
     85  CA       -31.3250   63.9140    9.9960 C.3    83  CYS83       0.1677
     86  C        -31.9610   62.6240   10.4890 C.2    83  CYS83       0.2270
     87  O        -32.7230   62.6490   11.4420 O.2    83  CYS83      -0.2867
     88  CB       -32.0220   64.3900    8.7130 C.3    83  CYS83       0.0956
     89  SG       -33.7650   64.7860    8.9280 S.3    83  CYS83      -0.0801
     90  N        -30.6230   61.8360   14.1990 N.3    86  TYR86      -0.1227
     91  CA       -30.9740   62.7360   15.2890 C.3    86  TYR86       0.1736
     92  C        -32.4450   62.7480   15.6300 C.2    86  TYR86       0.2595
     93  O        -32.8020   62.7380   16.7990 O.2    86  TYR86      -0.2718
     94  CB       -30.5290   64.1740   14.9960 C.3    86  TYR86       0.0548
     95  CG       -30.9990   65.1270   16.0700 C.ar   86  TYR86      -0.0200
     96  CD1      -30.4130   65.1150   17.3350 C.ar   86  TYR86      -0.0009
     97  CD2      -32.0560   66.0100   15.8430 C.ar   86  TYR86      -0.0009
     98  CE1      -30.8510   65.9690   18.3370 C.ar   86  TYR86       0.0417
     99  CE2      -32.5030   66.8630   16.8430 C.ar   86  TYR86       0.0417
    100  CZ       -31.8900   66.8380   18.0850 C.ar   86  TYR86       0.1957
    101  OH       -32.3180   67.6770   19.0850 O.3    86  TYR86      -0.2866
    102  N        -33.2970   62.8120   14.6110 N.am   87  ASN87      -0.1974
    103  CA       -34.7130   63.0290   14.8330 C.3    87  ASN87       0.1688
    104  C        -35.4610   61.7220   15.0840 C.2    87  ASN87       0.2292
    105  O        -34.9910   60.6600   14.6800 O.2    87  ASN87      -0.2864
    106  CB       -35.3140   63.7720   13.6470 C.3    87  ASN87       0.1181
    107  CG       -34.7080   65.1440   13.4660 C.2    87  ASN87       0.2629
    108  OD1      -35.0810   66.0910   14.1570 O.2    87  ASN87      -0.2716
    109  ND2      -33.7560   65.2590   12.5460 N.am   87  ASN87      -0.0877
    110  N        -40.8650   61.7610   12.9310 N.3    91  HIS91      -0.1226
    111  CA       -40.8720   63.2240   12.7880 C.3    91  HIS91       0.1752
    112  C        -41.0340   63.6310   11.3080 C.2    91  HIS91       0.2596
    113  O        -40.4760   62.9890   10.4240 O.2    91  HIS91      -0.2718
    114  CB       -39.5750   63.7960   13.3670 C.3    91  HIS91       0.0759
    115  CG       -39.6300   65.2630   13.6620 C.ar   91  HIS91       0.0818
    116  ND1      -39.7560   66.2180   12.6780 N.ar   91  HIS91      -0.2268
    117  CD2      -39.5470   65.9410   14.8310 C.ar   91  HIS91       0.1154
    118  CE1      -39.7660   67.4200   13.2230 C.ar   91  HIS91       0.1986
    119  NE2      -39.6370   67.2800   14.5300 N.ar   91  HIS91      -0.2212
    120  N        -41.7870   64.6940   11.0360 N.am   92  GLU92      -0.1965
    121  CA       -42.0480   65.1010    9.6460 C.3    92  GLU92       0.1733
    122  C        -40.7850   65.4350    8.8450 C.2    92  GLU92       0.2616
    123  O        -40.7540   65.2770    7.6300 O.2    92  GLU92      -0.2715
    124  CB       -43.0580   66.2540    9.5760 C.3    92  GLU92       0.0429
    125  CG       -42.6200   67.5760   10.1790 C.3    92  GLU92       0.1163
    126  CD       -43.7570   68.5960   10.2080 C.2    92  GLU92       0.3649
    127  OE1      -44.1160   69.1350    9.1380 O.co2  92  GLU92      -0.2457
    128  OE2      -44.2990   68.8570   11.3040 O.co2  92  GLU92      -0.2457
    129  N        -39.7450   65.8990    9.5340 N.am   93  VAL93      -0.1977
    130  CA       -38.4850   66.2710    8.9020 C.3    93  VAL93       0.1596
    131  C        -37.7900   65.0520    8.3040 C.2    93  VAL93       0.2287
    132  O        -37.0620   65.1870    7.3340 O.2    93  VAL93      -0.2864
    133  CB       -37.5400   67.0080    9.8870 C.3    93  VAL93       0.0276
    134  CG1      -36.8740   66.0380   10.8580 C.3    93  VAL93       0.0022
    135  CG2      -36.5000   67.8190    9.1190 C.3    93  VAL93       0.0022
    136  N        -39.5350   64.5260    5.0320 N.3    96  MET96      -0.1245
    137  CA       -39.0250   65.5560    4.1370 C.3    96  MET96       0.1570
    138  C        -37.6350   65.2230    3.6020 C.2    96  MET96       0.2261
    139  O        -37.3570   65.4310    2.4280 O.2    96  MET96      -0.2867
    140  CB       -38.9880   66.8860    4.8680 C.3    96  MET96       0.0387
    141  CG       -40.3790   67.4050    5.1790 C.3    96  MET96       0.0595
    142  SD       -40.3620   68.7510    6.3720 S.3    96  MET96      -0.1393
    143  CE       -39.8260   70.1280    5.3880 C.3    96  MET96       0.0692
@<TRIPOS>BOND
     1   139   138    2
     2     1     2    1
     3     2     5    1
     4     2     3    1
     5   138   137    1
     6     5     6    1
     7    25    24    2
     8    26    27    1
     9    26    23    1
    10    29    27   ar
    11    29    31   ar
    12    24    23    1
    13   137   140    1
    14   137   136    1
    15     7     6   ar
    16     7     9   ar
    17    41    40    1
    18    27    28   ar
    19     6     8   ar
    20    31    32   ar
    21     3     4    2
    22     3    15   am
    23    23    22    1
    24   140   141    1
    25    22    17   am
    26   141   142    1
    27    21    15    1
    28    21    20    1
    29    40    39    1
    30     9    10   ar
    31   143   142    1
    32    15    16    1
    33    33    34    1
    34    28    30   ar
    35    38    39    1
    36    38    37    1
    37    32    30   ar
    38     8    10   ar
    39     8    11   ar
    40    34    37    1
    41    34    35    1
    42    17    16    1
    43    17    18    2
    44    10    12   ar
    45    16    19    1
    46    20    19    1
    47    11    13   ar
    48   132   131    2
    49    35    36    2
    50    35    42   am
    51   123   122    2
    52    12    14   ar
    53    48    42    1
    54    48    47    1
    55    42    43    1
    56    13    14   ar
    57   131   130    1
    58    88    89    1
    59    88    85    1
    60    47    46    1
    61   122   129   am
    62   122   121    1
    63   130   129    1
    64   130   133    1
    65   135   133    1
    66   127   126   ar
    67    43    46    1
    68    43    44    1
    69   124   121    1
    70   124   125    1
    71   121   120    1
    72    84    85    1
    73   133   134    1
    74    85    86    1
    75   125   126    1
    76   126   128   ar
    77    44    45    2
    78    44    49   am
    79   113   112    2
    80    86    87    2
    81    49    50    1
    82   120   112   am
    83   112   111    1
    84    55    53    1
    85    50    53    1
    86    50    51    1
    87    83    82    1
    88   109   107   am
    89    53    54    1
    90   116   118   ar
    91   116   115   ar
    92   111   110    1
    93   111   114    1
    94    51    52    2
    95    51    56   am
    96   118   119   ar
    97   114   115    1
    98    82    81   ar
    99    82    80   ar
   100   107   106    1
   101   107   108    2
   102    56    57    1
   103   106   103    1
   104   115   117   ar
   105    81    79   ar
   106    80    78   ar
   107    90    91    1
   108    60    57    1
   109    60    61    1
   110    57    58    1
   111   119   117   ar
   112   102   103    1
   113   102    92   am
   114   105   104    2
   115   103   104    1
   116    94    91    1
   117    94    95    1
   118    91    92    1
   119    79    77   ar
   120    61    63   ar
   121    61    62   ar
   122    78    77   ar
   123    92    93    2
   124    58    59    2
   125    97    95   ar
   126    97    99   ar
   127    95    96   ar
   128    77    76    1
   129    70    69    1
   130    99   100   ar
   131    71    69    1
   132    96    98   ar
   133    69    68    1
   134    76    73    1
   135    75    74    2
   136   100    98   ar
   137   100   101    1
   138    74    73    1
   139    68    65    1
   140    73    72    1
   141    65    64    1
   142    65    66    1
   143    67    66    2
