@<TRIPOS>MOLECULE
tmp/6ffeA01.pdb
 132 130 0 0 0
SMALL
GASTEIGER

@<TRIPOS>ATOM
      1  N         31.3300   16.0000    9.2710 N.3    28  TRP28      -0.1228
      2  CA        31.5820   17.3750    8.8160 C.3    28  TRP28       0.1722
      3  C         32.9430   17.6020    8.1290 C.2    28  TRP28       0.2437
      4  O         33.0120   18.3740    7.1710 O.2    28  TRP28      -0.2733
      5  CB        31.3460   18.4090    9.9390 C.3    28  TRP28       0.0563
      6  CG        32.3080   18.3410   11.0940 C.ar   28  TRP28       0.0003
      7  CD1       32.1080   17.7140   12.2870 C.ar   28  TRP28       0.0946
      8  CD2       33.6140   18.9320   11.1670 C.ar   28  TRP28       0.0152
      9  NE1       33.2030   17.8710   13.0960 N.ar   28  TRP28      -0.2442
     10  CE2       34.1460   18.6090   12.4310 C.ar   28  TRP28       0.0810
     11  CE3       34.3860   19.6950   10.2840 C.ar   28  TRP28       0.0012
     12  CZ2       35.4150   19.0250   12.8380 C.ar   28  TRP28       0.0191
     13  CZ3       35.6470   20.1070   10.6870 C.ar   28  TRP28       0.0001
     14  CH2       36.1490   19.7690   11.9530 C.ar   28  TRP28       0.0015
     15  N         34.0200   16.9150    8.5760 N.am   29  PRO29      -0.2718
     16  CA        35.2820   17.1520    7.8620 C.3    29  PRO29       0.1535
     17  C         35.2460   16.7430    6.3860 C.2    29  PRO29       0.2598
     18  O         36.0760   17.1980    5.6110 O.2    29  PRO29      -0.2715
     19  CB        36.2980   16.2950    8.6340 C.3    29  PRO29       0.0310
     20  CG        35.6770   16.0800    9.9740 C.3    29  PRO29       0.0237
     21  CD        34.2080   15.9750    9.6980 C.3    29  PRO29       0.0939
     22  N         34.2780   15.9100    6.0100 N.am   30  PHE30      -0.1974
     23  CA        34.1820   15.3700    4.6570 C.3    30  PHE30       0.1639
     24  C         33.1630   16.0990    3.7840 C.2    30  PHE30       0.2290
     25  O         32.9360   15.7060    2.6410 O.2    30  PHE30      -0.2864
     26  CB        33.8730   13.8730    4.7560 C.3    30  PHE30       0.0560
     27  CG        34.8000   13.1600    5.6910 C.ar   30  PHE30      -0.0200
     28  CD1       36.0830   12.8200    5.2820 C.ar   30  PHE30      -0.0042
     29  CD2       34.4260   12.9060    7.0010 C.ar   30  PHE30      -0.0042
     30  CE1       36.9590   12.2050    6.1540 C.ar   30  PHE30      -0.0003
     31  CE2       35.2970   12.2940    7.8810 C.ar   30  PHE30      -0.0003
     32  CZ        36.5660   11.9410    7.4570 C.ar   30  PHE30      -0.0000
     33  N         33.3010   19.2120    2.4670 N.3    32  LYS32      -0.1231
     34  CA        33.8660   20.0490    1.4080 C.3    32  LYS32       0.1678
     35  C         35.3060   19.6550    1.1020 C.2    32  LYS32       0.2434
     36  O         35.9550   19.0190    1.9290 O.2    32  LYS32      -0.2733
     37  CB        33.8150   21.5250    1.8240 C.3    32  LYS32       0.0284
     38  CG        32.4130   22.1310    1.8380 C.3    32  LYS32       0.0035
     39  CD        31.7980   22.1370    0.4410 C.3    32  LYS32       0.0206
     40  CE        30.5270   22.9710    0.3260 C.3    32  LYS32       0.1093
     41  NZ        29.6350   22.9090    1.5160 N.3    32  LYS32      -0.1314
     42  N         35.8180   20.0450   -0.0820 N.am   33  PRO33      -0.2718
     43  CA        37.2160   19.7440   -0.3960 C.3    33  PRO33       0.1535
     44  C         38.1590   20.2590    0.6780 C.2    33  PRO33       0.2598
     45  O         37.9230   21.3300    1.2520 O.2    33  PRO33      -0.2715
     46  CB        37.4630   20.4970   -1.7100 C.3    33  PRO33       0.0310
     47  CG        36.1220   20.6990   -2.3070 C.3    33  PRO33       0.0237
     48  CD        35.1620   20.8080   -1.1600 C.3    33  PRO33       0.0939
     49  N         39.2180   19.5010    0.9490 N.am   34  VAL34      -0.1978
     50  CA        40.2650   19.9500    1.8550 C.3    34  VAL34       0.1596
     51  C         40.8750   21.2300    1.2800 C.2    34  VAL34       0.2287
     52  O         41.3160   21.2470    0.1320 O.2    34  VAL34      -0.2864
     53  CB        41.3570   18.8730    2.0460 C.3    34  VAL34       0.0276
     54  CG1       42.5520   19.4210    2.8210 C.3    34  VAL34       0.0022
     55  CG2       40.7860   17.6600    2.7590 C.3    34  VAL34       0.0022
     56  N         44.3810   25.5380    5.7820 N.3    39  LEU39      -0.1245
     57  CA        44.7390   24.7320    6.9510 C.3    39  LEU39       0.1561
     58  C         46.2530   24.6600    7.2040 C.2    39  LEU39       0.2260
     59  O         46.6790   24.0990    8.2080 O.2    39  LEU39      -0.2867
     60  CB        44.1530   23.3180    6.8180 C.3    39  LEU39       0.0270
     61  CG        42.6200   23.2340    6.8360 C.3    39  LEU39       0.0019
     62  CD1       42.1470   21.8330    6.4730 C.3    39  LEU39       0.0001
     63  CD2       42.0620   23.6480    8.1880 C.3    39  LEU39       0.0001
     64  N         48.3290   23.0560    5.2550 N.3    41  LEU41      -0.1245
     65  CA        48.7210   21.6990    4.8600 C.3    41  LEU41       0.1561
     66  C         49.4340   21.7100    3.5100 C.2    41  LEU41       0.2260
     67  O         48.9100   21.2410    2.5010 O.2    41  LEU41      -0.2867
     68  CB        47.4860   20.8000    4.8030 C.3    41  LEU41       0.0270
     69  CG        46.6040   20.7930    6.0490 C.3    41  LEU41       0.0019
     70  CD1       45.2810   20.1230    5.7180 C.3    41  LEU41       0.0001
     71  CD2       47.2890   20.1150    7.2280 C.3    41  LEU41       0.0001
     72  N         49.7070   18.4840    1.3270 N.3    44  TYR44      -0.1241
     73  CA        48.4970   17.6800    1.1060 C.3    44  TYR44       0.1605
     74  C         48.3860   17.1860   -0.3360 C.2    44  TYR44       0.2264
     75  O         48.1770   15.9920   -0.5810 O.2    44  TYR44      -0.2867
     76  CB        47.2220   18.4470    1.5040 C.3    44  TYR44       0.0534
     77  CG        46.0020   17.5550    1.4900 C.ar   44  TYR44      -0.0201
     78  CD1       45.7470   16.6840    2.5420 C.ar   44  TYR44      -0.0009
     79  CD2       45.1350   17.5420    0.3980 C.ar   44  TYR44      -0.0009
     80  CE1       44.6430   15.8430    2.5270 C.ar   44  TYR44       0.0417
     81  CE2       44.0290   16.7060    0.3710 C.ar   44  TYR44       0.0417
     82  CZ        43.7890   15.8560    1.4350 C.ar   44  TYR44       0.1957
     83  OH        42.7020   15.0120    1.4120 O.3    44  TYR44      -0.2866
     84  N         41.9800   10.1930    3.5970 N.3    83  CYS83      -0.1235
     85  CA        42.0730   10.5270    5.0130 C.3    83  CYS83       0.1677
     86  C         43.0590    9.5960    5.7260 C.2    83  CYS83       0.2270
     87  O         43.9250   10.0540    6.4760 O.2    83  CYS83      -0.2867
     88  CB        40.6930   10.4440    5.6640 C.3    83  CYS83       0.0956
     89  SG        40.6330   11.0290    7.3660 S.3    83  CYS83      -0.0801
     90  N         46.8200   10.3970    4.4450 N.3    86  TYR86      -0.1227
     91  CA        47.4620   11.6520    4.8270 C.3    86  TYR86       0.1736
     92  C         47.6760   11.7730    6.3360 C.2    86  TYR86       0.2595
     93  O         48.7420   12.2110    6.7870 O.2    86  TYR86      -0.2718
     94  CB        46.6530   12.8540    4.3220 C.3    86  TYR86       0.0548
     95  CG        47.3160   14.1810    4.6480 C.ar   86  TYR86      -0.0200
     96  CD1       48.4370   14.6150    3.9440 C.ar   86  TYR86      -0.0009
     97  CD2       46.8430   14.9810    5.6830 C.ar   86  TYR86      -0.0009
     98  CE1       49.0530   15.8220    4.2530 C.ar   86  TYR86       0.0417
     99  CE2       47.4500   16.1850    5.9970 C.ar   86  TYR86       0.0417
    100  CZ        48.5560   16.5980    5.2840 C.ar   86  TYR86       0.1957
    101  OH        49.1470   17.7930    5.6140 O.3    86  TYR86      -0.2866
    102  N         46.6600   11.3940    7.1090 N.am   87  ASN87      -0.1974
    103  CA        46.6590   11.6150    8.5580 C.3    87  ASN87       0.1688
    104  C         47.2700   10.4520    9.3320 C.2    87  ASN87       0.2292
    105  O         47.0350    9.2950    8.9820 O.2    87  ASN87      -0.2864
    106  CB        45.2280   11.8350    9.0390 C.3    87  ASN87       0.1181
    107  CG        44.5850   13.0510    8.4070 C.2    87  ASN87       0.2629
    108  OD1       44.8600   14.1770    8.8080 O.2    87  ASN87      -0.2716
    109  ND2       43.7270   12.8330    7.4150 N.am   87  ASN87      -0.0877
    110  N         42.1260   12.4990   15.3500 N.3    92  ASP92      -0.1225
    111  CA        40.6690   12.4930   15.5250 C.3    92  ASP92       0.1805
    112  C         39.9110   12.2960   14.2100 C.2    92  ASP92       0.2597
    113  O         38.9140   11.5740   14.1650 O.2    92  ASP92      -0.2718
    114  CB        40.2050   13.7970   16.1860 C.3    92  ASP92       0.1424
    115  CG        40.7120   13.9500   17.6140 C.2    92  ASP92       0.3668
    116  OD1       40.9290   12.9260   18.3000 O.co2  92  ASP92      -0.2456
    117  OD2       40.8880   15.1050   18.0500 O.co2  92  ASP92      -0.2456
    118  N         40.3860   12.9320   13.1440 N.am   93  VAL93      -0.1980
    119  CA        39.7170   12.8460   11.8430 C.3    93  VAL93       0.1595
    120  C         39.6460   11.4070   11.3110 C.2    93  VAL93       0.2287
    121  O         38.6920   11.0390   10.6310 O.2    93  VAL93      -0.2864
    122  CB        40.3770   13.7690   10.7960 C.3    93  VAL93       0.0276
    123  CG1       41.7250   13.2210   10.3440 C.3    93  VAL93       0.0022
    124  CG2       39.4510   13.9600    9.6020 C.3    93  VAL93       0.0022
    125  N         36.8260    9.6640   12.9550 N.3    96  MET96      -0.1245
    126  CA        35.5800   10.1370   12.3540 C.3    96  MET96       0.1570
    127  C         35.3550    9.4950   10.9900 C.2    96  MET96       0.2261
    128  O         34.2290    9.1140   10.6570 O.2    96  MET96      -0.2867
    129  CB        35.6050   11.6610   12.2320 C.3    96  MET96       0.0387
    130  CG        35.7180   12.3640   13.5730 C.3    96  MET96       0.0595
    131  SD        36.3240   14.0500   13.4560 S.3    96  MET96      -0.1393
    132  CE        34.8510   14.9040   12.9280 C.3    96  MET96       0.0692
@<TRIPOS>BOND
     1    47    46    1
     2    47    48    1
     3    46    43    1
     4    48    42    1
     5    75    74    2
     6    43    42    1
     7    43    44    1
     8    74    73    1
     9    42    35   am
    10    52    51    2
    11    40    39    1
    12    40    41    1
    13    81    79   ar
    14    81    82   ar
    15    79    77   ar
    16    39    38    1
    17    44    49   am
    18    44    45    2
    19    49    50    1
    20    35    34    1
    21    35    36    2
    22    73    72    1
    23    73    76    1
    24    51    50    1
    25    34    37    1
    26    34    33    1
    27    83    82    1
    28    82    80   ar
    29    77    76    1
    30    77    78   ar
    31    37    38    1
    32    50    53    1
    33    53    55    1
    34    53    54    1
    35    67    66    2
    36    80    78   ar
    37    25    24    2
    38    66    65    1
    39    84    85    1
    40    24    23    1
    41    96    98   ar
    42    96    95   ar
    43    98   100   ar
    44    94    95    1
    45    94    91    1
    46    90    91    1
    47    95    97   ar
    48    23    26    1
    49    23    22    1
    50    26    27    1
    51    68    65    1
    52    68    69    1
    53    91    92    1
    54    65    64    1
    55    85    88    1
    56    85    86    1
    57    28    27   ar
    58    28    30   ar
    59   100   101    1
    60   100    99   ar
    61    18    17    2
    62    88    89    1
    63    97    99   ar
    64    27    29   ar
    65    70    69    1
    66    86    87    2
    67    56    57    1
    68    22    17   am
    69    69    71    1
    70    30    32   ar
    71    92    93    2
    72    92   102   am
    73    17    16    1
    74    62    61    1
    75    60    61    1
    76    60    57    1
    77    61    63    1
    78    57    58    1
    79    29    31   ar
    80   102   103    1
    81     4     3    2
    82    58    59    2
    83   109   107   am
    84    32    31   ar
    85    16    15    1
    86    16    19    1
    87     3    15   am
    88     3     2    1
    89   107   108    2
    90   107   106    1
    91   103   106    1
    92   103   104    1
    93    15    21    1
    94    19    20    1
    95     2     1    1
    96     2     5    1
    97   105   104    2
    98   124   122    1
    99    21    20    1
   100     5     6    1
   101    11    13   ar
   102    11     8   ar
   103   123   122    1
   104   121   120    2
   105   128   127    2
   106    13    14   ar
   107   122   119    1
   108   127   126    1
   109     6     8   ar
   110     6     7   ar
   111     8    10   ar
   112   120   119    1
   113   119   118    1
   114    14    12   ar
   115   129   126    1
   116   129   130    1
   117     7     9   ar
   118   126   125    1
   119    10    12   ar
   120    10     9   ar
   121   132   131    1
   122   118   112   am
   123   131   130    1
   124   113   112    2
   125   112   111    1
   126   110   111    1
   127   111   114    1
   128   114   115    1
   129   115   117   ar
   130   115   116   ar
