@<TRIPOS>MOLECULE
tmp/6fffA01.pdb
 135 132 0 0 0
SMALL
GASTEIGER

@<TRIPOS>ATOM
      1  N         31.7240   16.0200    9.3710 N.3    28  TRP28      -0.1228
      2  CA        32.0550   17.3890    8.9620 C.3    28  TRP28       0.1722
      3  C         33.3990   17.5850    8.2890 C.2    28  TRP28       0.2437
      4  O         33.4970   18.4100    7.3830 O.2    28  TRP28      -0.2733
      5  CB        31.8570   18.3810   10.1140 C.3    28  TRP28       0.0563
      6  CG        32.8270   18.2450   11.2630 C.ar   28  TRP28       0.0003
      7  CD1       32.6260   17.5880   12.4760 C.ar   28  TRP28       0.0946
      8  CD2       34.1880   18.7910   11.3510 C.ar   28  TRP28       0.0152
      9  NE1       33.7340   17.6840   13.2760 N.ar   28  TRP28      -0.2442
     10  CE2       34.7070   18.3890   12.6610 C.ar   28  TRP28       0.0810
     11  CE3       34.9990   19.5390   10.5080 C.ar   28  TRP28       0.0012
     12  CZ2       35.9790   18.7370   13.0840 C.ar   28  TRP28       0.0191
     13  CZ3       36.2820   19.8800   10.9490 C.ar   28  TRP28       0.0001
     14  CH2       36.7570   19.4890   12.2050 C.ar   28  TRP28       0.0015
     15  N         34.4490   16.8290    8.6840 N.am   29  PRO29      -0.2718
     16  CA        35.7150   17.0380    7.9590 C.3    29  PRO29       0.1535
     17  C         35.6680   16.6370    6.4760 C.2    29  PRO29       0.2598
     18  O         36.5400   17.0360    5.7060 O.2    29  PRO29      -0.2715
     19  CB        36.7160   16.1540    8.7210 C.3    29  PRO29       0.0310
     20  CG        36.0660   15.8550   10.0350 C.3    29  PRO29       0.0237
     21  CD        34.5980   15.8070    9.7360 C.3    29  PRO29       0.0939
     22  N         34.6470   15.8770    6.0860 N.am   30  PHE30      -0.1974
     23  CA        34.5410   15.3250    4.7380 C.3    30  PHE30       0.1639
     24  C         33.5160   16.0450    3.8600 C.2    30  PHE30       0.2290
     25  O         33.2590   15.6160    2.7330 O.2    30  PHE30      -0.2864
     26  CB        34.2020   13.8400    4.8560 C.3    30  PHE30       0.0560
     27  CG        35.1100   13.1140    5.8010 C.ar   30  PHE30      -0.0200
     28  CD1       36.3950   12.7670    5.4080 C.ar   30  PHE30      -0.0042
     29  CD2       34.7110   12.8360    7.0980 C.ar   30  PHE30      -0.0042
     30  CE1       37.2510   12.1250    6.2830 C.ar   30  PHE30      -0.0003
     31  CE2       35.5640   12.1980    7.9780 C.ar   30  PHE30      -0.0003
     32  CZ        36.8370   11.8440    7.5730 C.ar   30  PHE30      -0.0000
     33  N         33.6110   19.1820    2.5200 N.3    32  LYS32      -0.1245
     34  CA        34.1730   20.0020    1.4480 C.3    32  LYS32       0.1561
     35  C         35.6080   19.5860    1.1420 C.2    32  LYS32       0.2260
     36  O         36.2490   18.9210    1.9610 O.2    32  LYS32      -0.2867
     37  CB        34.1190   21.4840    1.8470 C.3    32  LYS32       0.0271
     38  CG        32.7100   22.0720    1.9250 C.3    32  LYS32       0.0035
     39  CD        31.9810   21.9840    0.5900 C.3    32  LYS32       0.0206
     40  CE        30.8330   22.9750    0.4440 C.3    32  LYS32       0.1093
     41  NZ        29.9760   23.1200    1.6540 N.3    32  LYS32      -0.1314
     42  N         39.5010   19.3580    1.0400 N.3    34  VAL34      -0.1245
     43  CA        40.5480   19.7980    1.9590 C.3    34  VAL34       0.1561
     44  C         41.1730   21.0690    1.3890 C.2    34  VAL34       0.2260
     45  O         41.6230   21.0820    0.2440 O.2    34  VAL34      -0.2867
     46  CB        41.6390   18.7220    2.1530 C.3    34  VAL34       0.0252
     47  CG1       42.7960   19.2690    2.9820 C.3    34  VAL34       0.0019
     48  CG2       41.0560   17.4800    2.8150 C.3    34  VAL34       0.0019
     49  N         44.6850   25.2570    5.8780 N.3    39  LEU39      -0.1245
     50  CA        45.0360   24.4370    7.0440 C.3    39  LEU39       0.1561
     51  C         46.5500   24.3140    7.2580 C.2    39  LEU39       0.2260
     52  O         46.9910   23.6960    8.2270 O.2    39  LEU39      -0.2867
     53  CB        44.4080   23.0470    6.9190 C.3    39  LEU39       0.0270
     54  CG        42.8780   23.0200    6.8600 C.3    39  LEU39       0.0019
     55  CD1       42.3850   21.6280    6.4910 C.3    39  LEU39       0.0001
     56  CD2       42.2650   23.4790    8.1760 C.3    39  LEU39       0.0001
     57  N         48.6540   22.7300    5.3260 N.3    41  LEU41      -0.1245
     58  CA        49.0590   21.3760    4.9530 C.3    41  LEU41       0.1561
     59  C         49.7540   21.4180    3.5990 C.2    41  LEU41       0.2260
     60  O         49.2160   20.9600    2.5890 O.2    41  LEU41      -0.2867
     61  CB        47.8370   20.4570    4.8980 C.3    41  LEU41       0.0270
     62  CG        46.9580   20.4730    6.1460 C.3    41  LEU41       0.0019
     63  CD1       45.6550   19.7410    5.8660 C.3    41  LEU41       0.0001
     64  CD2       47.6970   19.8810    7.3400 C.3    41  LEU41       0.0001
     65  N         50.1050   18.3400    1.3660 N.3    44  TYR44      -0.1241
     66  CA        48.9040   17.5360    1.1340 C.3    44  TYR44       0.1605
     67  C         48.7840   17.0390   -0.3090 C.2    44  TYR44       0.2264
     68  O         48.4920   15.8630   -0.5440 O.2    44  TYR44      -0.2867
     69  CB        47.6360   18.3010    1.5230 C.3    44  TYR44       0.0534
     70  CG        46.4140   17.4160    1.4850 C.ar   44  TYR44      -0.0201
     71  CD1       46.1330   16.5440    2.5320 C.ar   44  TYR44      -0.0009
     72  CD2       45.5570   17.4250    0.3870 C.ar   44  TYR44      -0.0009
     73  CE1       45.0250   15.7120    2.4920 C.ar   44  TYR44       0.0417
     74  CE2       44.4440   16.6040    0.3420 C.ar   44  TYR44       0.0417
     75  CZ        44.1810   15.7510    1.3950 C.ar   44  TYR44       0.1957
     76  OH        43.0770   14.9290    1.3480 O.3    44  TYR44      -0.2866
     77  N         42.2490   10.0880    3.6900 N.3    83  CYS83      -0.1235
     78  CA        42.3360   10.3970    5.1100 C.3    83  CYS83       0.1677
     79  C         43.2950    9.4390    5.8260 C.2    83  CYS83       0.2270
     80  O         44.1370    9.8770    6.6140 O.2    83  CYS83      -0.2867
     81  CB        40.9430   10.3430    5.7400 C.3    83  CYS83       0.0956
     82  SG        40.8630   10.8800    7.4600 S.3    83  CYS83      -0.0801
     83  N         47.0660   10.1980    4.5850 N.3    86  TYR86      -0.1227
     84  CA        47.7210   11.4490    4.9760 C.3    86  TYR86       0.1736
     85  C         47.9320   11.5860    6.4840 C.2    86  TYR86       0.2595
     86  O         48.9650   12.1010    6.9280 O.2    86  TYR86      -0.2718
     87  CB        46.9360   12.6650    4.4640 C.3    86  TYR86       0.0548
     88  CG        47.6640   13.9510    4.7690 C.ar   86  TYR86      -0.0200
     89  CD1       48.7430   14.3560    3.9930 C.ar   86  TYR86      -0.0009
     90  CD2       47.3100   14.7320    5.8630 C.ar   86  TYR86      -0.0009
     91  CE1       49.4370   15.5200    4.2840 C.ar   86  TYR86       0.0417
     92  CE2       47.9980   15.8940    6.1630 C.ar   86  TYR86       0.0417
     93  CZ        49.0560   16.2850    5.3720 C.ar   86  TYR86       0.1957
     94  OH        49.7320   17.4430    5.6830 O.3    86  TYR86      -0.2866
     95  N         46.9490   11.1390    7.2590 N.am   87  ASN87      -0.1974
     96  CA        46.9280   11.3660    8.7030 C.3    87  ASN87       0.1688
     97  C         47.4820   10.1870    9.4840 C.2    87  ASN87       0.2292
     98  O         47.3090    9.0460    9.0690 O.2    87  ASN87      -0.2864
     99  CB        45.4950   11.6170    9.1610 C.3    87  ASN87       0.1181
    100  CG        44.8940   12.8430    8.5200 C.2    87  ASN87       0.2629
    101  OD1       45.1720   13.9660    8.9340 O.2    87  ASN87      -0.2716
    102  ND2       44.0670   12.6370    7.5020 N.am   87  ASN87      -0.0877
    103  N         45.0640    9.8770   14.8610 N.3    91  HIS91      -0.1226
    104  CA        44.4960   11.2230   14.7420 C.3    91  HIS91       0.1752
    105  C         43.0000   11.1980   14.8990 C.2    91  HIS91       0.2596
    106  O         42.3440   10.2340   14.5120 O.2    91  HIS91      -0.2718
    107  CB        44.8640   11.8320   13.3910 C.3    91  HIS91       0.0759
    108  CG        44.6950   13.3300   13.3300 C.ar   91  HIS91       0.0818
    109  ND1       43.5020   13.9180   13.1410 N.ar   91  HIS91      -0.2268
    110  CD2       45.6260   14.3600   13.4410 C.ar   91  HIS91       0.1154
    111  CE1       43.6530   15.2540   13.1340 C.ar   91  HIS91       0.1986
    112  NE2       44.9550   15.5250   13.3160 N.ar   91  HIS91      -0.2212
    113  N         42.4450   12.2690   15.4650 N.am   92  ASP92      -0.1960
    114  CA        40.9950   12.3860   15.6610 C.3    92  ASP92       0.1840
    115  C         40.2110   12.2030   14.3630 C.2    92  ASP92       0.2621
    116  O         39.1890   11.5240   14.3430 O.2    92  ASP92      -0.2715
    117  CB        40.6400   13.7480   16.2670 C.3    92  ASP92       0.1450
    118  CG        41.0610   13.8760   17.7210 C.2    92  ASP92       0.3671
    119  OD1       41.1580   12.8410   18.4170 O.co2  92  ASP92      -0.2456
    120  OD2       41.2870   15.0210   18.1670 O.co2  92  ASP92      -0.2456
    121  N         40.6920   12.8200   13.2870 N.am   93  VAL93      -0.1977
    122  CA        40.0120   12.7590   11.9920 C.3    93  VAL93       0.1596
    123  C         39.9410   11.3350   11.4360 C.2    93  VAL93       0.2287
    124  O         39.0050   11.0010   10.7160 O.2    93  VAL93      -0.2864
    125  CB        40.6760   13.6880   10.9510 C.3    93  VAL93       0.0276
    126  CG1       41.9810   13.0920   10.4410 C.3    93  VAL93       0.0022
    127  CG2       39.7180   13.9520    9.7960 C.3    93  VAL93       0.0022
    128  N         37.0740    9.6310   13.0880 N.3    96  MET96      -0.1245
    129  CA        35.8570   10.1220   12.4560 C.3    96  MET96       0.1570
    130  C         35.6310    9.4280   11.1130 C.2    96  MET96       0.2261
    131  O         34.5130    9.0160   10.8060 O.2    96  MET96      -0.2867
    132  CB        35.9290   11.6360   12.2710 C.3    96  MET96       0.0387
    133  CG        35.9210   12.4160   13.5740 C.3    96  MET96       0.0595
    134  SD        36.0530   14.1910   13.2900 S.3    96  MET96      -0.1393
    135  CE        36.0420   14.8210   14.9630 C.3    96  MET96       0.0692
@<TRIPOS>BOND
     1    68    67    2
     2    67    66    1
     3    45    44    2
     4    74    72   ar
     5    74    75   ar
     6    72    70   ar
     7    40    39    1
     8    40    41    1
     9    39    38    1
    10    42    43    1
    11    66    65    1
    12    66    69    1
    13    35    34    1
    14    35    36    2
    15    76    75    1
    16    44    43    1
    17    75    73   ar
    18    34    37    1
    19    34    33    1
    20    70    69    1
    21    70    71   ar
    22    37    38    1
    23    43    46    1
    24    46    48    1
    25    46    47    1
    26    73    71   ar
    27    60    59    2
    28    25    24    2
    29    59    58    1
    30    77    78    1
    31    24    23    1
    32    89    91   ar
    33    89    88   ar
    34    91    93   ar
    35    87    88    1
    36    87    84    1
    37    83    84    1
    38    23    26    1
    39    23    22    1
    40    88    90   ar
    41    26    27    1
    42    61    58    1
    43    61    62    1
    44    58    57    1
    45    84    85    1
    46    78    81    1
    47    78    79    1
    48    93    94    1
    49    93    92   ar
    50    28    27   ar
    51    28    30   ar
    52    18    17    2
    53    81    82    1
    54    27    29   ar
    55    79    80    2
    56    90    92   ar
    57    63    62    1
    58    49    50    1
    59    22    17   am
    60    62    64    1
    61    30    32   ar
    62    17    16    1
    63    85    86    2
    64    85    95   am
    65    55    54    1
    66    54    53    1
    67    54    56    1
    68    53    50    1
    69    50    51    1
    70    29    31   ar
    71    51    52    2
    72    95    96    1
    73     4     3    2
    74   102   100   am
    75    32    31   ar
    76    16    15    1
    77    16    19    1
    78     3    15   am
    79     3     2    1
    80   100   101    2
    81   100    99    1
    82    15    21    1
    83    96    99    1
    84    96    97    1
    85    19    20    1
    86     2     1    1
    87     2     5    1
    88    98    97    2
    89    21    20    1
    90   127   125    1
    91     5     6    1
    92   126   125    1
    93    11    13   ar
    94    11     8   ar
    95   124   123    2
    96   131   130    2
    97    13    14   ar
    98   125   122    1
    99   130   129    1
   100     6     8   ar
   101     6     7   ar
   102     8    10   ar
   103   123   122    1
   104   122   121    1
   105    14    12   ar
   106   132   129    1
   107   132   133    1
   108   129   128    1
   109     7     9   ar
   110    10    12   ar
   111    10     9   ar
   112   111   109   ar
   113   111   112   ar
   114   109   108   ar
   115   121   115   am
   116   134   133    1
   117   134   135    1
   118   112   110   ar
   119   108   107    1
   120   108   110   ar
   121   107   104    1
   122   116   115    2
   123   115   114    1
   124   106   105    2
   125   104   103    1
   126   104   105    1
   127   105   113   am
   128   113   114    1
   129   114   117    1
   130   117   118    1
   131   118   120   ar
   132   118   119   ar
