@<TRIPOS>MOLECULE
tmp/6ffgA00.pdb
 150 149 0 0 0
SMALL
GASTEIGER

@<TRIPOS>ATOM
      1  N         31.4530   15.9970    9.5160 N.3    28  TRP28      -0.1228
      2  CA        31.7360   17.3780    9.0870 C.3    28  TRP28       0.1722
      3  C         33.0810   17.6000    8.3770 C.2    28  TRP28       0.2437
      4  O         33.1410   18.4110    7.4590 O.2    28  TRP28      -0.2733
      5  CB        31.5410   18.3980   10.2300 C.3    28  TRP28       0.0563
      6  CG        32.5020   18.2790   11.3760 C.ar   28  TRP28       0.0003
      7  CD1       32.2720   17.6640   12.5720 C.ar   28  TRP28       0.0946
      8  CD2       33.8420   18.7910   11.4430 C.ar   28  TRP28       0.0152
      9  NE1       33.3760   17.7580   13.3750 N.ar   28  TRP28      -0.2442
     10  CE2       34.3580   18.4380   12.7070 C.ar   28  TRP28       0.0810
     11  CE3       34.6580   19.5070   10.5590 C.ar   28  TRP28       0.0012
     12  CZ2       35.6490   18.7780   13.1120 C.ar   28  TRP28       0.0191
     13  CZ3       35.9480   19.8370   10.9660 C.ar   28  TRP28       0.0001
     14  CH2       36.4250   19.4760   12.2290 C.ar   28  TRP28       0.0015
     15  N         34.1570   16.8830    8.7770 N.am   29  PRO29      -0.2718
     16  CA        35.4170   17.1330    8.0580 C.3    29  PRO29       0.1535
     17  C         35.3660   16.7610    6.5770 C.2    29  PRO29       0.2598
     18  O         36.1950   17.2290    5.8060 O.2    29  PRO29      -0.2715
     19  CB        36.4290   16.2310    8.7840 C.3    29  PRO29       0.0310
     20  CG        35.8260   15.9810   10.1190 C.3    29  PRO29       0.0237
     21  CD        34.3480   15.8930    9.8510 C.3    29  PRO29       0.0939
     22  N         34.3870   15.9420    6.2020 N.am   30  PHE30      -0.1974
     23  CA        34.2840   15.3900    4.8560 C.3    30  PHE30       0.1639
     24  C         33.2730   16.1140    3.9730 C.2    30  PHE30       0.2290
     25  O         33.0600   15.7120    2.8270 O.2    30  PHE30      -0.2864
     26  CB        33.9370   13.9040    4.9700 C.3    30  PHE30       0.0560
     27  CG        34.8690   13.1640    5.8820 C.ar   30  PHE30      -0.0200
     28  CD1       36.1310   12.7970    5.4420 C.ar   30  PHE30      -0.0042
     29  CD2       34.5180   12.9020    7.1960 C.ar   30  PHE30      -0.0042
     30  CE1       37.0130   12.1490    6.2840 C.ar   30  PHE30      -0.0003
     31  CE2       35.3950   12.2550    8.0470 C.ar   30  PHE30      -0.0003
     32  CZ        36.6470   11.8800    7.5900 C.ar   30  PHE30      -0.0000
     33  N         33.3460   19.2050    2.6120 N.3    32  LYS32      -0.1231
     34  CA        33.9050   20.0150    1.5360 C.3    32  LYS32       0.1678
     35  C         35.3410   19.5840    1.2460 C.2    32  LYS32       0.2434
     36  O         35.9620   18.9100    2.0670 O.2    32  LYS32      -0.2733
     37  CB        33.8600   21.4970    1.9270 C.3    32  LYS32       0.0284
     38  CG        32.4540   22.0720    2.0850 C.3    32  LYS32       0.0035
     39  CD        31.6850   22.0340    0.7710 C.3    32  LYS32       0.0206
     40  CE        30.4160   22.8790    0.7780 C.3    32  LYS32       0.1093
     41  NZ        29.5250   22.6420    1.9450 N.3    32  LYS32      -0.1314
     42  N         35.8790   19.9720    0.0780 N.am   33  PRO33      -0.2718
     43  CA        37.2770   19.6420   -0.2030 C.3    33  PRO33       0.1535
     44  C         38.2280   20.1680    0.8660 C.2    33  PRO33       0.2598
     45  O         38.0140   21.2580    1.4080 O.2    33  PRO33      -0.2715
     46  CB        37.5530   20.3400   -1.5390 C.3    33  PRO33       0.0310
     47  CG        36.2240   20.5490   -2.1610 C.3    33  PRO33       0.0237
     48  CD        35.2340   20.6800   -1.0450 C.3    33  PRO33       0.0939
     49  N         39.2680   19.4000    1.1640 N.am   34  VAL34      -0.1964
     50  CA        40.3150   19.8670    2.0650 C.3    34  VAL34       0.1727
     51  C         40.9070   21.1480    1.4740 C.2    34  VAL34       0.2616
     52  O         41.3660   21.1460    0.3310 O.2    34  VAL34      -0.2715
     53  CB        41.4260   18.8120    2.2520 C.3    34  VAL34       0.0290
     54  CG1       42.6160   19.4070    2.9980 C.3    34  VAL34       0.0023
     55  CG2       40.8950   17.5880    2.9870 C.3    34  VAL34       0.0023
     56  N         40.8630   22.2410    2.2350 N.am   35  ASP35      -0.1971
     57  CA        41.4800   23.4940    1.8080 C.3    35  ASP35       0.1709
     58  C         42.8840   23.5320    2.3950 C.2    35  ASP35       0.2293
     59  O         43.0960   24.0050    3.5120 O.2    35  ASP35      -0.2864
     60  CB        40.6550   24.7040    2.2530 C.3    35  ASP35       0.1436
     61  CG        41.1660   26.0130    1.6650 C.2    35  ASP35       0.3671
     62  OD1       42.3560   26.0930    1.2890 O.co2  35  ASP35      -0.2456
     63  OD2       40.3720   26.9740    1.5940 O.co2  35  ASP35      -0.2456
     64  N         44.4080   25.4920    5.8560 N.3    39  LEU39      -0.1245
     65  CA        44.8610   24.7140    7.0150 C.3    39  LEU39       0.1561
     66  C         46.3880   24.6080    7.1390 C.2    39  LEU39       0.2260
     67  O         46.8860   23.9670    8.0610 O.2    39  LEU39      -0.2867
     68  CB        44.2410   23.3090    6.9710 C.3    39  LEU39       0.0270
     69  CG        42.7170   23.2590    7.0960 C.3    39  LEU39       0.0019
     70  CD1       42.1970   21.8560    6.8090 C.3    39  LEU39       0.0001
     71  CD2       42.2850   23.7260    8.4770 C.3    39  LEU39       0.0001
     72  N         48.4820   23.1160    5.1000 N.3    41  LEU41      -0.1245
     73  CA        48.8790   21.7570    4.7460 C.3    41  LEU41       0.1561
     74  C         49.5840   21.7670    3.4000 C.2    41  LEU41       0.2260
     75  O         49.0470   21.3220    2.3860 O.2    41  LEU41      -0.2867
     76  CB        47.6480   20.8520    4.6980 C.3    41  LEU41       0.0270
     77  CG        46.7650   20.8980    5.9440 C.3    41  LEU41       0.0019
     78  CD1       45.4700   20.1670    5.6440 C.3    41  LEU41       0.0001
     79  CD2       47.4680   20.3070    7.1550 C.3    41  LEU41       0.0001
     80  N         49.8130   18.5090    1.3240 N.3    44  TYR44      -0.1241
     81  CA        48.6060   17.7100    1.0830 C.3    44  TYR44       0.1605
     82  C         48.4820   17.2250   -0.3650 C.2    44  TYR44       0.2264
     83  O         48.2500   16.0400   -0.6080 O.2    44  TYR44      -0.2867
     84  CB        47.3410   18.4760    1.4800 C.3    44  TYR44       0.0534
     85  CG        46.1250   17.5820    1.5010 C.ar   44  TYR44      -0.0201
     86  CD1       45.8790   16.7390    2.5800 C.ar   44  TYR44      -0.0009
     87  CD2       45.2410   17.5470    0.4230 C.ar   44  TYR44      -0.0009
     88  CE1       44.7750   15.9000    2.5940 C.ar   44  TYR44       0.0417
     89  CE2       44.1390   16.7080    0.4260 C.ar   44  TYR44       0.0417
     90  CZ        43.9060   15.8920    1.5150 C.ar   44  TYR44       0.1957
     91  OH        42.8110   15.0510    1.5190 O.3    44  TYR44      -0.2866
     92  N         42.0490   10.2020    3.7240 N.3    83  CYS83      -0.1235
     93  CA        42.1320   10.5470    5.1370 C.3    83  CYS83       0.1677
     94  C         43.1000    9.6120    5.8720 C.2    83  CYS83       0.2270
     95  O         43.9550   10.0730    6.6320 O.2    83  CYS83      -0.2867
     96  CB        40.7350   10.5040    5.7600 C.3    83  CYS83       0.0956
     97  SG        40.6550   11.0690    7.4660 S.3    83  CYS83      -0.0801
     98  N         46.8750   10.4090    4.5980 N.3    86  TYR86      -0.1227
     99  CA        47.5010   11.6740    4.9830 C.3    86  TYR86       0.1736
    100  C         47.6780   11.8390    6.4940 C.2    86  TYR86       0.2595
    101  O         48.6890   12.3780    6.9440 O.2    86  TYR86      -0.2718
    102  CB        46.7200   12.8750    4.4280 C.3    86  TYR86       0.0548
    103  CG        47.4190   14.1830    4.7240 C.ar   86  TYR86      -0.0200
    104  CD1       48.5360   14.5790    3.9880 C.ar   86  TYR86      -0.0009
    105  CD2       47.0010   14.9980    5.7690 C.ar   86  TYR86      -0.0009
    106  CE1       49.1950   15.7670    4.2690 C.ar   86  TYR86       0.0417
    107  CE2       47.6540   16.1840    6.0560 C.ar   86  TYR86       0.0417
    108  CZ        48.7520   16.5620    5.3090 C.ar   86  TYR86       0.1957
    109  OH        49.3940   17.7390    5.6210 O.3    86  TYR86      -0.2866
    110  N         46.6900   11.3980    7.2690 N.am   87  ASN87      -0.1974
    111  CA        46.6800   11.6330    8.7170 C.3    87  ASN87       0.1688
    112  C         47.2720   10.4600    9.4880 C.2    87  ASN87       0.2292
    113  O         47.0820    9.3110    9.0960 O.2    87  ASN87      -0.2864
    114  CB        45.2490   11.8670    9.2020 C.3    87  ASN87       0.1181
    115  CG        44.6140   13.0820    8.5660 C.2    87  ASN87       0.2629
    116  OD1       44.8740   14.2140    8.9760 O.2    87  ASN87      -0.2716
    117  ND2       43.7750   12.8590    7.5570 N.am   87  ASN87      -0.0877
    118  N         44.9210   10.2860   14.9320 N.3    91  HIS91      -0.1226
    119  CA        44.2950   11.6050   14.8120 C.3    91  HIS91       0.1752
    120  C         42.7750   11.4950   14.9610 C.2    91  HIS91       0.2596
    121  O         42.1710   10.5070   14.5460 O.2    91  HIS91      -0.2718
    122  CB        44.6590   12.2440   13.4620 C.3    91  HIS91       0.0759
    123  CG        44.3760   13.7150   13.3850 C.ar   91  HIS91       0.0818
    124  ND1       43.1100   14.2190   13.1950 N.ar   91  HIS91      -0.2268
    125  CD2       45.1970   14.7900   13.4540 C.ar   91  HIS91       0.1154
    126  CE1       43.1560   15.5370   13.1580 C.ar   91  HIS91       0.1986
    127  NE2       44.4130   15.9110   13.3120 N.ar   91  HIS91      -0.2212
    128  N         42.1630   12.5200   15.5500 N.am   92  ASP92      -0.1960
    129  CA        40.7080   12.5660   15.7380 C.3    92  ASP92       0.1840
    130  C         39.9260   12.3070   14.4460 C.2    92  ASP92       0.2621
    131  O         38.9270   11.5950   14.4460 O.2    92  ASP92      -0.2715
    132  CB        40.2910   13.9330   16.2970 C.3    92  ASP92       0.1450
    133  CG        40.7940   14.1760   17.7130 C.2    92  ASP92       0.3671
    134  OD1       41.3000   13.2310   18.3540 O.co2  92  ASP92      -0.2456
    135  OD2       40.6830   15.3260   18.1840 O.co2  92  ASP92      -0.2456
    136  N         40.3600   12.9360   13.3600 N.am   93  VAL93      -0.1977
    137  CA        39.7130   12.7880   12.0540 C.3    93  VAL93       0.1596
    138  C         39.6760   11.3480   11.5450 C.2    93  VAL93       0.2287
    139  O         38.7470   10.9720   10.8360 O.2    93  VAL93      -0.2864
    140  CB        40.3600   13.6990   10.9840 C.3    93  VAL93       0.0276
    141  CG1       41.6860   13.1330   10.4800 C.3    93  VAL93       0.0022
    142  CG2       39.3980   13.9140    9.8270 C.3    93  VAL93       0.0022
    143  N         36.8460    9.6460   13.1880 N.3    96  MET96      -0.1245
    144  CA        35.6280   10.1240   12.5500 C.3    96  MET96       0.1570
    145  C         35.4200    9.4450   11.1980 C.2    96  MET96       0.2261
    146  O         34.3080    9.0260   10.8840 O.2    96  MET96      -0.2867
    147  CB        35.6760   11.6410   12.3910 C.3    96  MET96       0.0387
    148  CG        35.6560   12.3760   13.7150 C.3    96  MET96       0.0595
    149  SD        36.1590   14.0930   13.5500 S.3    96  MET96      -0.1393
    150  CE        34.6770   14.8880   13.0030 C.3    96  MET96       0.0692
@<TRIPOS>BOND
     1    47    46    1
     2    47    48    1
     3    46    43    1
     4    48    42    1
     5    83    82    2
     6    82    81    1
     7    43    42    1
     8    43    44    1
     9    42    35   am
    10    52    51    2
    11    87    89   ar
    12    87    85   ar
    13    89    90   ar
    14    39    40    1
    15    39    38    1
    16    40    41    1
    17    44    49   am
    18    44    45    2
    19    81    80    1
    20    81    84    1
    21    49    50    1
    22    35    34    1
    23    35    36    2
    24    62    61   ar
    25    51    50    1
    26    51    56   am
    27    84    85    1
    28    85    86   ar
    29    90    91    1
    30    90    88   ar
    31    34    37    1
    32    34    33    1
    33    63    61   ar
    34    61    60    1
    35    57    56    1
    36    57    60    1
    37    57    58    1
    38    37    38    1
    39    50    53    1
    40    53    55    1
    41    53    54    1
    42    75    74    2
    43    58    59    2
    44    86    88   ar
    45    25    24    2
    46    74    73    1
    47    92    93    1
    48    24    23    1
    49   104   106   ar
    50   104   103   ar
    51   106   108   ar
    52   102   103    1
    53   102    99    1
    54    98    99    1
    55    76    73    1
    56    76    77    1
    57   103   105   ar
    58    73    72    1
    59    23    26    1
    60    23    22    1
    61    26    27    1
    62    99   100    1
    63    93    96    1
    64    93    94    1
    65   108   109    1
    66   108   107   ar
    67    28    27   ar
    68    28    30   ar
    69    78    77    1
    70    96    97    1
    71   105   107   ar
    72    18    17    2
    73    64    65    1
    74    94    95    2
    75    27    29   ar
    76    77    79    1
    77    22    17   am
    78    30    32   ar
    79   100   101    2
    80   100   110   am
    81    17    16    1
    82    70    69    1
    83    68    65    1
    84    68    69    1
    85    65    66    1
    86    69    71    1
    87    66    67    2
    88    29    31   ar
    89   110   111    1
    90     4     3    2
    91   117   115   am
    92    32    31   ar
    93    16    15    1
    94    16    19    1
    95     3    15   am
    96     3     2    1
    97   115   116    2
    98   115   114    1
    99   111   114    1
   100   111   112    1
   101    15    21    1
   102    19    20    1
   103     2     1    1
   104     2     5    1
   105   113   112    2
   106   142   140    1
   107    21    20    1
   108     5     6    1
   109   141   140    1
   110    11    13   ar
   111    11     8   ar
   112   139   138    2
   113   146   145    2
   114    13    14   ar
   115   140   137    1
   116   145   144    1
   117     6     8   ar
   118     6     7   ar
   119     8    10   ar
   120   138   137    1
   121   137   136    1
   122    14    12   ar
   123   147   144    1
   124   147   148    1
   125   144   143    1
   126     7     9   ar
   127    10    12   ar
   128    10     9   ar
   129   150   149    1
   130   126   124   ar
   131   126   127   ar
   132   124   123   ar
   133   127   125   ar
   134   136   130   am
   135   123   125   ar
   136   123   122    1
   137   122   119    1
   138   149   148    1
   139   130   131    2
   140   130   129    1
   141   121   120    2
   142   119   118    1
   143   119   120    1
   144   120   128   am
   145   128   129    1
   146   129   132    1
   147   132   133    1
   148   133   135   ar
   149   133   134   ar
