@<TRIPOS>MOLECULE
tmp/6ffhA05.pdb
 155 145 0 0 0
SMALL
GASTEIGER

@<TRIPOS>ATOM
      1  N        -25.1490    7.4690   37.9530 N.3    57  GLY57      -0.1210
      2  CA       -24.7400    8.5200   38.8700 C.3    57  GLY57       0.1956
      3  C        -25.9270    9.2900   39.4140 C.2    57  GLY57       0.2611
      4  O        -26.0280    9.5290   40.6200 O.2    57  GLY57      -0.2717
      5  N        -26.8500    9.6740   38.5280 N.am   58  ILE58      -0.1979
      6  CA       -28.0620   10.3710   38.9520 C.3    58  ILE58       0.1595
      7  C        -28.8650    9.5080   39.9170 C.2    58  ILE58       0.2287
      8  O        -29.4160   10.0050   40.9070 O.2    58  ILE58      -0.2864
      9  CB       -28.8980   10.7800   37.7250 C.3    58  ILE58       0.0276
     10  CG1      -28.0820   11.6790   36.7930 C.3    58  ILE58       0.0022
     11  CG2      -30.1690   11.4900   38.1560 C.3    58  ILE58       0.0022
     12  CD1      -28.8170   12.0720   35.5270 C.3    58  ILE58       0.0001
     13  N        -27.2740    9.6400   43.1040 N.3    61  GLY61      -0.1225
     14  CA       -27.4470   10.9700   43.6630 C.3    61  GLY61       0.1811
     15  C        -28.6980   11.0780   44.5130 C.2    61  GLY61       0.2280
     16  O        -28.6660   11.6070   45.6270 O.2    61  GLY61      -0.2866
     17  N        -21.8230   11.0680   47.9610 N.3    83  ILE83      -0.1245
     18  CA       -21.7250   12.4930   47.6670 C.3    83  ILE83       0.1561
     19  C        -20.4670   12.8060   46.8640 C.2    83  ILE83       0.2260
     20  O        -20.3680   13.8780   46.2560 O.2    83  ILE83      -0.2867
     21  CB       -21.7940   13.2900   48.9870 C.3    83  ILE83       0.0252
     22  CG1      -23.0790   12.9350   49.7390 C.3    83  ILE83       0.0019
     23  CG2      -21.7500   14.7950   48.7440 C.3    83  ILE83       0.0019
     24  CD1      -23.2830   13.7190   51.0180 C.3    83  ILE83       0.0001
     25  N        -21.0970    9.7220   43.0150 N.3    86  SER86      -0.1203
     26  CA       -22.2540    9.8740   42.1350 C.3    86  SER86       0.2005
     27  C        -22.1840   11.1120   41.2430 C.2    86  SER86       0.2460
     28  O        -22.6510   11.0280   40.0940 O.2    86  SER86      -0.2732
     29  CB       -23.5510    9.8550   42.9580 C.3    86  SER86       0.2103
     30  OG       -23.6690   10.9760   43.8130 O.3    86  SER86      -0.2182
     31  N        -21.6350   12.2580   41.6690 N.am   87  PRO87      -0.2728
     32  CA       -21.3920   13.3190   40.6780 C.3    87  PRO87       0.1401
     33  C        -20.2340   12.9950   39.7550 C.2    87  PRO87       0.2269
     34  O        -20.2910   13.3120   38.5600 O.2    87  PRO87      -0.2865
     35  CB       -21.1070   14.5540   41.5430 C.3    87  PRO87       0.0296
     36  CG       -20.5920   14.0040   42.8160 C.3    87  PRO87       0.0237
     37  CD       -21.3370   12.7240   43.0380 C.3    87  PRO87       0.0939
     38  N        -21.3950   10.7840   36.8090 N.3    90  SER90      -0.1202
     39  CA       -22.1340   11.4540   35.7460 C.3    90  SER90       0.2020
     40  C        -21.2420   12.4180   34.9760 C.2    90  SER90       0.2618
     41  O        -21.2910   12.4680   33.7420 O.2    90  SER90      -0.2717
     42  CB       -23.3390   12.1900   36.3290 C.3    90  SER90       0.2103
     43  OG       -24.2420   11.2830   36.9370 O.3    90  SER90      -0.2182
     44  N        -20.4140   13.1830   35.6870 N.am   91  TYR91      -0.1975
     45  CA       -19.6270   14.2270   35.0440 C.3    91  TYR91       0.1639
     46  C        -18.4190   13.6750   34.2990 C.2    91  TYR91       0.2290
     47  O        -18.0570   14.2090   33.2450 O.2    91  TYR91      -0.2864
     48  CB       -19.1870   15.2590   36.0840 C.3    91  TYR91       0.0560
     49  CG       -20.3380   16.0360   36.6860 C.ar   91  TYR91      -0.0198
     50  CD1      -21.4530   16.3640   35.9240 C.ar   91  TYR91      -0.0009
     51  CD2      -20.3120   16.4350   38.0150 C.ar   91  TYR91      -0.0009
     52  CE1      -22.5090   17.0730   36.4700 C.ar   91  TYR91       0.0417
     53  CE2      -21.3630   17.1430   38.5700 C.ar   91  TYR91       0.0417
     54  CZ       -22.4580   17.4590   37.7940 C.ar   91  TYR91       0.1957
     55  OH       -23.5030   18.1630   38.3490 O.3    91  TYR91      -0.2866
     56  N        -15.1100   16.9920   52.5900 N.3   321  VAL321     -0.1245
     57  CA       -16.0820   17.5190   51.6420 C.3   321  VAL321      0.1561
     58  C        -15.3990   18.2300   50.4820 C.2   321  VAL321      0.2260
     59  O        -15.7090   17.9720   49.3190 O.2   321  VAL321     -0.2867
     60  CB       -17.0760   18.4570   52.3640 C.3   321  VAL321      0.0252
     61  CG1      -18.0080   19.1230   51.3610 C.3   321  VAL321      0.0019
     62  CG2      -17.8670   17.6890   53.4100 C.3   321  VAL321      0.0019
     63  N        -15.2280   17.4920   46.4350 N.3   325  LEU325     -0.1245
     64  CA       -15.9810   18.5640   45.7890 C.3   325  LEU325      0.1561
     65  C        -15.1310   19.2790   44.7480 C.2   325  LEU325      0.2260
     66  O        -15.6120   19.6020   43.6550 O.2   325  LEU325     -0.2867
     67  CB       -16.4840   19.5570   46.8380 C.3   325  LEU325      0.0270
     68  CG       -17.4340   20.6710   46.3960 C.3   325  LEU325      0.0019
     69  CD1      -18.8050   20.1040   46.0960 C.3   325  LEU325      0.0001
     70  CD2      -17.5270   21.7580   47.4570 C.3   325  LEU325      0.0001
     71  N        -14.7230   17.0320   41.6580 N.3   328  ASN328     -0.1240
     72  CA       -15.9550   17.0850   40.8770 C.3   328  ASN328      0.1653
     73  C        -16.0770   18.4130   40.1420 C.2   328  ASN328      0.2266
     74  O        -16.5650   18.4610   39.0070 O.2   328  ASN328     -0.2867
     75  CB       -17.1660   16.8610   41.7850 C.3   328  ASN328      0.1155
     76  CG       -17.2460   15.4410   42.3150 C.2   328  ASN328      0.2627
     77  OD1      -16.9390   14.4830   41.6060 O.2   328  ASN328     -0.2716
     78  ND2      -17.6610   15.3010   43.5700 N.am  328  ASN328     -0.0877
     79  N        -25.3220   23.8780   35.9690 N.3   362  THR362     -0.1218
     80  CA       -24.5280   23.1190   36.9310 C.3   362  THR362      0.1862
     81  C        -23.4390   23.9830   37.5550 C.2   362  THR362      0.2287
     82  O        -23.1810   23.8930   38.7620 O.2   362  THR362     -0.2866
     83  CB       -23.9180   21.8920   36.2520 C.3   362  THR362      0.1770
     84  OG1      -24.9660   21.0450   35.7600 O.3   362  THR362     -0.2211
     85  CG2      -23.0610   21.1110   37.2320 C.3   362  THR362      0.0375
     86  N        -25.1490   26.3380   40.0150 N.3   365  ILE365     -0.1231
     87  CA       -25.6230   25.5790   41.1700 C.3   365  ILE365      0.1692
     88  C        -24.4560   25.2030   42.0740 C.2   365  ILE365      0.2592
     89  O        -24.5220   25.3520   43.3000 O.2   365  ILE365     -0.2718
     90  CB       -26.4040   24.3360   40.7090 C.3   365  ILE365      0.0266
     91  CG1      -27.7970   24.7310   40.2230 C.3   365  ILE365      0.0019
     92  CG2      -26.4930   23.3070   41.8270 C.3   365  ILE365      0.0020
     93  CD1      -28.6460   23.5560   39.8220 C.3   365  ILE365      0.0001
     94  N        -23.3670   24.7130   41.4810 N.am  366  TRP366     -0.1976
     95  CA       -22.2240   24.2880   42.2800 C.3   366  TRP366      0.1640
     96  C        -21.4650   25.4800   42.8530 C.2   366  TRP366      0.2290
     97  O        -20.9300   25.4010   43.9660 O.2   366  TRP366     -0.2864
     98  CB       -21.3020   23.4060   41.4410 C.3   366  TRP366      0.0576
     99  CG       -21.7830   21.9910   41.3450 C.ar  366  TRP366      0.0006
    100  CD1      -22.9460   21.5570   40.7810 C.ar  366  TRP366      0.0946
    101  CD2      -21.1130   20.8220   41.8340 C.ar  366  TRP366      0.0152
    102  NE1      -23.0420   20.1900   40.8860 N.ar  366  TRP366     -0.2442
    103  CE2      -21.9280   19.7150   41.5270 C.ar  366  TRP366      0.0810
    104  CE3      -19.9000   20.6040   42.4950 C.ar  366  TRP366      0.0012
    105  CZ2      -21.5720   18.4090   41.8620 C.ar  366  TRP366      0.0191
    106  CZ3      -19.5480   19.3070   42.8250 C.ar  366  TRP366      0.0001
    107  CH2      -20.3810   18.2270   42.5100 C.ar  366  TRP366      0.0015
    108  N        -23.3650   26.7540   45.7800 N.3   369  PHE369     -0.1241
    109  CA       -23.4040   25.8050   46.8880 C.3   369  PHE369      0.1605
    110  C        -22.3390   26.1090   47.9340 C.2   369  PHE369      0.2264
    111  O        -22.5770   25.9290   49.1340 O.2   369  PHE369     -0.2867
    112  CB       -23.2360   24.3810   46.3600 C.3   369  PHE369      0.0534
    113  CG       -22.9760   23.3600   47.4340 C.ar  369  PHE369     -0.0203
    114  CD1      -24.0270   22.7880   48.1330 C.ar  369  PHE369     -0.0042
    115  CD2      -21.6800   22.9640   47.7370 C.ar  369  PHE369     -0.0042
    116  CE1      -23.7910   21.8420   49.1160 C.ar  369  PHE369     -0.0003
    117  CE2      -21.4380   22.0210   48.7210 C.ar  369  PHE369     -0.0003
    118  CZ       -22.4940   21.4580   49.4100 C.ar  369  PHE369     -0.0000
    119  N        -27.5740   19.7530   51.8650 N.3   383  MET383     -0.1245
    120  CA       -26.8530   18.7910   51.0390 C.3   383  MET383      0.1570
    121  C        -27.8170   17.8900   50.2790 C.2   383  MET383      0.2261
    122  O        -27.5760   17.5580   49.1120 O.2   383  MET383     -0.2867
    123  CB       -25.9100   17.9570   51.9070 C.3   383  MET383      0.0387
    124  CG       -25.1250   16.9010   51.1440 C.3   383  MET383      0.0595
    125  SD       -23.8490   17.5930   50.0750 S.3   383  MET383     -0.1393
    126  CE       -22.7110   18.2510   51.2910 C.3   383  MET383      0.0692
    127  N        -29.2900   19.8940   47.3690 N.3   386  SER386     -0.1202
    128  CA       -28.2760   20.2380   46.3760 C.3   386  SER386      0.2020
    129  C        -27.9650   19.0510   45.4720 C.2   386  SER386      0.2618
    130  O        -27.9060   19.1880   44.2450 O.2   386  SER386     -0.2717
    131  CB       -27.0080   20.7370   47.0700 C.3   386  SER386      0.2103
    132  OG       -27.2450   21.9630   47.7400 O.3   386  SER386     -0.2182
    133  N        -27.7660   17.8710   46.0650 N.am  387  VAL387     -0.1979
    134  CA       -27.4850   16.6780   45.2710 C.3   387  VAL387      0.1595
    135  C        -28.6780   16.3260   44.3900 C.2   387  VAL387      0.2287
    136  O        -28.5180   15.9660   43.2180 O.2   387  VAL387     -0.2864
    137  CB       -27.0940   15.5050   46.1890 C.3   387  VAL387      0.0276
    138  CG1      -26.8560   14.2470   45.3710 C.3   387  VAL387      0.0022
    139  CG2      -25.8570   15.8570   47.0010 C.3   387  VAL387      0.0022
    140  N        -28.9610   19.0760   41.5240 N.3   390  SER390     -0.1202
    141  CA       -27.9420   18.8910   40.4950 C.3   390  SER390      0.2020
    142  C        -28.1940   17.6210   39.6920 C.2   390  SER390      0.2618
    143  O        -27.9220   17.5750   38.4870 O.2   390  SER390     -0.2717
    144  CB       -26.5550   18.8610   41.1350 C.3   390  SER390      0.2103
    145  OG       -25.5470   18.6270   40.1660 O.3   390  SER390     -0.2182
    146  N        -28.7180   16.5790   40.3420 N.am  391  ALA391     -0.1979
    147  CA       -29.0640   15.3620   39.6150 C.3   391  ALA391      0.1597
    148  C        -30.2780   15.5810   38.7210 C.2   391  ALA391      0.2287
    149  O        -30.3510   15.0300   37.6160 O.2   391  ALA391     -0.2864
    150  CB       -29.3160   14.2170   40.5950 C.3   391  ALA391      0.0319
    151  N        -29.3230   17.5130   35.3010 N.3   394  ALA394     -0.1245
    152  CA       -28.7670   16.6580   34.2580 C.3   394  ALA394      0.1562
    153  C        -29.8090   15.6970   33.7020 C.2   394  ALA394      0.2260
    154  O        -29.7810   15.3770   32.5080 O.2   394  ALA394     -0.2867
    155  CB       -27.5650   15.8840   34.7980 C.3   394  ALA394      0.0290
@<TRIPOS>BOND
     1   154   153    2
     2    47    46    2
     3   153   152    1
     4    41    40    2
     5   152   155    1
     6   152   151    1
     7    46    45    1
     8    40    44   am
     9    40    39    1
    10    45    44    1
    11    45    48    1
    12    12    10    1
    13    39    42    1
    14    39    38    1
    15    84    83    1
    16    50    52   ar
    17    50    49   ar
    18    79    80    1
    19    48    49    1
    20    83    80    1
    21    83    85    1
    22    42    43    1
    23    52    54   ar
    24    49    51   ar
    25    10     9    1
    26    80    81    1
    27    81    82    2
    28   149   148    2
    29     9    11    1
    30     9     6    1
    31    54    55    1
    32    54    53   ar
    33     1     2    1
    34    51    53   ar
    35   143   142    2
    36     5     6    1
    37     5     3   am
    38    34    33    2
    39   148   147    1
    40     2     3    1
    41     6     7    1
    42    74    73    2
    43     3     4    2
    44   147   146    1
    45   147   150    1
    46   142   146   am
    47   142   141    1
    48    33    32    1
    49    93    91    1
    50     7     8    2
    51    86    87    1
    52    28    27    2
    53    73    72    1
    54   145   144    1
    55    91    90    1
    56   141   144    1
    57   141   140    1
    58    32    35    1
    59    32    31    1
    60    90    87    1
    61    90    92    1
    62   100   102   ar
    63   100    99   ar
    64    72    71    1
    65    72    75    1
    66   102   103   ar
    67    87    88    1
    68    27    31   am
    69    27    26    1
    70    99    98    1
    71    99   101   ar
    72    98    95    1
    73    94    88   am
    74    94    95    1
    75   103   101   ar
    76   103   105   ar
    77    35    36    1
    78    77    76    2
    79    31    37    1
    80    75    76    1
    81   101   104   ar
    82   105   107   ar
    83    88    89    2
    84    26    29    1
    85    26    25    1
    86    95    96    1
    87    76    78   am
    88   104   106   ar
    89   107   106   ar
    90    36    37    1
    91    96    97    2
    92    29    30    1
    93    13    14    1
    94   136   135    2
    95    66    65    2
    96    14    15    1
    97   130   129    2
    98   135   134    1
    99    15    16    2
   100    65    64    1
   101   134   133    1
   102   134   137    1
   103   138   137    1
   104   129   133   am
   105   129   128    1
   106   108   109    1
   107    64    63    1
   108    64    67    1
   109    69    68    1
   110   137   139    1
   111    20    19    2
   112   112   109    1
   113   112   113    1
   114   128   131    1
   115   128   127    1
   116    68    67    1
   117    68    70    1
   118    19    18    1
   119   109   110    1
   120   131   132    1
   121   113   115   ar
   122   113   114   ar
   123    18    17    1
   124    18    21    1
   125   115   117   ar
   126   110   111    2
   127   114   116   ar
   128   117   118   ar
   129    23    21    1
   130    21    22    1
   131   122   121    2
   132   116   118   ar
   133    59    58    2
   134    22    24    1
   135   125   124    1
   136   125   126    1
   137   121   120    1
   138    58    57    1
   139   120   119    1
   140   120   123    1
   141   124   123    1
   142    61    60    1
   143    57    60    1
   144    57    56    1
   145    60    62    1
