@<TRIPOS>MOLECULE
tmp/6ffhA00.pdb
 93 87 0 0 0
SMALL
GASTEIGER

@<TRIPOS>ATOM
      1  N        -14.1950   19.5660   56.7330 N.3   318  ASN318     -0.1240
      2  CA       -14.1730   20.3150   55.4820 C.3   318  ASN318      0.1653
      3  C        -13.3380   19.5990   54.4310 C.2   318  ASN318      0.2266
      4  O        -13.7060   19.5740   53.2500 O.2   318  ASN318     -0.2867
      5  CB       -13.6390   21.7270   55.7190 C.3   318  ASN318      0.1155
      6  CG       -14.5460   22.5470   56.6080 C.2   318  ASN318      0.2627
      7  OD1      -15.7310   22.2470   56.7470 O.2   318  ASN318     -0.2716
      8  ND2      -13.9950   23.5930   57.2130 N.am  318  ASN318     -0.0877
      9  N        -14.4470   19.1190   50.7830 N.3   322  VAL322     -0.1245
     10  CA       -13.8790   19.9890   49.7560 C.3   322  VAL322      0.1561
     11  C        -13.0510   19.1890   48.7570 C.2   322  VAL322      0.2260
     12  O        -13.1070   19.4400   47.5470 O.2   322  VAL322     -0.2867
     13  CB       -13.0520   21.1130   50.4060 C.3   322  VAL322      0.0252
     14  CG1      -12.3120   21.9150   49.3450 C.3   322  VAL322      0.0019
     15  CG2      -13.9490   22.0240   51.2240 C.3   322  VAL322      0.0019
     16  N        -15.2280   17.4920   46.4350 N.3   325  LEU325     -0.1231
     17  CA       -15.9810   18.5640   45.7890 C.3   325  LEU325      0.1693
     18  C        -15.1310   19.2790   44.7480 C.2   325  LEU325      0.2592
     19  O        -15.6120   19.6020   43.6550 O.2   325  LEU325     -0.2718
     20  CB       -16.4840   19.5570   46.8380 C.3   325  LEU325      0.0284
     21  CG       -17.4340   20.6710   46.3960 C.3   325  LEU325      0.0019
     22  CD1      -18.8050   20.1040   46.0960 C.3   325  LEU325      0.0001
     23  CD2      -17.5270   21.7580   47.4570 C.3   325  LEU325      0.0001
     24  N        -13.8630   19.5400   45.0730 N.am  326  GLY326     -0.1957
     25  CA       -12.9870   20.2040   44.1220 C.3   326  GLY326      0.1869
     26  C        -12.7110   19.3600   42.8940 C.2   326  GLY326      0.2309
     27  O        -12.6680   19.8770   41.7740 O.2   326  GLY326     -0.2863
     28  N        -15.6340   19.5030   40.7740 N.3   329  GLY329     -0.1225
     29  CA       -15.6560   20.7930   40.1060 C.3   329  GLY329      0.1811
     30  C        -14.7680   20.8260   38.8780 C.2   329  GLY329      0.2280
     31  O        -15.1400   21.3900   37.8470 O.2   329  GLY329     -0.2866
     32  N        -16.5200   19.4170   36.1500 N.3   332  ILE332     -0.1231
     33  CA       -17.5500   20.3150   35.6400 C.3   332  ILE332      0.1692
     34  C        -16.9370   21.3750   34.7320 C.2   332  ILE332      0.2591
     35  O        -17.5090   21.7270   33.6930 O.2   332  ILE332     -0.2718
     36  CB       -18.3300   20.9410   36.8100 C.3   332  ILE332      0.0266
     37  CG1      -19.1480   19.8700   37.5310 C.3   332  ILE332      0.0019
     38  CG2      -19.2380   22.0580   36.3250 C.3   332  ILE332      0.0020
     39  CD1      -19.8350   20.3780   38.7680 C.3   332  ILE332      0.0001
     40  N        -15.7640   21.8970   35.1020 N.am  333  LEU333     -0.1980
     41  CA       -15.0890   22.8700   34.2470 C.3   333  LEU333      0.1596
     42  C        -14.7290   22.2650   32.8950 C.2   333  LEU333      0.2287
     43  O        -14.9230   22.8990   31.8520 O.2   333  LEU333     -0.2864
     44  CB       -13.8340   23.4080   34.9360 C.3   333  LEU333      0.0297
     45  CG       -13.9650   24.6850   35.7690 C.3   333  LEU333      0.0022
     46  CD1      -14.5400   24.3910   37.1390 C.3   333  LEU333      0.0001
     47  CD2      -12.6190   25.3800   35.8910 C.3   333  LEU333      0.0001
     48  N        -22.7930   24.8320   36.7530 N.3   363  CYS363     -0.1235
     49  CA       -21.7690   25.7230   37.2900 C.3   363  CYS363      0.1677
     50  C        -22.3590   26.6820   38.3150 C.2   363  CYS363      0.2270
     51  O        -21.8000   26.8680   39.4010 O.2   363  CYS363     -0.2867
     52  CB       -21.0970   26.4960   36.1570 C.3   363  CYS363      0.0956
     53  SG       -20.0050   25.4960   35.1300 S.3   363  CYS363     -0.0801
     54  N        -23.3670   24.7130   41.4810 N.3   366  TRP366     -0.1227
     55  CA       -22.2240   24.2880   42.2800 C.3   366  TRP366      0.1737
     56  C        -21.4650   25.4800   42.8530 C.2   366  TRP366      0.2595
     57  O        -20.9300   25.4010   43.9660 O.2   366  TRP366     -0.2718
     58  CB       -21.3020   23.4060   41.4410 C.3   366  TRP366      0.0564
     59  CG       -21.7830   21.9910   41.3450 C.ar  366  TRP366      0.0003
     60  CD1      -22.9460   21.5570   40.7810 C.ar  366  TRP366      0.0946
     61  CD2      -21.1130   20.8220   41.8340 C.ar  366  TRP366      0.0152
     62  NE1      -23.0420   20.1900   40.8860 N.ar  366  TRP366     -0.2442
     63  CE2      -21.9280   19.7150   41.5270 C.ar  366  TRP366      0.0810
     64  CE3      -19.9000   20.6040   42.4950 C.ar  366  TRP366      0.0012
     65  CZ2      -21.5720   18.4090   41.8620 C.ar  366  TRP366      0.0191
     66  CZ3      -19.5480   19.3070   42.8250 C.ar  366  TRP366      0.0001
     67  CH2      -20.3810   18.2270   42.5100 C.ar  366  TRP366      0.0015
     68  N        -21.4000   26.5910   42.1150 N.am  367  LEU367     -0.1980
     69  CA       -20.7470   27.7830   42.6480 C.3   367  LEU367      0.1596
     70  C        -21.5320   28.3550   43.8200 C.2   367  LEU367      0.2287
     71  O        -20.9550   28.7090   44.8540 O.2   367  LEU367     -0.2864
     72  CB       -20.5780   28.8320   41.5500 C.3   367  LEU367      0.0297
     73  CG       -19.3910   28.6300   40.6090 C.3   367  LEU367      0.0022
     74  CD1      -19.3610   29.7290   39.5620 C.3   367  LEU367      0.0001
     75  CD2      -18.0900   28.5940   41.3970 C.3   367  LEU367      0.0001
     76  N        -21.1610   26.5510   47.5040 N.3   370  VAL370     -0.1245
     77  CA       -20.0230   26.7250   48.4060 C.3   370  VAL370      0.1561
     78  C        -20.3510   27.7280   49.5120 C.2   370  VAL370      0.2260
     79  O        -20.1980   27.3880   50.6940 O.2   370  VAL370     -0.2867
     80  CB       -18.7540   27.1320   47.6360 C.3   370  VAL370      0.0252
     81  CG1      -17.5880   27.2890   48.5930 C.3   370  VAL370      0.0019
     82  CG2      -18.4290   26.1050   46.5610 C.3   370  VAL370      0.0019
     83  N        -21.3260   25.9250   53.4530 N.3   374  PHE374     -0.1241
     84  CA       -20.3640   26.1280   54.5290 C.3   374  PHE374      0.1605
     85  C        -20.7570   27.2500   55.4800 C.2   374  PHE374      0.2264
     86  O        -20.1680   27.3540   56.5610 O.2   374  PHE374     -0.2867
     87  CB       -18.9750   26.3970   53.9460 C.3   374  PHE374      0.0534
     88  CG       -18.3510   25.1930   53.3060 C.ar  374  PHE374     -0.0203
     89  CD1      -17.7010   24.2440   54.0780 C.ar  374  PHE374     -0.0042
     90  CD2      -18.4210   25.0020   51.9340 C.ar  374  PHE374     -0.0042
     91  CE1      -17.1290   23.1310   53.4960 C.ar  374  PHE374     -0.0003
     92  CE2      -17.8490   23.8890   51.3430 C.ar  374  PHE374     -0.0003
     93  CZ       -17.2030   22.9520   52.1260 C.ar  374  PHE374     -0.0000
@<TRIPOS>BOND
     1    43    42    2
     2    42    41    1
     3    35    34    2
     4    41    44    1
     5    41    40    1
     6    34    40   am
     7    34    33    1
     8    44    45    1
     9    53    52    1
    10    33    32    1
    11    33    36    1
    12    45    47    1
    13    45    46    1
    14    52    49    1
    15    38    36    1
    16    48    49    1
    17    36    37    1
    18    49    50    1
    19    37    39    1
    20    31    30    2
    21    50    51    2
    22    30    29    1
    23    74    73    1
    24    29    28    1
    25    73    75    1
    26    73    72    1
    27    60    62   ar
    28    60    59   ar
    29    62    63   ar
    30    59    58    1
    31    59    61   ar
    32    58    55    1
    33    54    55    1
    34    63    61   ar
    35    63    65   ar
    36    72    69    1
    37    27    26    2
    38    61    64   ar
    39    65    67   ar
    40    68    69    1
    41    68    56   am
    42    55    56    1
    43    64    66   ar
    44    67    66   ar
    45    69    70    1
    46    56    57    2
    47    26    25    1
    48    19    18    2
    49    70    71    2
    50    25    24    1
    51    18    24   am
    52    18    17    1
    53    17    16    1
    54    17    20    1
    55    22    21    1
    56    21    20    1
    57    21    23    1
    58    82    80    1
    59    76    77    1
    60    12    11    2
    61    80    77    1
    62    80    81    1
    63    77    78    1
    64    11    10    1
    65    14    13    1
    66    78    79    2
    67    10    13    1
    68    10     9    1
    69    13    15    1
    70    92    90   ar
    71    92    93   ar
    72    90    88   ar
    73    93    91   ar
    74     4     3    2
    75    88    87    1
    76    88    89   ar
    77    83    84    1
    78    91    89   ar
    79    87    84    1
    80     3     2    1
    81    84    85    1
    82    85    86    2
    83     2     5    1
    84     2     1    1
    85     5     6    1
    86     6     7    2
    87     6     8   am
