@<TRIPOS>MOLECULE
tmp/6ffhA04.pdb
 94 91 0 0 0
SMALL
GASTEIGER

@<TRIPOS>ATOM
      1  N        -41.1710   13.7370   62.2420 N.3     5  TYR5       -0.1241
      2  CA       -40.7470   15.1310   62.2240 C.3     5  TYR5        0.1605
      3  C        -41.7260   16.0210   61.4720 C.2     5  TYR5        0.2264
      4  O        -41.7750   17.2270   61.7380 O.2     5  TYR5       -0.2867
      5  CB       -39.3510   15.2500   61.6140 C.3     5  TYR5        0.0534
      6  CG       -38.2310   14.9980   62.5990 C.ar    5  TYR5       -0.0201
      7  CD1      -38.0300   13.7370   63.1440 C.ar    5  TYR5       -0.0009
      8  CD2      -37.3730   16.0200   62.9800 C.ar    5  TYR5       -0.0009
      9  CE1      -37.0060   13.5020   64.0450 C.ar    5  TYR5        0.0417
     10  CE2      -36.3460   15.7960   63.8790 C.ar    5  TYR5        0.0417
     11  CZ       -36.1660   14.5350   64.4080 C.ar    5  TYR5        0.1957
     12  OH       -35.1440   14.3080   65.3030 O.3     5  TYR5       -0.2866
     13  N        -41.5880   19.9450   61.4910 N.3    10  ASP10      -0.1239
     14  CA       -40.4060   20.0620   60.6380 C.3    10  ASP10       0.1674
     15  C        -40.6180   19.2360   59.3770 C.2    10  ASP10       0.2266
     16  O        -40.4410   18.0050   59.4000 O.2    10  ASP10      -0.2867
     17  CB       -39.1490   19.6160   61.3740 C.3    10  ASP10       0.1410
     18  CG       -37.9050   19.7280   60.5190 C.2    10  ASP10       0.3668
     19  OD1      -37.6920   20.7960   59.9060 O.co2  10  ASP10      -0.2456
     20  OD2      -37.1320   18.7490   60.4700 O.co2  10  ASP10      -0.2456
     21  N        -32.3310    9.6140   66.1550 N.3   309  GLU309     -0.1245
     22  CA       -32.8870   10.7710   65.4650 C.3   309  GLU309      0.1567
     23  C        -32.8980   10.5590   63.9530 C.2   309  GLU309      0.2260
     24  O        -32.1270    9.7580   63.4260 O.2   309  GLU309     -0.2867
     25  CB       -32.1030   12.0250   65.8160 C.3   309  GLU309      0.0388
     26  CG       -32.0340   12.3200   67.3370 C.3   309  GLU309      0.1160
     27  CD       -31.2230   13.5000   67.7780 C.2   309  GLU309      0.3649
     28  OE1      -30.4940   14.1420   67.0730 O.co2 309  GLU309     -0.2457
     29  OE2      -31.3480   13.7940   68.9800 O.co2 309  GLU309     -0.2457
     30  N        -32.0350   12.7810   61.6410 N.3   311  TYR311     -0.1241
     31  CA       -30.7950   13.3230   61.1100 C.3   311  TYR311      0.1605
     32  C        -29.6070   12.5140   61.6140 C.2   311  TYR311      0.2264
     33  O        -29.4850   12.2530   62.8150 O.2   311  TYR311     -0.2867
     34  CB       -30.6430   14.7900   61.5070 C.3   311  TYR311      0.0534
     35  CG       -31.6510   15.7060   60.8560 C.ar  311  TYR311     -0.0201
     36  CD1      -32.9440   15.8160   61.3530 C.ar  311  TYR311     -0.0009
     37  CD2      -31.3100   16.4650   59.7460 C.ar  311  TYR311     -0.0009
     38  CE1      -33.8680   16.6570   60.7600 C.ar  311  TYR311      0.0417
     39  CE2      -32.2260   17.3070   59.1470 C.ar  311  TYR311      0.0417
     40  CZ       -33.5040   17.4010   59.6570 C.ar  311  TYR311      0.1957
     41  OH       -34.4180   18.2400   59.0610 O.3   311  TYR311     -0.2866
     42  N        -25.7200   12.7200   61.9530 N.3   313  ILE313     -0.1245
     43  CA       -24.5770   13.6240   61.9580 C.3   313  ILE313      0.1561
     44  C        -23.3100   12.7800   62.0080 C.2   313  ILE313      0.2260
     45  O        -23.1220   11.9850   62.9370 O.2   313  ILE313     -0.2867
     46  CB       -24.6340   14.5960   63.1480 C.3   313  ILE313      0.0252
     47  CG1      -26.0830   14.8710   63.5570 C.3   313  ILE313      0.0019
     48  CG2      -23.9240   15.9000   62.8070 C.3   313  ILE313      0.0019
     49  CD1      -26.8370   15.7710   62.6090 C.3   313  ILE313      0.0001
     50  N        -26.3900   26.3380   58.9760 N.3   377  ASN377     -0.1225
     51  CA       -26.5700   25.5440   60.1810 C.3   377  ASN377      0.1785
     52  C        -27.5270   24.3800   59.9620 C.2   377  ASN377      0.2597
     53  O        -27.9180   23.7160   60.9270 O.2   377  ASN377     -0.2718
     54  CB       -27.0630   26.4320   61.3240 C.3   377  ASN377      0.1169
     55  CG       -26.1040   27.5640   61.6330 C.2   377  ASN377      0.2627
     56  OD1      -24.8860   27.3880   61.6000 O.2   377  ASN377     -0.2716
     57  ND2      -26.6490   28.7370   61.9260 N.am  377  ASN377     -0.0877
     58  N        -27.9140   24.1270   58.7110 N.am  378  TYR378     -0.1962
     59  CA       -28.7470   22.9870   58.3360 C.3   378  TYR378      0.1771
     60  C        -28.0760   22.2580   57.1710 C.2   378  TYR378      0.2619
     61  O        -28.6220   22.1270   56.0760 O.2   378  TYR378     -0.2715
     62  CB       -30.1610   23.4390   57.9810 C.3   378  TYR378      0.0574
     63  CG       -30.7840   24.3420   59.0220 C.ar  378  TYR378     -0.0198
     64  CD1      -31.3880   23.8150   60.1550 C.ar  378  TYR378     -0.0009
     65  CD2      -30.7640   25.7230   58.8720 C.ar  378  TYR378     -0.0009
     66  CE1      -31.9560   24.6360   61.1100 C.ar  378  TYR378      0.0417
     67  CE2      -31.3310   26.5530   59.8230 C.ar  378  TYR378      0.0417
     68  CZ       -31.9260   26.0030   60.9390 C.ar  378  TYR378      0.1957
     69  OH       -32.4920   26.8230   61.8890 O.3   378  TYR378     -0.2866
     70  N        -26.8590   21.7720   57.4290 N.am  379  LYS379     -0.1963
     71  CA       -26.0090   21.2590   56.3610 C.3   379  LYS379      0.1728
     72  C        -26.5520   19.9720   55.7530 C.2   379  LYS379      0.2616
     73  O        -26.3600   19.7310   54.5560 O.2   379  LYS379     -0.2715
     74  CB       -24.5900   21.0380   56.8860 C.3   379  LYS379      0.0311
     75  CG       -23.8650   22.3220   57.2550 C.3   379  LYS379      0.0038
     76  CD       -22.3770   22.0840   57.4410 C.3   379  LYS379      0.0206
     77  CE       -21.6330   23.3910   57.6540 C.3   379  LYS379      0.1093
     78  NZ       -20.1600   23.1860   57.7130 N.3   379  LYS379     -0.1314
     79  N        -27.2250   19.1380   56.5480 N.am  380  ILE380     -0.1963
     80  CA       -27.7290   17.8680   56.0270 C.3   380  ILE380      0.1727
     81  C        -28.7970   18.1120   54.9700 C.2   380  ILE380      0.2616
     82  O        -28.7460   17.5520   53.8690 O.2   380  ILE380     -0.2715
     83  CB       -28.2600   16.9880   57.1720 C.3   380  ILE380      0.0290
     84  CG1      -27.1070   16.4850   58.0380 C.3   380  ILE380      0.0022
     85  CG2      -29.0610   15.8160   56.6200 C.3   380  ILE380      0.0023
     86  CD1      -27.5330   15.4880   59.0850 C.3   380  ILE380      0.0001
     87  N        -29.7780   18.9590   55.2890 N.am  381  ILE381     -0.1977
     88  CA       -30.8930   19.1850   54.3750 C.3   381  ILE381      0.1596
     89  C        -30.4390   19.9730   53.1530 C.2   381  ILE381      0.2287
     90  O        -30.8710   19.6990   52.0260 O.2   381  ILE381     -0.2864
     91  CB       -32.0500   19.8830   55.1120 C.3   381  ILE381      0.0276
     92  CG1      -32.7030   18.9130   56.0970 C.3   381  ILE381      0.0022
     93  CG2      -33.0840   20.4050   54.1300 C.3   381  ILE381      0.0022
     94  CD1      -33.2360   17.6540   55.4450 C.3   381  ILE381      0.0001
@<TRIPOS>BOND
     1    90    89    2
     2    89    88    1
     3    82    81    2
     4    93    91    1
     5    88    91    1
     6    88    87    1
     7    73    72    2
     8    81    87   am
     9    81    80    1
    10    91    92    1
    11    94    92    1
    12    72    71    1
    13    72    79   am
    14    80    79    1
    15    80    83    1
    16    61    60    2
    17    71    74    1
    18    71    70    1
    19    85    83    1
    20    74    75    1
    21    60    70   am
    22    60    59    1
    23    83    84    1
    24    75    76    1
    25    76    77    1
    26    77    78    1
    27    62    59    1
    28    62    63    1
    29    84    86    1
    30    59    58    1
    31    58    52   am
    32    65    63   ar
    33    65    67   ar
    34    50    51    1
    35    63    64   ar
    36    41    40    1
    37    39    40   ar
    38    39    37   ar
    39    15    16    2
    40    15    14    1
    41    40    38   ar
    42    37    35   ar
    43    67    68   ar
    44    19    18   ar
    45    52    51    1
    46    52    53    2
    47    64    66   ar
    48    51    54    1
    49    20    18   ar
    50    18    17    1
    51    14    17    1
    52    14    13    1
    53    38    36   ar
    54    35    36   ar
    55    35    34    1
    56    68    66   ar
    57    68    69    1
    58    31    34    1
    59    31    32    1
    60    31    30    1
    61    54    55    1
    62     3     4    2
    63     3     2    1
    64    56    55    2
    65     5     2    1
    66     5     6    1
    67    32    33    2
    68    55    57   am
    69    42    43    1
    70    43    44    1
    71    43    46    1
    72    44    45    2
    73     2     1    1
    74     6     8   ar
    75     6     7   ar
    76    49    47    1
    77    48    46    1
    78     8    10   ar
    79     7     9   ar
    80    46    47    1
    81    24    23    2
    82    10    11   ar
    83    23    22    1
    84     9    11   ar
    85    11    12    1
    86    22    25    1
    87    22    21    1
    88    25    26    1
    89    28    27   ar
    90    26    27    1
    91    27    29   ar
