@<TRIPOS>MOLECULE
tmp/6ffhA03.pdb
 74 69 0 0 0
SMALL
GASTEIGER

@<TRIPOS>ATOM
      1  N        -38.1050    8.3810   61.9410 N.3     1  SER1       -0.1203
      2  CA       -39.1540    8.4460   60.9290 C.3     1  SER1        0.2005
      3  C        -39.3750    9.8760   60.4400 C.2     1  SER1        0.2460
      4  O        -39.6660   10.7690   61.2370 O.2     1  SER1       -0.2732
      5  CB       -40.4610    7.8720   61.4810 C.3     1  SER1        0.2103
      6  OG       -41.5080    7.9920   60.5340 O.3     1  SER1       -0.2182
      7  N        -39.2260   10.0940   59.1300 N.am    2  PRO2       -0.2728
      8  CA       -39.4850   11.4360   58.5820 C.3     2  PRO2        0.1401
      9  C        -40.9170   11.9040   58.7790 C.2     2  PRO2        0.2269
     10  O        -41.1610   13.1160   58.8320 O.2     2  PRO2       -0.2865
     11  CB       -39.1430   11.2780   57.0930 C.3     2  PRO2        0.0296
     12  CG       -38.2330   10.0980   57.0310 C.3     2  PRO2        0.0237
     13  CD       -38.6990    9.1700   58.1120 C.3     2  PRO2        0.0939
     14  N        -37.1620   13.2410   51.1480 N.3    17  VAL17      -0.1245
     15  CA       -37.4090   11.8490   50.7850 C.3    17  VAL17       0.1561
     16  C        -38.2810   11.7720   49.5370 C.2    17  VAL17       0.2260
     17  O        -37.9860   11.0200   48.6010 O.2    17  VAL17      -0.2867
     18  CB       -38.0430   11.0910   51.9660 C.3    17  VAL17       0.0252
     19  CG1      -38.5000    9.7110   51.5280 C.3    17  VAL17       0.0019
     20  CG2      -37.0530   10.9820   53.1150 C.3    17  VAL17       0.0019
     21  N        -37.4740   10.0920   45.9620 N.3    21  CYS21      -0.1235
     22  CA       -38.3090    9.0330   45.4020 C.3    21  CYS21       0.1677
     23  C        -38.7890    9.3920   44.0010 C.2    21  CYS21       0.2270
     24  O        -38.7250    8.5690   43.0810 O.2    21  CYS21      -0.2867
     25  CB       -39.4950    8.7570   46.3250 C.3    21  CYS21       0.0956
     26  SG       -39.0430    8.1170   47.9520 S.3    21  CYS21      -0.0801
     27  N        -35.8760    9.0250   41.7650 N.3    24  LEU24      -0.1245
     28  CA       -35.6410    7.6140   41.4740 C.3    24  LEU24       0.1561
     29  C        -36.6720    7.0760   40.4900 C.2    24  LEU24       0.2260
     30  O        -36.3440    6.2600   39.6200 O.2    24  LEU24      -0.2867
     31  CB       -35.6610    6.7950   42.7640 C.3    24  LEU24       0.0270
     32  CG       -34.5150    7.0010   43.7550 C.3    24  LEU24       0.0019
     33  CD1      -34.7570    6.1780   45.0110 C.3    24  LEU24       0.0001
     34  CD2      -33.1770    6.6460   43.1240 C.3    24  LEU24       0.0001
     35  N        -30.8310    8.9820   51.3790 N.3    66  PHE66      -0.1241
     36  CA       -31.2840    7.8690   52.2020 C.3    66  PHE66       0.1605
     37  C        -30.1970    7.4170   53.1720 C.2    66  PHE66       0.2264
     38  O        -30.4210    6.5300   53.9940 O.2    66  PHE66      -0.2867
     39  CB       -31.7330    6.6990   51.3250 C.3    66  PHE66       0.0534
     40  CG       -33.0120    6.9580   50.5810 C.ar   66  PHE66      -0.0203
     41  CD1      -34.2340    6.8290   51.2180 C.ar   66  PHE66      -0.0042
     42  CD2      -32.9940    7.3300   49.2470 C.ar   66  PHE66      -0.0042
     43  CE1      -35.4130    7.0660   50.5390 C.ar   66  PHE66      -0.0003
     44  CE2      -34.1720    7.5680   48.5620 C.ar   66  PHE66      -0.0003
     45  CZ       -35.3820    7.4360   49.2090 C.ar   66  PHE66      -0.0000
     46  N        -30.5000   10.9630   55.4230 N.3    68  ILE68      -0.1231
     47  CA       -31.6910   10.8130   56.2500 C.3    68  ILE68       0.1692
     48  C        -31.8360    9.3380   56.5970 C.2    68  ILE68       0.2592
     49  O        -32.5680    8.6010   55.9280 O.2    68  ILE68      -0.2718
     50  CB       -32.9460   11.3420   55.5300 C.3    68  ILE68       0.0266
     51  CG1      -32.6990   12.7450   54.9700 C.3    68  ILE68       0.0019
     52  CG2      -34.1450   11.3420   56.4650 C.3    68  ILE68       0.0020
     53  CD1      -32.4510   13.7950   56.0260 C.3    68  ILE68       0.0001
     54  N        -31.1310    8.8900   57.6350 N.am   69  ALA69      -0.1966
     55  CA       -31.1030    7.4740   57.9680 C.3    69  ALA69       0.1728
     56  C        -30.9200    7.3030   59.4690 C.2    69  ALA69       0.2616
     57  O        -30.7240    8.2690   60.2110 O.2    69  ALA69      -0.2715
     58  CB       -29.9920    6.7450   57.2050 C.3    69  ALA69       0.0334
     59  N        -30.9880    6.0450   59.9060 N.am   70  LYS70      -0.1977
     60  CA       -30.7860    5.6790   61.2960 C.3    70  LYS70       0.1596
     61  C        -29.2960    5.6810   61.6340 C.2    70  LYS70       0.2287
     62  O        -28.4570    5.4070   60.7710 O.2    70  LYS70      -0.2864
     63  CB       -31.3790    4.3010   61.5720 C.3    70  LYS70       0.0298
     64  CG       -32.8320    4.1570   61.1470 C.3    70  LYS70       0.0038
     65  CD       -33.3480    2.7510   61.4030 C.3    70  LYS70       0.0206
     66  CE       -34.7820    2.5940   60.9260 C.3    70  LYS70       0.1093
     67  NZ       -35.3030    1.2230   61.1810 N.3    70  LYS70      -0.1314
     68  N        -33.7830   11.2850   63.2650 N.3   310  VAL310     -0.1245
     69  CA       -33.8620   11.1830   61.8090 C.3   310  VAL310      0.1561
     70  C        -32.5640   11.6580   61.1700 C.2   310  VAL310      0.2260
     71  O        -32.0290   11.0140   60.2580 O.2   310  VAL310     -0.2867
     72  CB       -35.0770   11.9730   61.2880 C.3   310  VAL310      0.0252
     73  CG1      -34.8830   12.3550   59.8340 C.3   310  VAL310      0.0019
     74  CG2      -36.3410   11.1540   61.4520 C.3   310  VAL310      0.0019
@<TRIPOS>BOND
     1    30    29    2
     2    29    28    1
     3    28    27    1
     4    28    31    1
     5    31    32    1
     6    24    23    2
     7    34    32    1
     8    32    33    1
     9    23    22    1
    10    22    21    1
    11    22    25    1
    12    25    26    1
    13    44    45   ar
    14    44    42   ar
    15    17    16    2
    16    45    43   ar
    17    42    40   ar
    18    16    15    1
    19    43    41   ar
    20    40    41   ar
    21    40    39    1
    22    15    14    1
    23    15    18    1
    24    39    36    1
    25    35    36    1
    26    19    18    1
    27    18    20    1
    28    36    37    1
    29    37    38    2
    30    51    50    1
    31    51    53    1
    32    46    47    1
    33    50    47    1
    34    50    52    1
    35    49    48    2
    36    47    48    1
    37    48    54   am
    38    12    11    1
    39    12    13    1
    40    11     8    1
    41    58    55    1
    42    54    55    1
    43    55    56    1
    44    13     7    1
    45     8     9    1
    46     8     7    1
    47     9    10    2
    48     7     3   am
    49    56    59   am
    50    56    57    2
    51    73    72    1
    52    59    60    1
    53    71    70    2
    54     3     2    1
    55     3     4    2
    56     6     5    1
    57    62    61    2
    58    66    67    1
    59    66    65    1
    60     2     5    1
    61     2     1    1
    62    64    65    1
    63    64    63    1
    64    70    69    1
    65    72    74    1
    66    72    69    1
    67    60    63    1
    68    60    61    1
    69    69    68    1
