@<TRIPOS>MOLECULE
tmp/6ffiA08.pdb
 141 133 0 0 0
SMALL
GASTEIGER

@<TRIPOS>ATOM
      1  N        -25.0110  -14.8330   37.7870 N.3    57  GLY57      -0.1210
      2  CA       -24.5390  -13.7740   38.6600 C.3    57  GLY57       0.1956
      3  C        -25.6700  -12.9310   39.2180 C.2    57  GLY57       0.2611
      4  O        -25.7070  -12.6440   40.4140 O.2    57  GLY57      -0.2717
      5  N        -26.5900  -12.5310   38.3470 N.am   58  ILE58      -0.1979
      6  CA       -27.7690  -11.7720   38.7500 C.3    58  ILE58       0.1595
      7  C        -28.5990  -12.5610   39.7640 C.2    58  ILE58       0.2287
      8  O        -29.0790  -12.0120   40.7540 O.2    58  ILE58      -0.2864
      9  CB       -28.6430  -11.4130   37.5270 C.3    58  ILE58       0.0276
     10  CG1      -27.9370  -10.3720   36.6540 C.3    58  ILE58       0.0022
     11  CG2      -30.0140  -10.9070   37.9610 C.3    58  ILE58       0.0022
     12  CD1      -28.7600   -9.9110   35.4670 C.3    58  ILE58       0.0001
     13  N        -26.9320  -12.5610   43.0250 N.3    61  GLY61      -0.1225
     14  CA       -27.1080  -11.2220   43.5540 C.3    61  GLY61       0.1811
     15  C        -28.3600  -11.1110   44.4040 C.2    61  GLY61       0.2280
     16  O        -28.2980  -10.6730   45.5560 O.2    61  GLY61      -0.2866
     17  N        -21.5910  -11.2160   47.8490 N.3    83  ILE83      -0.1245
     18  CA       -21.5480   -9.7750   47.5880 C.3    83  ILE83       0.1561
     19  C        -20.3670   -9.3860   46.6940 C.2    83  ILE83       0.2260
     20  O        -20.4470   -8.4450   45.9030 O.2    83  ILE83      -0.2867
     21  CB       -21.5470   -8.9680   48.9120 C.3    83  ILE83       0.0252
     22  CG1      -22.9240   -9.0640   49.5750 C.3    83  ILE83       0.0019
     23  CG2      -21.1890   -7.5070   48.6850 C.3    83  ILE83       0.0019
     24  CD1      -23.0080   -8.3690   50.9190 C.3    83  ILE83       0.0001
     25  N        -20.8090  -12.3420   42.9310 N.3    86  SER86      -0.1203
     26  CA       -21.9350  -12.2300   42.0050 C.3    86  SER86       0.2005
     27  C        -21.8680  -11.0370   41.0350 C.2    86  SER86       0.2460
     28  O        -22.2860  -11.1680   39.8870 O.2    86  SER86      -0.2732
     29  CB       -23.3000  -12.2820   42.7180 C.3    86  SER86       0.2103
     30  OG       -23.4960  -11.1650   43.5640 O.3    86  SER86      -0.2182
     31  N        -21.3660   -9.8630   41.4850 N.am   87  PRO87      -0.2728
     32  CA       -21.1980   -8.8140   40.4690 C.3    87  PRO87       0.1401
     33  C        -20.0640   -9.1420   39.5080 C.2    87  PRO87       0.2269
     34  O        -20.1170   -8.8110   38.3180 O.2    87  PRO87      -0.2865
     35  CB       -20.8350   -7.5620   41.2850 C.3    87  PRO87       0.0296
     36  CG       -21.2420   -7.8510   42.6850 C.3    87  PRO87       0.0237
     37  CD       -21.1110   -9.3470   42.8450 C.3    87  PRO87       0.0939
     38  N        -21.1950  -11.4990   36.6610 N.3    90  SER90      -0.1202
     39  CA       -21.9540  -10.7820   35.6390 C.3    90  SER90       0.2020
     40  C        -21.0660   -9.8520   34.8090 C.2    90  SER90       0.2618
     41  O        -21.0680   -9.9090   33.5780 O.2    90  SER90      -0.2717
     42  CB       -23.0980   -9.9910   36.2800 C.3    90  SER90       0.2103
     43  OG       -24.0410  -10.8630   36.8810 O.3    90  SER90      -0.2182
     44  N        -20.2950   -9.0110   35.4890 N.am   91  TYR91      -0.1975
     45  CA       -19.4640   -8.0140   34.8130 C.3    91  TYR91       0.1639
     46  C        -18.2460   -8.5830   34.0800 C.2    91  TYR91       0.2290
     47  O        -17.7830   -7.9980   33.0990 O.2    91  TYR91      -0.2864
     48  CB       -19.0320   -6.9180   35.7900 C.3    91  TYR91       0.0560
     49  CG       -20.1940   -6.1430   36.3660 C.ar   91  TYR91      -0.0198
     50  CD1      -21.2730   -5.7800   35.5700 C.ar   91  TYR91      -0.0009
     51  CD2      -20.2230   -5.7950   37.7090 C.ar   91  TYR91      -0.0009
     52  CE1      -22.3420   -5.0800   36.0920 C.ar   91  TYR91       0.0417
     53  CE2      -21.2900   -5.0970   38.2420 C.ar   91  TYR91       0.0417
     54  CZ       -22.3460   -4.7410   37.4300 C.ar   91  TYR91       0.1957
     55  OH       -23.4100   -4.0460   37.9570 O.3    91  TYR91      -0.2866
     56  N        -15.0910   -4.5430   46.2060 N.3   321  LEU321     -0.1245
     57  CA       -15.8290   -3.4340   45.6130 C.3   321  LEU321      0.1561
     58  C        -14.9800   -2.7140   44.5700 C.2   321  LEU321      0.2260
     59  O        -15.4590   -2.3760   43.4860 O.2   321  LEU321     -0.2867
     60  CB       -16.2660   -2.4470   46.7000 C.3   321  LEU321      0.0270
     61  CG       -17.3430   -1.4230   46.3350 C.3   321  LEU321      0.0019
     62  CD1      -18.6800   -2.1060   46.1230 C.3   321  LEU321      0.0001
     63  CD2      -17.4590   -0.3450   47.4020 C.3   321  LEU321      0.0001
     64  N        -14.5810   -5.0050   41.3820 N.3   324  ASN324     -0.1240
     65  CA       -15.7980   -4.9540   40.5740 C.3   324  ASN324      0.1653
     66  C        -15.9220   -3.6120   39.8700 C.2   324  ASN324      0.2266
     67  O        -16.3650   -3.5410   38.7230 O.2   324  ASN324     -0.2867
     68  CB       -17.0390   -5.2160   41.4280 C.3   324  ASN324      0.1155
     69  CG       -17.0560   -6.6120   42.0160 C.2   324  ASN324      0.2627
     70  OD1      -16.6900   -7.5820   41.3520 O.2   324  ASN324     -0.2716
     71  ND2      -17.4730   -6.7190   43.2720 N.am  324  ASN324     -0.0877
     72  N        -25.1430    4.2680   39.8190 N.3   361  ILE361     -0.1231
     73  CA       -25.6050    3.5100   40.9780 C.3   361  ILE361      0.1692
     74  C        -24.4580    3.1390   41.9190 C.2   361  ILE361      0.2592
     75  O        -24.5640    3.2860   43.1390 O.2   361  ILE361     -0.2718
     76  CB       -26.3490    2.2360   40.5330 C.3   361  ILE361      0.0266
     77  CG1      -27.7400    2.5950   40.0150 C.3   361  ILE361      0.0019
     78  CG2      -26.4840    1.2580   41.6760 C.3   361  ILE361      0.0020
     79  CD1      -28.5380    1.4000   39.5720 C.3   361  ILE361      0.0001
     80  N        -23.3560    2.6770   41.3420 N.am  362  TRP362     -0.1976
     81  CA       -22.1990    2.2560   42.1240 C.3   362  TRP362      0.1640
     82  C        -21.4310    3.4260   42.7270 C.2   362  TRP362      0.2290
     83  O        -20.9790    3.3540   43.8700 O.2   362  TRP362     -0.2864
     84  CB       -21.2720    1.3920   41.2750 C.3   362  TRP362      0.0576
     85  CG       -21.7060   -0.0290   41.2100 C.ar  362  TRP362      0.0006
     86  CD1      -22.8620   -0.5080   40.6680 C.ar  362  TRP362      0.0946
     87  CD2      -20.9900   -1.1670   41.7050 C.ar  362  TRP362      0.0152
     88  NE1      -22.9120   -1.8750   40.7960 N.ar  362  TRP362     -0.2442
     89  CE2      -21.7770   -2.3030   41.4270 C.ar  362  TRP362      0.0810
     90  CE3      -19.7610   -1.3340   42.3500 C.ar  362  TRP362      0.0012
     91  CZ2      -21.3700   -3.5910   41.7750 C.ar  362  TRP362      0.0191
     92  CZ3      -19.3630   -2.6130   42.6950 C.ar  362  TRP362      0.0001
     93  CH2      -20.1660   -3.7240   42.4080 C.ar  362  TRP362      0.0015
     94  N        -23.2960    4.5860   45.5790 N.3   365  PHE365     -0.1241
     95  CA       -23.2810    3.6270   46.6770 C.3   365  PHE365      0.1605
     96  C        -22.2340    3.9630   47.7360 C.2   365  PHE365      0.2264
     97  O        -22.4750    3.7790   48.9290 O.2   365  PHE365     -0.2867
     98  CB       -23.0540    2.2080   46.1490 C.3   365  PHE365      0.0534
     99  CG       -22.7850    1.1930   47.2270 C.ar  365  PHE365     -0.0203
    100  CD1      -23.8310    0.5850   47.9010 C.ar  365  PHE365     -0.0042
    101  CD2      -21.4850    0.8390   47.5570 C.ar  365  PHE365     -0.0042
    102  CE1      -23.5860   -0.3500   48.8870 C.ar  365  PHE365     -0.0003
    103  CE2      -21.2350   -0.0930   48.5450 C.ar  365  PHE365     -0.0003
    104  CZ       -22.2850   -0.6890   49.2090 C.ar  365  PHE365     -0.0000
    105  N        -27.3150   -2.4920   51.7440 N.3   379  MET379     -0.1245
    106  CA       -26.6350   -3.4900   50.9260 C.3   379  MET379      0.1570
    107  C        -27.6250   -4.3290   50.1180 C.2   379  MET379      0.2261
    108  O        -27.4250   -4.5500   48.9230 O.2   379  MET379     -0.2867
    109  CB       -25.7660   -4.3970   51.7970 C.3   379  MET379      0.0387
    110  CG       -24.9130   -5.3690   51.0040 C.3   379  MET379      0.0595
    111  SD       -23.6850   -4.5460   49.9680 S.3   379  MET379     -0.1393
    112  CE       -22.5430   -3.9490   51.2100 C.3   379  MET379      0.0692
    113  N        -29.1760   -2.2600   47.3320 N.3   382  SER382     -0.1202
    114  CA       -28.1340   -1.9070   46.3680 C.3   382  SER382      0.2020
    115  C        -27.8030   -3.0540   45.4180 C.2   382  SER382      0.2618
    116  O        -27.8260   -2.8770   44.1990 O.2   382  SER382     -0.2717
    117  CB       -26.8640   -1.4360   47.0790 C.3   382  SER382      0.2103
    118  OG       -27.1050   -0.2490   47.8130 O.3   382  SER382     -0.2182
    119  N        -27.4870   -4.2180   45.9800 N.am  383  VAL383     -0.1979
    120  CA       -27.1920   -5.4010   45.1780 C.3   383  VAL383      0.1595
    121  C        -28.3670   -5.7200   44.2570 C.2   383  VAL383      0.2287
    122  O        -28.1860   -5.9530   43.0620 O.2   383  VAL383     -0.2864
    123  CB       -26.8910   -6.6280   46.0620 C.3   383  VAL383      0.0276
    124  CG1      -26.6700   -7.8580   45.2080 C.3   383  VAL383      0.0022
    125  CG2      -25.6740   -6.3690   46.9380 C.3   383  VAL383      0.0022
    126  N        -28.8750   -3.0940   41.4390 N.3   386  SER386     -0.1202
    127  CA       -27.8440   -3.3110   40.4310 C.3   386  SER386      0.2020
    128  C        -28.1560   -4.5220   39.5560 C.2   386  SER386      0.2618
    129  O        -27.9580   -4.4910   38.3390 O.2   386  SER386     -0.2717
    130  CB       -26.4770   -3.4780   41.0950 C.3   386  SER386      0.2103
    131  OG       -25.4860   -3.8020   40.1370 O.3   386  SER386     -0.2182
    132  N        -28.6510   -5.5850   40.1800 N.am  387  ALA387     -0.1979
    133  CA       -29.0080   -6.7990   39.4580 C.3   387  ALA387      0.1597
    134  C        -30.2540   -6.5940   38.5940 C.2   387  ALA387      0.2287
    135  O        -30.3680   -7.1660   37.5110 O.2   387  ALA387     -0.2864
    136  CB       -29.2100   -7.9500   40.4290 C.3   387  ALA387      0.0319
    137  N        -29.3840   -4.5570   35.3530 N.3   390  ALA390     -0.1245
    138  CA       -28.8160   -5.4310   34.3370 C.3   390  ALA390      0.1562
    139  C        -29.9100   -6.2520   33.6700 C.2   390  ALA390      0.2260
    140  O        -30.0630   -6.2160   32.4510 O.2   390  ALA390     -0.2867
    141  CB       -27.7760   -6.3450   34.9440 C.3   390  ALA390      0.0290
@<TRIPOS>BOND
     1   140   139    2
     2    47    46    2
     3    41    40    2
     4   139   138    1
     5    46    45    1
     6   138   141    1
     7   138   137    1
     8    40    44   am
     9    40    39    1
    10    45    44    1
    11    45    48    1
    12    12    10    1
    13    50    52   ar
    14    50    49   ar
    15    39    42    1
    16    39    38    1
    17    48    49    1
    18    52    54   ar
    19    42    43    1
    20    49    51   ar
    21    10     9    1
    22    54    55    1
    23    54    53   ar
    24   135   134    2
    25     9    11    1
    26     9     6    1
    27    51    53   ar
    28     1     2    1
    29    34    33    2
    30   129   128    2
    31     5     6    1
    32     5     3   am
    33   134   133    1
    34     2     3    1
    35    67    66    2
    36     6     7    1
    37     3     4    2
    38   133   132    1
    39   133   136    1
    40    33    32    1
    41   128   132   am
    42   128   127    1
    43    79    77    1
    44     7     8    2
    45    72    73    1
    46    66    65    1
    47    28    27    2
    48    77    76    1
    49   131   130    1
    50   127   130    1
    51   127   126    1
    52    32    35    1
    53    32    31    1
    54    76    73    1
    55    76    78    1
    56    65    64    1
    57    65    68    1
    58    86    88   ar
    59    86    85   ar
    60    88    89   ar
    61    73    74    1
    62    27    31   am
    63    27    26    1
    64    85    84    1
    65    85    87   ar
    66    84    81    1
    67    35    36    1
    68    80    74   am
    69    80    81    1
    70    70    69    2
    71    89    87   ar
    72    89    91   ar
    73    68    69    1
    74    31    37    1
    75    87    90   ar
    76    91    93   ar
    77    74    75    2
    78    26    29    1
    79    26    25    1
    80    69    71   am
    81    81    82    1
    82    90    92   ar
    83    93    92   ar
    84    36    37    1
    85    29    30    1
    86    82    83    2
    87    13    14    1
    88   122   121    2
    89    59    58    2
    90    14    15    1
    91   116   115    2
    92   121   120    1
    93    15    16    2
    94    58    57    1
    95   120   119    1
    96   120   123    1
    97   124   123    1
    98   115   119   am
    99   115   114    1
   100    94    95    1
   101    57    56    1
   102    57    60    1
   103    20    19    2
   104   123   125    1
   105    62    61    1
   106    98    95    1
   107    98    99    1
   108    61    60    1
   109    61    63    1
   110   114   117    1
   111   114   113    1
   112    95    96    1
   113    19    18    1
   114   117   118    1
   115    99   101   ar
   116    99   100   ar
   117   101   103   ar
   118    18    17    1
   119    18    21    1
   120    96    97    2
   121   100   102   ar
   122   103   104   ar
   123    23    21    1
   124   102   104   ar
   125    21    22    1
   126   108   107    2
   127    22    24    1
   128   111   110    1
   129   111   112    1
   130   107   106    1
   131   106   105    1
   132   106   109    1
   133   110   109    1
