@<TRIPOS>MOLECULE
tmp/6ffiA07.pdb
 80 73 0 0 0
SMALL
GASTEIGER

@<TRIPOS>ATOM
      1  N        -35.7800  -13.1590   41.6790 N.3    24  LEU24      -0.1245
      2  CA       -35.5070  -14.5550   41.3570 C.3    24  LEU24       0.1561
      3  C        -36.5080  -15.1310   40.3580 C.2    24  LEU24       0.2260
      4  O        -36.1330  -15.8980   39.4710 O.2    24  LEU24      -0.2867
      5  CB       -35.5050  -15.4010   42.6280 C.3    24  LEU24       0.0270
      6  CG       -34.2340  -15.3390   43.4720 C.3    24  LEU24       0.0019
      7  CD1      -34.3950  -16.1790   44.7310 C.3    24  LEU24       0.0001
      8  CD2      -33.0350  -15.8030   42.6520 C.3    24  LEU24       0.0001
      9  N        -35.7500  -13.5850   36.8360 N.3    27  THR27      -0.1203
     10  CA       -34.5310  -14.1730   36.2910 C.3    27  THR27       0.1994
     11  C        -34.8070  -15.5970   35.8250 C.2    27  THR27       0.2617
     12  O        -34.2870  -16.0430   34.7980 O.2    27  THR27      -0.2717
     13  CB       -33.3940  -14.2060   37.3360 C.3    27  THR27       0.1784
     14  OG1      -33.2060  -12.8980   37.8900 O.3    27  THR27      -0.2211
     15  CG2      -32.0970  -14.6790   36.6940 C.3    27  THR27       0.0376
     16  N        -35.6380  -16.2960   36.5940 N.am   28  LEU28      -0.1979
     17  CA       -36.0650  -17.6530   36.2650 C.3    28  LEU28       0.1596
     18  C        -36.9100  -17.6790   34.9940 C.2    28  LEU28       0.2287
     19  O        -36.7620  -18.5720   34.1600 O.2    28  LEU28      -0.2864
     20  CB       -36.8640  -18.2450   37.4270 C.3    28  LEU28       0.0297
     21  CG       -37.5390  -19.6010   37.2180 C.3    28  LEU28       0.0022
     22  CD1      -36.5130  -20.7210   37.2220 C.3    28  LEU28       0.0001
     23  CD2      -38.6040  -19.8340   38.2780 C.3    28  LEU28       0.0001
     24  N        -34.4830  -16.9060   32.0320 N.3    31  THR31      -0.1218
     25  CA       -33.5730  -18.0130   31.7530 C.3    31  THR31       0.1862
     26  C        -34.2550  -19.1210   30.9500 C.2    31  THR31       0.2287
     27  O        -33.7160  -19.5940   29.9490 O.2    31  THR31      -0.2866
     28  CB       -32.9830  -18.6090   33.0480 C.3    31  THR31       0.1770
     29  OG1      -32.2440  -17.6000   33.7480 O.3    31  THR31      -0.2211
     30  CG2      -32.0620  -19.7750   32.7260 C.3    31  THR31       0.0375
     31  N        -33.6840  -20.7890   27.2420 N.3    35  ILE35      -0.1245
     32  CA       -33.4160  -22.2080   27.0420 C.3    35  ILE35       0.1561
     33  C        -34.2340  -22.7450   25.8710 C.2    35  ILE35       0.2260
     34  O        -33.6870  -23.3470   24.9470 O.2    35  ILE35      -0.2867
     35  CB       -33.7080  -23.0210   28.3190 C.3    35  ILE35       0.0252
     36  CG1      -32.5120  -22.9420   29.2720 C.3    35  ILE35       0.0019
     37  CG2      -34.0130  -24.4740   27.9790 C.3    35  ILE35       0.0019
     38  CD1      -32.8780  -23.0840   30.7300 C.3    35  ILE35       0.0001
     39  N        -33.4120  -20.7990   22.4230 N.3    38  ARG38      -0.1245
     40  CA       -32.0060  -20.7330   22.0410 C.3    38  ARG38       0.1563
     41  C        -31.8490  -21.1220   20.5730 C.2    38  ARG38       0.2260
     42  O        -30.8070  -20.8840   19.9640 O.2    38  ARG38      -0.2867
     43  CB       -31.1610  -21.6580   22.9220 C.3    38  ARG38       0.0307
     44  CG       -31.3730  -23.1420   22.6480 C.3    38  ARG38       0.0489
     45  CD       -30.5760  -24.0200   23.6060 C.3    38  ARG38       0.2205
     46  NE       -30.7700  -25.4430   23.3300 N.pl3  38  ARG38      -0.0865
     47  CZ       -31.7860  -26.1670   23.7950 C.cat  38  ARG38       0.5346
     48  NH1      -32.7100  -25.6050   24.5640 N.pl3  38  ARG38       0.1354
     49  NH2      -31.8810  -27.4540   23.4870 N.pl3  38  ARG38       0.1354
     50  N        -25.5150  -17.0130   30.1660 N.3    52  TYR52      -0.1241
     51  CA       -25.8710  -17.8310   31.3170 C.3    52  TYR52       0.1605
     52  C        -25.0510  -17.4380   32.5440 C.2    52  TYR52       0.2264
     53  O        -25.5690  -17.4230   33.6580 O.2    52  TYR52      -0.2867
     54  CB       -25.6580  -19.3110   30.9970 C.3    52  TYR52       0.0534
     55  CG       -26.5830  -19.8630   29.9330 C.ar   52  TYR52      -0.0201
     56  CD1      -27.9440  -19.5880   29.9540 C.ar   52  TYR52      -0.0009
     57  CD2      -26.0930  -20.6630   28.9080 C.ar   52  TYR52      -0.0009
     58  CE1      -28.7930  -20.0970   28.9830 C.ar   52  TYR52       0.0417
     59  CE2      -26.9310  -21.1740   27.9350 C.ar   52  TYR52       0.0417
     60  CZ       -28.2780  -20.8890   27.9760 C.ar   52  TYR52       0.1957
     61  OH       -29.1100  -21.4000   27.0070 O.3    52  TYR52      -0.2866
     62  N        -26.5660  -14.2650   33.8650 N.3    55  LEU55      -0.1231
     63  CA       -27.8350  -14.5440   34.5340 C.3    55  LEU55       0.1693
     64  C        -27.6160  -15.2230   35.8840 C.2    55  LEU55       0.2591
     65  O        -28.3140  -14.9320   36.8560 O.2    55  LEU55      -0.2718
     66  CB       -28.7370  -15.4040   33.6470 C.3    55  LEU55       0.0284
     67  CG       -29.3930  -14.6910   32.4620 C.3    55  LEU55       0.0019
     68  CD1      -30.0070  -15.6920   31.4990 C.3    55  LEU55       0.0001
     69  CD2      -30.4460  -13.7030   32.9460 C.3    55  LEU55       0.0001
     70  N        -26.6470  -16.1310   35.9310 N.am   56  ALA56      -0.1980
     71  CA       -26.2840  -16.8030   37.1730 C.3    56  ALA56       0.1597
     72  C        -25.8270  -15.7890   38.2190 C.2    56  ALA56       0.2287
     73  O        -26.2100  -15.8680   39.3880 O.2    56  ALA56      -0.2864
     74  CB       -25.1950  -17.8310   36.9170 C.3    56  ALA56       0.0319
     75  N        -28.7460  -13.8570   39.5090 N.3    59  CYS59      -0.1235
     76  CA       -29.4720  -14.7530   40.3990 C.3    59  CYS59       0.1677
     77  C        -28.8460  -14.7950   41.7900 C.2    59  CYS59       0.2270
     78  O        -29.5420  -14.6740   42.7970 O.2    59  CYS59      -0.2867
     79  CB       -29.5060  -16.1590   39.8020 C.3    59  CYS59       0.0956
     80  SG       -29.8900  -17.4680   40.9770 S.3    59  CYS59      -0.0801
@<TRIPOS>BOND
     1    42    41    2
     2    41    40    1
     3    40    39    1
     4    40    43    1
     5    44    43    1
     6    44    45    1
     7    46    45    1
     8    46    47    2
     9    49    47    1
    10    47    48    1
    11    34    33    2
    12    33    32    1
    13    61    60    1
    14    32    31    1
    15    32    35    1
    16    59    60   ar
    17    59    57   ar
    18    60    58   ar
    19    37    35    1
    20    35    36    1
    21    57    55   ar
    22    58    56   ar
    23    36    38    1
    24    55    56   ar
    25    55    54    1
    26    27    26    2
    27    50    51    1
    28    26    25    1
    29    54    51    1
    30    51    52    1
    31    68    67    1
    32    25    24    1
    33    25    28    1
    34    67    69    1
    35    67    66    1
    36    52    53    2
    37    30    28    1
    38    28    29    1
    39    66    63    1
    40    62    63    1
    41    19    18    2
    42    63    64    1
    43    12    11    2
    44    18    17    1
    45    11    10    1
    46    11    16   am
    47    64    70   am
    48    64    65    2
    49    70    71    1
    50    17    16    1
    51    17    20    1
    52    10     9    1
    53    10    13    1
    54    15    13    1
    55    74    71    1
    56    71    72    1
    57    21    22    1
    58    21    20    1
    59    21    23    1
    60    13    14    1
    61    72    73    2
    62     4     3    2
    63    75    76    1
    64    79    76    1
    65    79    80    1
    66     3     2    1
    67    76    77    1
    68     2     1    1
    69     2     5    1
    70    77    78    2
    71     5     6    1
    72     8     6    1
    73     6     7    1
