@<TRIPOS>MOLECULE
tmp/6fflA02.pdb
 143 140 0 0 0
SMALL
GASTEIGER

@<TRIPOS>ATOM
      1  N         15.9840   35.4980   34.6450 N.3     8  GLN8       -0.1231
      2  CA        16.0900   34.5910   33.5080 C.3     8  GLN8        0.1698
      3  C         16.3130   33.1440   33.9670 C.2     8  GLN8        0.2592
      4  O         17.0130   32.3620   33.3100 O.2     8  GLN8       -0.2718
      5  CB        17.1890   35.0500   32.5360 C.3     8  GLN8        0.0381
      6  CG        18.5250   35.5050   33.1630 C.3     8  GLN8        0.0905
      7  CD        19.2700   34.3480   33.8000 C.2     8  GLN8        0.2608
      8  OE1       19.0660   34.0410   34.9850 O.2     8  GLN8       -0.2717
      9  NE2       20.1190   33.6800   33.0140 N.am    8  GLN8       -0.0878
     10  N         15.6830   32.7590   35.0820 N.am    9  MET9       -0.1965
     11  CA        15.8900   31.4360   35.6740 C.3     9  MET9        0.1736
     12  C         15.1320   30.3420   34.9320 C.2     9  MET9        0.2616
     13  O         13.9130   30.4270   34.7490 O.2     9  MET9       -0.2715
     14  CB        15.4510   31.4240   37.1410 C.3     9  MET9        0.0427
     15  CG        16.2920   32.2930   38.0440 C.3     9  MET9        0.0599
     16  SD        15.8690   31.9640   39.7690 S.3     9  MET9       -0.1393
     17  CE        16.6890   33.3490   40.5600 C.3     9  MET9        0.0692
     18  N         15.8600   29.2700   34.5930 N.am   10  ILE10      -0.1977
     19  CA        15.2890   28.0790   33.9940 C.3    10  ILE10       0.1596
     20  C         14.2850   27.4170   34.9460 C.2    10  ILE10       0.2287
     21  O         14.2920   27.6410   36.1630 O.2    10  ILE10      -0.2864
     22  CB        16.4450   27.1240   33.6500 C.3    10  ILE10       0.0276
     23  CG1       16.0250   26.0440   32.6570 C.3    10  ILE10       0.0022
     24  CG2       17.0060   26.4900   34.9270 C.3    10  ILE10       0.0022
     25  CD1       17.1550   25.0660   32.3560 C.3    10  ILE10       0.0001
     26  N         15.2050   26.1200   38.4450 N.3    13  HIS13      -0.1241
     27  CA        15.6470   27.1850   39.3410 C.3    13  HIS13       0.1621
     28  C         14.4960   28.1110   39.7110 C.2    13  HIS13       0.2264
     29  O         14.4040   28.5580   40.8580 O.2    13  HIS13      -0.2867
     30  CB        16.7830   28.0000   38.7030 C.3    13  HIS13       0.0745
     31  CG        18.0800   27.2550   38.5980 C.ar   13  HIS13       0.0817
     32  ND1       19.3030   27.8620   38.8010 N.ar   13  HIS13      -0.2268
     33  CD2       18.3450   25.9610   38.2960 C.ar   13  HIS13       0.1154
     34  CE1       20.2630   26.9690   38.6360 C.ar   13  HIS13       0.1986
     35  NE2       19.7080   25.8110   38.3250 N.ar   13  HIS13      -0.2212
     36  N          9.6450   35.9420   34.3980 N.3    37  TYR37      -0.1241
     37  CA        10.7160   35.2930   33.6560 C.3    37  TYR37       0.1605
     38  C         10.8720   35.9360   32.2850 C.2    37  TYR37       0.2264
     39  O          9.8890   36.0940   31.5520 O.2    37  TYR37      -0.2867
     40  CB        10.4300   33.7980   33.4680 C.3    37  TYR37       0.0534
     41  CG        11.4010   33.1590   32.4880 C.ar   37  TYR37      -0.0201
     42  CD1       12.6640   32.7590   32.9030 C.ar   37  TYR37      -0.0009
     43  CD2       11.0640   32.9830   31.1420 C.ar   37  TYR37      -0.0009
     44  CE1       13.5690   32.2030   32.0190 C.ar   37  TYR37       0.0417
     45  CE2       11.9700   32.4170   30.2500 C.ar   37  TYR37       0.0417
     46  CZ        13.2100   32.0270   30.7010 C.ar   37  TYR37       0.1957
     47  OH        14.1110   31.4690   29.8300 O.3    37  TYR37      -0.2866
     48  N         13.7960   35.3700   28.9720 N.3    39  GLU39      -0.1231
     49  CA        15.0230   34.7410   28.5130 C.3    39  GLU39       0.1699
     50  C         16.1490   35.7640   28.5460 C.2    39  GLU39       0.2592
     51  O         15.9230   36.9600   28.3560 O.2    39  GLU39      -0.2718
     52  CB        14.8430   34.1800   27.0990 C.3    39  GLU39       0.0402
     53  CG        15.9470   33.1920   26.6960 C.3    39  GLU39       0.1161
     54  CD        17.2130   33.8570   26.1580 C.2    39  GLU39       0.3649
     55  OE1       18.2990   33.2210   26.2390 O.co2  39  GLU39      -0.2457
     56  OE2       17.1220   35.0010   25.6490 O.co2  39  GLU39      -0.2457
     57  N         17.3700   35.2720   28.8030 N.am   40  THR40      -0.1953
     58  CA        18.5430   36.1070   29.0690 C.3    40  THR40       0.1897
     59  C         18.6700   37.3400   28.1720 C.2    40  THR40       0.2313
     60  O         18.8380   38.4590   28.6700 O.2    40  THR40      -0.2863
     61  CB        19.8040   35.2420   28.9470 C.3    40  THR40       0.1794
     62  OG1       19.8400   34.3250   30.0460 O.3    40  THR40      -0.2208
     63  CG2       21.0730   36.1040   28.9630 C.3    40  THR40       0.0378
     64  N         23.0320   37.1120   34.2590 N.3    63  PRO63      -0.2116
     65  CA        24.4760   36.8300   34.2270 C.3    63  PRO63       0.1372
     66  C         25.3060   38.0680   34.5180 C.2    63  PRO63       0.2244
     67  O         24.8960   39.1980   34.2500 O.2    63  PRO63      -0.2868
     68  CB        24.7230   36.3410   32.7930 C.3    63  PRO63       0.0268
     69  CG        23.3650   36.0650   32.2110 C.3    63  PRO63       0.0207
     70  CD        22.3740   36.8950   32.9560 C.3    63  PRO63       0.0892
     71  N         27.8930   28.9820   36.2450 N.3   112  ASN112     -0.1240
     72  CA        27.4570   29.4760   34.9420 C.3   112  ASN112      0.1653
     73  C         28.3440   28.9550   33.8190 C.2   112  ASN112      0.2266
     74  O         28.4480   29.5770   32.7640 O.2   112  ASN112     -0.2867
     75  CB        27.4080   31.0140   34.9290 C.3   112  ASN112      0.1155
     76  CG        26.4750   31.5440   33.8690 C.2   112  ASN112      0.2627
     77  OD1       25.3300   31.1050   33.7780 O.2   112  ASN112     -0.2716
     78  ND2       26.9600   32.4750   33.0490 N.am  112  ASN112     -0.0877
     79  N         23.6940   24.1020   21.7240 N.3   158  ASN158     -0.1240
     80  CA        23.1940   25.3320   21.1260 C.3   158  ASN158      0.1653
     81  C         24.3640   26.0570   20.4620 C.2   158  ASN158      0.2266
     82  O         24.7710   27.1470   20.8560 O.2   158  ASN158     -0.2867
     83  CB        22.5230   26.1900   22.1940 C.3   158  ASN158      0.1155
     84  CG        21.8060   27.3900   21.6150 C.2   158  ASN158      0.2627
     85  OD1       21.4990   27.4270   20.4200 O.2   158  ASN158     -0.2716
     86  ND2       21.5460   28.3860   22.4550 N.am  158  ASN158     -0.0877
     87  N         27.9940   32.1130   23.4120 N.3   163  PHE163     -0.1227
     88  CA        28.4510   31.5480   24.6810 C.3   163  PHE163      0.1736
     89  C         28.8980   30.1030   24.5100 C.2   163  PHE163      0.2595
     90  O         29.8540   29.6620   25.1590 O.2   163  PHE163     -0.2718
     91  CB        27.3260   31.6360   25.7130 C.3   163  PHE163      0.0547
     92  CG        27.7800   31.4570   27.1420 C.ar  163  PHE163     -0.0202
     93  CD1       28.5990   32.4020   27.7530 C.ar  163  PHE163     -0.0042
     94  CD2       27.3600   30.3570   27.8750 C.ar  163  PHE163     -0.0042
     95  CE1       28.9930   32.2640   29.0890 C.ar  163  PHE163     -0.0003
     96  CE2       27.7480   30.1950   29.2050 C.ar  163  PHE163     -0.0003
     97  CZ        28.5770   31.1550   29.8120 C.ar  163  PHE163     -0.0000
     98  N         28.2380   29.3670   23.6180 N.am  164  PHE164     -0.1976
     99  CA        28.4930   27.9380   23.4930 C.3   164  PHE164      0.1639
    100  C         29.6860   27.6190   22.5980 C.2   164  PHE164      0.2290
    101  O         30.2400   26.5170   22.7100 O.2   164  PHE164     -0.2864
    102  CB        27.2290   27.2430   22.9930 C.3   164  PHE164      0.0560
    103  CG        26.1220   27.1970   24.0200 C.ar  164  PHE164     -0.0200
    104  CD1       25.3400   28.3190   24.2800 C.ar  164  PHE164     -0.0042
    105  CD2       25.8760   26.0320   24.7370 C.ar  164  PHE164     -0.0042
    106  CE1       24.3250   28.2790   25.2380 C.ar  164  PHE164     -0.0003
    107  CE2       24.8580   25.9870   25.6960 C.ar  164  PHE164     -0.0003
    108  CZ        24.0890   27.1080   25.9410 C.ar  164  PHE164     -0.0000
    109  N         18.5860   25.8130   21.6740 N.3   214  TYR214     -0.1241
    110  CA        18.7590   25.3560   23.0490 C.3   214  TYR214      0.1605
    111  C         17.7260   24.2980   23.4140 C.2   214  TYR214      0.2264
    112  O         18.0650   23.2400   23.9630 O.2   214  TYR214     -0.2867
    113  CB        18.6850   26.5230   24.0350 C.3   214  TYR214      0.0534
    114  CG        18.9330   26.0540   25.4600 C.ar  214  TYR214     -0.0201
    115  CD1       20.2210   26.0440   25.9910 C.ar  214  TYR214     -0.0009
    116  CD2       17.8870   25.6010   26.2620 C.ar  214  TYR214     -0.0009
    117  CE1       20.4570   25.6020   27.2960 C.ar  214  TYR214      0.0417
    118  CE2       18.1120   25.1530   27.5580 C.ar  214  TYR214      0.0417
    119  CZ        19.4010   25.1510   28.0640 C.ar  214  TYR214      0.1957
    120  OH        19.6150   24.7110   29.3530 O.3   214  TYR214     -0.2866
    121  N         23.3990   25.3690   35.1510 N.3   234  TRP234     -0.1241
    122  CA        21.9870   25.6810   35.3640 C.3   234  TRP234      0.1605
    123  C         21.0710   24.5410   34.9410 C.2   234  TRP234      0.2264
    124  O         19.8990   24.5300   35.3380 O.2   234  TRP234     -0.2867
    125  CB        21.5810   26.9360   34.5720 C.3   234  TRP234      0.0550
    126  CG        21.8440   26.7750   33.0890 C.ar  234  TRP234      0.0003
    127  CD1       21.0550   26.1300   32.1770 C.ar  234  TRP234      0.0946
    128  CD2       23.0010   27.2340   32.3650 C.ar  234  TRP234      0.0152
    129  NE1       21.6440   26.1650   30.9320 N.ar  234  TRP234     -0.2442
    130  CE2       22.8350   26.8380   31.0200 C.ar  234  TRP234      0.0810
    131  CE3       24.1490   27.9520   32.7230 C.ar  234  TRP234      0.0012
    132  CZ2       23.7810   27.1330   30.0310 C.ar  234  TRP234      0.0191
    133  CZ3       25.0980   28.2420   31.7350 C.ar  234  TRP234      0.0001
    134  CH2       24.9060   27.8290   30.4110 C.ar  234  TRP234      0.0015
    135  N         25.2840   34.3830   38.2280 N.3   268  LYS268     -0.1245
    136  CA        24.0800   35.1360   37.9070 C.3   268  LYS268      0.1561
    137  C         23.6000   35.7420   39.2170 C.2   268  LYS268      0.2260
    138  O         23.6010   35.0650   40.2470 O.2   268  LYS268     -0.2867
    139  CB        23.0120   34.2360   37.2600 C.3   268  LYS268      0.0271
    140  CG        23.4670   33.5920   35.9260 C.3   268  LYS268      0.0035
    141  CD        22.4740   32.5470   35.4360 C.3   268  LYS268      0.0206
    142  CE        22.5700   31.2560   36.2610 C.3   268  LYS268      0.1093
    143  NZ        23.9150   30.6040   36.1600 N.3   268  LYS268     -0.1314
@<TRIPOS>BOND
     1    85    84    2
     2    81    82    2
     3    81    80    1
     4    80    79    1
     5    80    83    1
     6    84    83    1
     7    84    86   am
     8   109   110    1
     9   100   101    2
    10   100    99    1
    11   102    99    1
    12   102   103    1
    13   110   111    1
    14   110   113    1
    15    87    88    1
    16   111   112    2
    17    99    98    1
    18    98    89   am
    19   103   104   ar
    20   103   105   ar
    21   113   114    1
    22   104   106   ar
    23    89    88    1
    24    89    90    2
    25    88    91    1
    26   105   107   ar
    27   106   108   ar
    28   114   115   ar
    29   114   116   ar
    30    56    54   ar
    31   107   108   ar
    32    91    92    1
    33   115   117   ar
    34    54    55   ar
    35    54    53    1
    36   116   118   ar
    37    53    52    1
    38    52    49    1
    39    92    93   ar
    40    92    94   ar
    41   117   119   ar
    42   118   119   ar
    43    93    95   ar
    44    94    96   ar
    45   119   120    1
    46    59    60    2
    47    59    58    1
    48    51    50    2
    49    49    50    1
    50    49    48    1
    51    50    57   am
    52    57    58    1
    53    61    63    1
    54    61    58    1
    55    61    62    1
    56    95    97   ar
    57    96    97   ar
    58    47    46    1
    59   132   134   ar
    60   132   130   ar
    61    45    46   ar
    62    45    43   ar
    63   134   133   ar
    64    46    44   ar
    65   129   130   ar
    66   129   127   ar
    67   130   128   ar
    68    43    41   ar
    69    39    38    2
    70   133   131   ar
    71    44    42   ar
    72   127   126   ar
    73    69    68    1
    74    69    70    1
    75    38    37    1
    76    25    23    1
    77   128   131   ar
    78   128   126   ar
    79    41    42   ar
    80    41    40    1
    81     5     6    1
    82     5     2    1
    83    23    22    1
    84    74    73    2
    85    68    65    1
    86    70    64    1
    87     9     7   am
    88    78    76   am
    89   126   125    1
    90     6     7    1
    91     4     3    2
    92    40    37    1
    93     2     3    1
    94     2     1    1
    95    22    19    1
    96    22    24    1
    97    37    36    1
    98    77    76    2
    99     7     8    2
   100    73    72    1
   101    76    75    1
   102     3    10   am
   103    19    18    1
   104    19    20    1
   105    65    64    1
   106    65    66    1
   107    67    66    2
   108   125   122    1
   109    18    12   am
   110    13    12    2
   111    75    72    1
   112    12    11    1
   113   123   124    2
   114   123   122    1
   115    72    71    1
   116    20    21    2
   117    10    11    1
   118   121   122    1
   119   141   140    1
   120   141   142    1
   121    11    14    1
   122   140   139    1
   123   143   142    1
   124    14    15    1
   125   139   136    1
   126   136   135    1
   127   136   137    1
   128    15    16    1
   129    33    35   ar
   130    33    31   ar
   131    35    34   ar
   132    26    27    1
   133    31    30    1
   134    31    32   ar
   135    34    32   ar
   136    30    27    1
   137   137   138    2
   138    27    28    1
   139    28    29    2
   140    16    17    1
