@<TRIPOS>MOLECULE
tmp/6fflA01.pdb
 153 148 0 0 0
SMALL
GASTEIGER

@<TRIPOS>ATOM
      1  N         15.9840   35.4980   34.6450 N.3     8  GLN8       -0.1245
      2  CA        16.0900   34.5910   33.5080 C.3     8  GLN8        0.1566
      3  C         16.3130   33.1440   33.9670 C.2     8  GLN8        0.2260
      4  O         17.0130   32.3620   33.3100 O.2     8  GLN8       -0.2867
      5  CB        17.1890   35.0500   32.5360 C.3     8  GLN8        0.0367
      6  CG        18.5250   35.5050   33.1630 C.3     8  GLN8        0.0905
      7  CD        19.2700   34.3480   33.8000 C.2     8  GLN8        0.2608
      8  OE1       19.0660   34.0410   34.9850 O.2     8  GLN8       -0.2717
      9  NE2       20.1190   33.6800   33.0140 N.am    8  GLN8       -0.0878
     10  N         13.7960   35.3700   28.9720 N.3    39  GLU39      -0.1231
     11  CA        15.0230   34.7410   28.5130 C.3    39  GLU39       0.1699
     12  C         16.1490   35.7640   28.5460 C.2    39  GLU39       0.2593
     13  O         15.9230   36.9600   28.3560 O.2    39  GLU39      -0.2718
     14  CB        14.8430   34.1800   27.0990 C.3    39  GLU39       0.0402
     15  CG        15.9470   33.1920   26.6960 C.3    39  GLU39       0.1161
     16  CD        17.2130   33.8570   26.1580 C.2    39  GLU39       0.3649
     17  OE1       18.2990   33.2210   26.2390 O.co2  39  GLU39      -0.2457
     18  OE2       17.1220   35.0010   25.6490 O.co2  39  GLU39      -0.2457
     19  N         17.3700   35.2720   28.8030 N.am   40  THR40      -0.1939
     20  CA        18.5430   36.1070   29.0690 C.3    40  THR40       0.2028
     21  C         18.6700   37.3400   28.1720 C.2    40  THR40       0.2642
     22  O         18.8380   38.4590   28.6700 O.2    40  THR40      -0.2714
     23  CB        19.8040   35.2420   28.9470 C.3    40  THR40       0.1808
     24  OG1       19.8400   34.3250   30.0460 O.3    40  THR40      -0.2208
     25  CG2       21.0730   36.1040   28.9630 C.3    40  THR40       0.0379
     26  N         18.6030   37.1550   26.8480 N.am   41  GLU41      -0.1976
     27  CA        18.7310   38.2950   25.9370 C.3    41  GLU41       0.1602
     28  C         17.5930   39.2880   26.1290 C.2    41  GLU41       0.2287
     29  O         17.8150   40.5030   26.2070 O.2    41  GLU41      -0.2864
     30  CB        18.7850   37.8020   24.4860 C.3    41  GLU41       0.0415
     31  CG        19.7970   36.7020   24.2720 C.3    41  GLU41       0.1163
     32  CD        21.2010   37.1500   24.6270 C.2    41  GLU41       0.3649
     33  OE1       21.8960   36.4140   25.3510 O.co2  41  GLU41      -0.2457
     34  OE2       21.6130   38.2370   24.1670 O.co2  41  GLU41      -0.2457
     35  N         23.0320   37.1120   34.2590 N.3    63  PRO63      -0.2116
     36  CA        24.4760   36.8300   34.2270 C.3    63  PRO63       0.1372
     37  C         25.3060   38.0680   34.5180 C.2    63  PRO63       0.2244
     38  O         24.8960   39.1980   34.2500 O.2    63  PRO63      -0.2868
     39  CB        24.7230   36.3410   32.7930 C.3    63  PRO63       0.0268
     40  CG        23.3650   36.0650   32.2110 C.3    63  PRO63       0.0207
     41  CD        22.3740   36.8950   32.9560 C.3    63  PRO63       0.0892
     42  N         27.8140   39.5190   33.1800 N.3    65  ASP65      -0.1239
     43  CA        28.2250   40.5220   32.2050 C.3    65  ASP65       0.1674
     44  C         27.1590   41.5820   31.9710 C.2    65  ASP65       0.2266
     45  O         27.4500   42.5880   31.3100 O.2    65  ASP65      -0.2867
     46  CB        28.6760   39.8800   30.8740 C.3    65  ASP65       0.1410
     47  CG        27.6000   39.0300   30.2110 C.2    65  ASP65       0.3668
     48  OD1       27.5200   39.0530   28.9600 O.co2  65  ASP65      -0.2456
     49  OD2       26.8870   38.2920   30.9280 O.co2  65  ASP65      -0.2456
     50  N         27.8930   28.9820   36.2450 N.3   112  ASN112     -0.1240
     51  CA        27.4570   29.4760   34.9420 C.3   112  ASN112      0.1653
     52  C         28.3440   28.9550   33.8190 C.2   112  ASN112      0.2266
     53  O         28.4480   29.5770   32.7640 O.2   112  ASN112     -0.2867
     54  CB        27.4080   31.0140   34.9290 C.3   112  ASN112      0.1155
     55  CG        26.4750   31.5440   33.8690 C.2   112  ASN112      0.2627
     56  OD1       25.3300   31.1050   33.7780 O.2   112  ASN112     -0.2716
     57  ND2       26.9600   32.4750   33.0490 N.am  112  ASN112     -0.0877
     58  N         23.6940   24.1020   21.7240 N.3   158  ASN158     -0.1240
     59  CA        23.1940   25.3320   21.1260 C.3   158  ASN158      0.1653
     60  C         24.3640   26.0570   20.4620 C.2   158  ASN158      0.2266
     61  O         24.7710   27.1470   20.8560 O.2   158  ASN158     -0.2867
     62  CB        22.5230   26.1900   22.1940 C.3   158  ASN158      0.1155
     63  CG        21.8060   27.3900   21.6150 C.2   158  ASN158      0.2627
     64  OD1       21.4990   27.4270   20.4200 O.2   158  ASN158     -0.2716
     65  ND2       21.5460   28.3860   22.4550 N.am  158  ASN158     -0.0877
     66  N         24.8230   29.8790   19.3720 N.3   161  GLU161     -0.1245
     67  CA        24.8740   30.9070   20.4070 C.3   161  GLU161      0.1567
     68  C         26.3210   31.1390   20.8200 C.2   161  GLU161      0.2260
     69  O         27.0070   30.1880   21.1690 O.2   161  GLU161     -0.2867
     70  CB        24.0400   30.4570   21.6060 C.3   161  GLU161      0.0388
     71  CG        23.8790   31.4860   22.7120 C.3   161  GLU161      0.1160
     72  CD        23.1060   32.7130   22.2860 C.2   161  GLU161      0.3649
     73  OE1       22.2020   32.5830   21.4340 O.co2 161  GLU161     -0.2457
     74  OE2       23.4010   33.8250   22.7930 O.co2 161  GLU161     -0.2457
     75  N         27.9940   32.1130   23.4120 N.3   163  PHE163     -0.1227
     76  CA        28.4510   31.5480   24.6810 C.3   163  PHE163      0.1736
     77  C         28.8980   30.1030   24.5100 C.2   163  PHE163      0.2595
     78  O         29.8540   29.6620   25.1590 O.2   163  PHE163     -0.2718
     79  CB        27.3260   31.6360   25.7130 C.3   163  PHE163      0.0547
     80  CG        27.7800   31.4570   27.1420 C.ar  163  PHE163     -0.0202
     81  CD1       28.5990   32.4020   27.7530 C.ar  163  PHE163     -0.0042
     82  CD2       27.3600   30.3570   27.8750 C.ar  163  PHE163     -0.0042
     83  CE1       28.9930   32.2640   29.0890 C.ar  163  PHE163     -0.0003
     84  CE2       27.7480   30.1950   29.2050 C.ar  163  PHE163     -0.0003
     85  CZ        28.5770   31.1550   29.8120 C.ar  163  PHE163     -0.0000
     86  N         28.2380   29.3670   23.6180 N.am  164  PHE164     -0.1976
     87  CA        28.4930   27.9380   23.4930 C.3   164  PHE164      0.1639
     88  C         29.6860   27.6190   22.5980 C.2   164  PHE164      0.2290
     89  O         30.2400   26.5170   22.7100 O.2   164  PHE164     -0.2864
     90  CB        27.2290   27.2430   22.9930 C.3   164  PHE164      0.0560
     91  CG        26.1220   27.1970   24.0200 C.ar  164  PHE164     -0.0200
     92  CD1       25.3400   28.3190   24.2800 C.ar  164  PHE164     -0.0042
     93  CD2       25.8760   26.0320   24.7370 C.ar  164  PHE164     -0.0042
     94  CE1       24.3250   28.2790   25.2380 C.ar  164  PHE164     -0.0003
     95  CE2       24.8580   25.9870   25.6960 C.ar  164  PHE164     -0.0003
     96  CZ        24.0890   27.1080   25.9410 C.ar  164  PHE164     -0.0000
     97  N         18.5860   25.8130   21.6740 N.3   214  TYR214     -0.1241
     98  CA        18.7590   25.3560   23.0490 C.3   214  TYR214      0.1605
     99  C         17.7260   24.2980   23.4140 C.2   214  TYR214      0.2264
    100  O         18.0650   23.2400   23.9630 O.2   214  TYR214     -0.2867
    101  CB        18.6850   26.5230   24.0350 C.3   214  TYR214      0.0534
    102  CG        18.9330   26.0540   25.4600 C.ar  214  TYR214     -0.0201
    103  CD1       20.2210   26.0440   25.9910 C.ar  214  TYR214     -0.0009
    104  CD2       17.8870   25.6010   26.2620 C.ar  214  TYR214     -0.0009
    105  CE1       20.4570   25.6020   27.2960 C.ar  214  TYR214      0.0417
    106  CE2       18.1120   25.1530   27.5580 C.ar  214  TYR214      0.0417
    107  CZ        19.4010   25.1510   28.0640 C.ar  214  TYR214      0.1957
    108  OH        19.6150   24.7110   29.3530 O.3   214  TYR214     -0.2866
    109  N         23.3990   25.3690   35.1510 N.3   234  TRP234     -0.1241
    110  CA        21.9870   25.6810   35.3640 C.3   234  TRP234      0.1605
    111  C         21.0710   24.5410   34.9410 C.2   234  TRP234      0.2264
    112  O         19.8990   24.5300   35.3380 O.2   234  TRP234     -0.2867
    113  CB        21.5810   26.9360   34.5720 C.3   234  TRP234      0.0550
    114  CG        21.8440   26.7750   33.0890 C.ar  234  TRP234      0.0003
    115  CD1       21.0550   26.1300   32.1770 C.ar  234  TRP234      0.0946
    116  CD2       23.0010   27.2340   32.3650 C.ar  234  TRP234      0.0152
    117  NE1       21.6440   26.1650   30.9320 N.ar  234  TRP234     -0.2442
    118  CE2       22.8350   26.8380   31.0200 C.ar  234  TRP234      0.0810
    119  CE3       24.1490   27.9520   32.7230 C.ar  234  TRP234      0.0012
    120  CZ2       23.7810   27.1330   30.0310 C.ar  234  TRP234      0.0191
    121  CZ3       25.0980   28.2420   31.7350 C.ar  234  TRP234      0.0001
    122  CH2       24.9060   27.8290   30.4110 C.ar  234  TRP234      0.0015
    123  N         25.2840   34.3830   38.2280 N.3   268  LYS268     -0.1245
    124  CA        24.0800   35.1360   37.9070 C.3   268  LYS268      0.1561
    125  C         23.6000   35.7420   39.2170 C.2   268  LYS268      0.2260
    126  O         23.6010   35.0650   40.2470 O.2   268  LYS268     -0.2867
    127  CB        23.0120   34.2360   37.2600 C.3   268  LYS268      0.0271
    128  CG        23.4670   33.5920   35.9260 C.3   268  LYS268      0.0035
    129  CD        22.4740   32.5470   35.4360 C.3   268  LYS268      0.0206
    130  CE        22.5700   31.2560   36.2610 C.3   268  LYS268      0.1093
    131  NZ        23.9150   30.6040   36.1600 N.3   268  LYS268     -0.1314
    132  N         34.2380   35.3490   33.6850 N.3   339  MET339     -0.1245
    133  CA        33.3540   36.0780   32.7910 C.3   339  MET339      0.1570
    134  C         33.7220   37.5600   32.7920 C.2   339  MET339      0.2261
    135  O         33.7570   38.1770   33.8660 O.2   339  MET339     -0.2867
    136  CB        31.9030   35.9070   33.2380 C.3   339  MET339      0.0387
    137  CG        30.8860   36.6970   32.4210 C.3   339  MET339      0.0595
    138  SD        30.6990   35.9400   30.7770 S.3   339  MET339     -0.1393
    139  CE        28.9310   35.6610   30.7130 C.3   339  MET339      0.0692
    140  N         29.6950   39.9290   22.0070 N.3   349  TRP349     -0.1241
    141  CA        28.6640   38.8990   21.8720 C.3   349  TRP349      0.1605
    142  C         27.7660   39.1700   20.6720 C.2   349  TRP349      0.2264
    143  O         27.4260   38.2550   19.9110 O.2   349  TRP349     -0.2867
    144  CB        27.7950   38.8320   23.1280 C.3   349  TRP349      0.0550
    145  CG        28.4280   38.3150   24.3680 C.ar  349  TRP349      0.0003
    146  CD1       28.3290   38.8740   25.6110 C.ar  349  TRP349      0.0946
    147  CD2       29.2100   37.1120   24.5270 C.ar  349  TRP349      0.0152
    148  NE1       29.0130   38.1030   26.5310 N.ar  349  TRP349     -0.2442
    149  CE2       29.5600   37.0210   25.8910 C.ar  349  TRP349      0.0810
    150  CE3       29.6480   36.1080   23.6490 C.ar  349  TRP349      0.0012
    151  CZ2       30.3320   35.9760   26.4000 C.ar  349  TRP349      0.0191
    152  CZ3       30.4200   35.0690   24.1620 C.ar  349  TRP349      0.0001
    153  CH2       30.7480   35.0130   25.5230 C.ar  349  TRP349      0.0015
@<TRIPOS>BOND
     1    66    67    1
     2   143   142    2
     3    67    68    1
     4    67    70    1
     5    64    63    2
     6    60    61    2
     7    60    59    1
     8   142   141    1
     9    68    69    2
    10    59    58    1
    11    59    62    1
    12    73    72   ar
    13    70    71    1
    14    63    62    1
    15    63    65   am
    16    97    98    1
    17   141   140    1
    18   141   144    1
    19    72    71    1
    20    72    74   ar
    21    88    89    2
    22    88    87    1
    23    90    87    1
    24    90    91    1
    25    98    99    1
    26    98   101    1
    27   144   145    1
    28    75    76    1
    29    99   100    2
    30    87    86    1
    31    86    77   am
    32   150   152   ar
    33   150   147   ar
    34    91    92   ar
    35    91    93   ar
    36   101   102    1
    37   152   153   ar
    38    34    32   ar
    39    31    30    1
    40    31    32    1
    41    92    94   ar
    42   145   147   ar
    43   145   146   ar
    44    30    27    1
    45    77    76    1
    46    77    78    2
    47   147   149   ar
    48    32    33   ar
    49    76    79    1
    50    93    95   ar
    51    94    96   ar
    52   102   103   ar
    53   102   104   ar
    54   153   151   ar
    55   146   148   ar
    56    18    16   ar
    57    95    96   ar
    58    79    80    1
    59   149   151   ar
    60   149   148   ar
    61    27    28    1
    62    27    26    1
    63   103   105   ar
    64    28    29    2
    65    16    17   ar
    66    16    15    1
    67   104   106   ar
    68    15    14    1
    69    26    21   am
    70    14    11    1
    71    80    81   ar
    72    80    82   ar
    73   105   107   ar
    74   106   107   ar
    75    81    83   ar
    76    82    84   ar
    77   107   108    1
    78    21    22    2
    79    21    20    1
    80    13    12    2
    81    11    12    1
    82    11    10    1
    83    12    19   am
    84    19    20    1
    85    23    25    1
    86    23    20    1
    87    23    24    1
    88    48    47   ar
    89    83    85   ar
    90    84    85   ar
    91   120   122   ar
    92   120   118   ar
    93    47    46    1
    94    47    49   ar
    95   122   121   ar
    96   139   138    1
    97   138   137    1
    98    46    43    1
    99   117   118   ar
   100   117   115   ar
   101   118   116   ar
   102    45    44    2
   103   121   119   ar
   104    44    43    1
   105   115   114   ar
   106    43    42    1
   107    40    39    1
   108    40    41    1
   109   116   119   ar
   110   116   114   ar
   111   137   136    1
   112     5     6    1
   113     5     2    1
   114    53    52    2
   115   133   134    1
   116   133   136    1
   117   133   132    1
   118   134   135    2
   119    39    36    1
   120    41    35    1
   121     9     7   am
   122    57    55   am
   123   114   113    1
   124     6     7    1
   125     4     3    2
   126     2     3    1
   127     2     1    1
   128    56    55    2
   129     7     8    2
   130    52    51    1
   131    55    54    1
   132    36    35    1
   133    36    37    1
   134    38    37    2
   135   113   110    1
   136    54    51    1
   137   111   112    2
   138   111   110    1
   139    51    50    1
   140   109   110    1
   141   129   128    1
   142   129   130    1
   143   128   127    1
   144   131   130    1
   145   127   124    1
   146   124   123    1
   147   124   125    1
   148   125   126    2
