@<TRIPOS>MOLECULE
tmp/6ffnA00.pdb
 172 165 0 0 0
SMALL
GASTEIGER

@<TRIPOS>ATOM
      1  N        -24.6180   16.2120   -2.9410 N.3    27  PHE27      -0.1241
      2  CA       -25.7940   15.6340   -3.5670 C.3    27  PHE27       0.1605
      3  C        -26.2560   16.5190   -4.6950 C.2    27  PHE27       0.2264
      4  O        -26.0900   17.7330   -4.6500 O.2    27  PHE27      -0.2867
      5  CB       -26.9090   15.5120   -2.5290 C.3    27  PHE27       0.0534
      6  CG       -26.5390   14.6340   -1.3940 C.ar   27  PHE27      -0.0203
      7  CD1      -25.8200   15.1330   -0.3210 C.ar   27  PHE27      -0.0042
      8  CD2      -26.8010   13.2710   -1.4480 C.ar   27  PHE27      -0.0042
      9  CE1      -25.4170   14.3030    0.7040 C.ar   27  PHE27      -0.0003
     10  CE2      -26.3990   12.4360   -0.4060 C.ar   27  PHE27      -0.0003
     11  CZ       -25.7200   12.9590    0.6620 C.ar   27  PHE27      -0.0000
     12  N        -31.5660   11.2030    3.2350 N.3    42  HIS42      -0.1241
     13  CA       -30.3470   10.7100    3.8750 C.3    42  HIS42       0.1621
     14  C        -29.1630   11.6700    3.7510 C.2    42  HIS42       0.2264
     15  O        -28.1330   11.4820    4.4170 O.2    42  HIS42      -0.2867
     16  CB       -30.0000    9.2910    3.4110 C.3    42  HIS42       0.0745
     17  CG       -29.4630    9.1980    2.0230 C.ar   42  HIS42       0.0817
     18  ND1      -30.2580    8.8580    0.9420 N.ar   42  HIS42      -0.2268
     19  CD2      -28.2000    9.3000    1.5420 C.ar   42  HIS42       0.1154
     20  CE1      -29.5190    8.8040   -0.1470 C.ar   42  HIS42       0.1986
     21  NE2      -28.2660    9.0730    0.1860 N.ar   42  HIS42      -0.2212
     22  N        -40.9360    6.7890    5.2660 N.3    71  LYS71      -0.1245
     23  CA       -40.2280    7.8400    4.5460 C.3    71  LYS71       0.1561
     24  C        -40.2320    7.6260    3.0250 C.2    71  LYS71       0.2260
     25  O        -40.0620    6.4980    2.5350 O.2    71  LYS71      -0.2867
     26  CB       -38.7920    7.9230    4.9980 C.3    71  LYS71       0.0271
     27  CG       -38.5920    8.4820    6.3900 C.3    71  LYS71       0.0035
     28  CD       -37.1630    8.1900    6.8510 C.3    71  LYS71       0.0206
     29  CE       -36.3230    9.4400    6.9720 C.3    71  LYS71       0.1093
     30  NZ       -36.6520   10.1900    8.2130 N.3    71  LYS71      -0.1314
     31  N        -37.9610    9.3170    1.2750 N.3    73  GLU73      -0.1245
     32  CA       -36.5660    9.6990    1.0200 C.3    73  GLU73       0.1567
     33  C        -36.4840   10.9960    0.2430 C.2    73  GLU73       0.2260
     34  O        -35.4770   11.2800   -0.4010 O.2    73  GLU73      -0.2867
     35  CB       -35.7640    8.5960    0.3090 C.3    73  GLU73       0.0388
     36  CG       -34.9410    7.7030    1.2090 C.3    73  GLU73       0.1160
     37  CD       -34.1290    8.4200    2.3070 C.2    73  GLU73       0.3649
     38  OE1      -34.5160    8.3170    3.4990 O.co2  73  GLU73      -0.2457
     39  OE2      -33.1140    9.0410    1.9580 O.co2  73  GLU73      -0.2457
     40  N        -42.0230    0.3780   -8.0540 N.3   124  TYR124     -0.1241
     41  CA       -41.5730   -0.8650   -7.4110 C.3   124  TYR124      0.1605
     42  C        -42.1260   -1.1060   -6.0110 C.2   124  TYR124      0.2264
     43  O        -41.9360   -2.1800   -5.4570 O.2   124  TYR124     -0.2867
     44  CB       -40.0610   -0.8330   -7.3490 C.3   124  TYR124      0.0534
     45  CG       -39.3870   -2.1700   -7.1790 C.ar  124  TYR124     -0.0201
     46  CD1      -39.4800   -3.1560   -8.1590 C.ar  124  TYR124     -0.0009
     47  CD2      -38.6040   -2.4330   -6.0600 C.ar  124  TYR124     -0.0009
     48  CE1      -38.8330   -4.3750   -8.0190 C.ar  124  TYR124      0.0417
     49  CE2      -37.9500   -3.6390   -5.9250 C.ar  124  TYR124      0.0417
     50  CZ       -38.0610   -4.5980   -6.9090 C.ar  124  TYR124      0.1957
     51  OH       -37.4030   -5.7870   -6.7630 O.3   124  TYR124     -0.2866
     52  N        -38.9920   -0.5550   -0.4420 N.3   127  ILE127     -0.1231
     53  CA       -37.7770   -1.3370   -0.3120 C.3   127  ILE127      0.1692
     54  C        -37.1130   -1.0430    1.0190 C.2   127  ILE127      0.2592
     55  O        -37.4780   -0.0970    1.7150 O.2   127  ILE127     -0.2718
     56  CB       -36.7910   -1.0480   -1.4600 C.3   127  ILE127      0.0266
     57  CG1      -36.2090    0.3680   -1.3520 C.3   127  ILE127      0.0019
     58  CG2      -37.4740   -1.2920   -2.7970 C.3   127  ILE127      0.0020
     59  CD1      -35.2140    0.6940   -2.4550 C.3   127  ILE127      0.0001
     60  N        -36.0870   -1.8230    1.3260 N.am  128  LEU128     -0.1966
     61  CA       -35.1830   -1.5090    2.4160 C.3   128  LEU128      0.1728
     62  C        -33.9210   -0.8910    1.8280 C.2   128  LEU128      0.2616
     63  O        -33.2520   -1.5320    1.0450 O.2   128  LEU128     -0.2715
     64  CB       -34.8100   -2.7510    3.2100 C.3   128  LEU128      0.0311
     65  CG       -35.9490   -3.4020    3.9930 C.3   128  LEU128      0.0022
     66  CD1      -35.4290   -4.6840    4.6120 C.3   128  LEU128      0.0001
     67  CD2      -36.4940   -2.4780    5.0660 C.3   128  LEU128      0.0001
     68  N        -33.6300    0.3640    2.1840 N.am  129  LEU129     -0.1963
     69  CA       -32.4040    1.0410    1.7040 C.3   129  LEU129      0.1728
     70  C        -31.5210    1.2290    2.9130 C.2   129  LEU129      0.2616
     71  O        -31.9260    1.9230    3.8500 O.2   129  LEU129     -0.2715
     72  CB       -32.7180    2.4160    1.1320 C.3   129  LEU129      0.0311
     73  CG       -33.0310    2.5410   -0.3440 C.3   129  LEU129      0.0022
     74  CD1      -33.2500    4.0130   -0.6780 C.3   129  LEU129      0.0001
     75  CD2      -31.9220    1.9280   -1.1980 C.3   129  LEU129      0.0001
     76  N        -30.3460    0.6010    2.8860 N.am  130  SER130     -0.1950
     77  CA       -29.4340    0.5150    4.0250 C.3   130  SER130      0.1924
     78  C        -30.2030    0.1710    5.2820 C.2   130  SER130      0.2314
     79  O        -30.0340    0.7990    6.3140 O.2   130  SER130     -0.2863
     80  CB       -28.6600    1.8320    4.1860 C.3   130  SER130      0.2116
     81  OG       -27.9200    2.0920    3.0030 O.3   130  SER130     -0.2180
     82  N        -33.4320    0.5760    5.9510 N.3   132  ASN132     -0.1240
     83  CA       -34.5380    1.4670    6.3280 C.3   132  ASN132      0.1653
     84  C        -35.6760    1.3820    5.3210 C.2   132  ASN132      0.2266
     85  O        -35.4380    1.5290    4.1120 O.2   132  ASN132     -0.2867
     86  CB       -34.0560    2.9160    6.3590 C.3   132  ASN132      0.1155
     87  CG       -32.9540    3.1450    7.3750 C.2   132  ASN132      0.2627
     88  OD1      -31.8350    3.5050    7.0270 O.2   132  ASN132     -0.2716
     89  ND2      -33.2560    2.8820    8.6190 N.am  132  ASN132     -0.0877
     90  N        -38.3780    2.3450    2.8700 N.3   134  THR134     -0.1218
     91  CA       -38.5190    3.5030    2.0170 C.3   134  THR134      0.1862
     92  C        -39.6280    3.2130    1.0020 C.2   134  THR134      0.2287
     93  O        -39.6520    2.1690    0.3530 O.2   134  THR134     -0.2866
     94  CB       -37.1960    3.8030    1.2940 C.3   134  THR134      0.1770
     95  OG1      -36.1170    3.8690    2.2360 O.3   134  THR134     -0.2211
     96  CG2      -37.2750    5.1120    0.5480 C.3   134  THR134      0.0375
     97  N        -25.6600    1.9200  -10.9550 N.3   144  THR144     -0.1203
     98  CA       -25.4100    3.2520  -10.4140 C.3   144  THR144      0.1994
     99  C        -24.2330    3.2240   -9.4360 C.2   144  THR144      0.2618
    100  O        -23.8190    2.1460   -8.9940 O.2   144  THR144     -0.2717
    101  CB       -26.6840    3.8010   -9.7360 C.3   144  THR144      0.1784
    102  OG1      -27.0650    2.9330   -8.6640 O.3   144  THR144     -0.2211
    103  CG2      -27.8040    3.8760  -10.7400 C.3   144  THR144      0.0376
    104  N        -23.7060    4.4110   -9.1180 N.am  145  LYS145     -0.1965
    105  CA       -22.5320    4.5910   -8.2540 C.3   145  LYS145      0.1728
    106  C        -22.8620    5.4860   -7.0750 C.2   145  LYS145      0.2616
    107  O        -23.8550    6.2060   -7.0780 O.2   145  LYS145     -0.2715
    108  CB       -21.3890    5.2460   -9.0250 C.3   145  LYS145      0.0311
    109  CG       -20.9450    4.5260  -10.2900 C.3   145  LYS145      0.0038
    110  CD       -19.9300    5.3870  -11.0390 C.3   145  LYS145      0.0206
    111  CE       -19.4660    4.7560  -12.3470 C.3   145  LYS145      0.1093
    112  NZ       -18.5410    3.6120  -12.1200 N.3   145  LYS145     -0.1314
    113  N        -21.9970    5.4560   -6.0740 N.am  146  SER146     -0.1950
    114  CA       -22.1940    6.2030   -4.8320 C.3   146  SER146      0.1924
    115  C        -22.4340    7.7040   -5.0210 C.2   146  SER146      0.2314
    116  O        -23.2380    8.3030   -4.3030 O.2   146  SER146     -0.2863
    117  CB       -20.9920    6.0030   -3.8990 C.3   146  SER146      0.2116
    118  OG       -20.9780    4.6720   -3.4100 O.3   146  SER146     -0.2180
    119  N        -26.4160   10.1830   -5.9370 N.3   149  CYS149     -0.1235
    120  CA       -27.6040   10.5670   -5.1800 C.3   149  CYS149      0.1677
    121  C        -28.0720   12.0020   -5.4390 C.2   149  CYS149      0.2270
    122  O        -27.2840   12.9510   -5.5260 O.2   149  CYS149     -0.2867
    123  CB       -27.5040   10.2400   -3.6810 C.3   149  CYS149      0.0956
    124  SG       -27.8130    8.4560   -3.4190 S.3   149  CYS149     -0.0801
    125  N        -32.5640   10.1280   -7.5540 N.3   163  HIS163     -0.1226
    126  CA       -31.8370    8.9130   -7.2370 C.3   163  HIS163      0.1752
    127  C        -31.4550    8.8520   -5.7730 C.2   163  HIS163      0.2596
    128  O        -30.8700    9.8090   -5.2420 O.2   163  HIS163     -0.2718
    129  CB       -30.5820    8.8060   -8.0860 C.3   163  HIS163      0.0759
    130  CG       -29.8300    7.5400   -7.8620 C.ar  163  HIS163      0.0818
    131  ND1      -30.1890    6.3440   -8.4540 N.ar  163  HIS163     -0.2268
    132  CD2      -28.7820    7.2600   -7.0610 C.ar  163  HIS163      0.1154
    133  CE1      -29.3670    5.4000   -8.0590 C.ar  163  HIS163      0.1986
    134  NE2      -28.5060    5.9280   -7.2090 N.ar  163  HIS163     -0.2212
    135  N        -31.8140    7.7410   -5.1220 N.am  164  VAL164     -0.1966
    136  CA       -31.5630    7.5640   -3.6850 C.3   164  VAL164      0.1727
    137  C        -30.7630    6.3230   -3.2960 C.2   164  VAL164      0.2617
    138  O        -30.2820    6.2420   -2.1650 O.2   164  VAL164     -0.2715
    139  CB       -32.8520    7.6390   -2.8610 C.3   164  VAL164      0.0290
    140  CG1      -33.5590    8.9830   -3.0630 C.3   164  VAL164      0.0023
    141  CG2      -33.7900    6.5080   -3.2210 C.3   164  VAL164      0.0023
    142  N        -30.6340    5.3430   -4.1810 N.am  165  GLY165     -0.1940
    143  CA       -29.8110    4.2030   -3.8310 C.3   165  GLY165      0.2014
    144  C        -29.7130    3.1390   -4.8980 C.2   165  GLY165      0.2639
    145  O        -30.2710    3.2550   -5.9810 O.2   165  GLY165     -0.2714
    146  N        -29.0010    2.0810   -4.5750 N.am  166  GLY166     -0.1939
    147  CA       -28.8780    0.9730   -5.5090 C.3   166  GLY166      0.2014
    148  C        -27.9620   -0.0710   -4.9370 C.2   166  GLY166      0.2639
    149  O        -27.3800    0.1340   -3.8820 O.2   166  GLY166     -0.2714
    150  N        -27.8200   -1.1670   -5.6670 N.am  167  ASN167     -0.1958
    151  CA       -27.0000   -2.3100   -5.2530 C.3   167  ASN167      0.1819
    152  C        -25.9640   -2.7690   -6.2670 C.2   167  ASN167      0.2621
    153  O        -25.3810   -3.8270   -6.0940 O.2   167  ASN167     -0.2715
    154  CB       -27.8940   -3.5050   -4.9130 C.3   167  ASN167      0.1195
    155  CG       -28.7970   -3.9140   -6.0600 C.2   167  ASN167      0.2630
    156  OD1      -28.5380   -3.6130   -7.2310 O.2   167  ASN167     -0.2716
    157  ND2      -29.8670   -4.6140   -5.7280 N.am  167  ASN167     -0.0877
    158  N        -25.7240   -1.9890   -7.3060 N.am  168  GLY168     -0.1954
    159  CA       -24.7630   -2.3840   -8.3560 C.3   168  GLY168      0.1869
    160  C        -25.4200   -2.9690   -9.5970 C.2   168  GLY168      0.2309
    161  O        -24.8270   -2.9730  -10.6690 O.2   168  GLY168     -0.2863
    162  N        -32.5070    2.9920   -7.7050 N.3   172  PHE172     -0.1241
    163  CA       -33.7920    3.4150   -7.2080 C.3   172  PHE172      0.1605
    164  C        -33.8550    4.9130   -7.0400 C.2   172  PHE172      0.2264
    165  O        -32.9580    5.5310   -6.4520 O.2   172  PHE172     -0.2867
    166  CB       -34.0870    2.7540   -5.8530 C.3   172  PHE172      0.0534
    167  CG       -34.1100    1.2510   -5.9130 C.ar  172  PHE172     -0.0203
    168  CD1      -35.2680    0.5830   -6.2380 C.ar  172  PHE172     -0.0042
    169  CD2      -32.9700    0.5170   -5.6620 C.ar  172  PHE172     -0.0042
    170  CE1      -35.2910   -0.8040   -6.3140 C.ar  172  PHE172     -0.0003
    171  CE2      -32.9770   -0.8770   -5.7370 C.ar  172  PHE172     -0.0003
    172  CZ       -34.1430   -1.5320   -6.0650 C.ar  172  PHE172     -0.0000
@<TRIPOS>BOND
     1   111   112    1
     2   111   110    1
     3   110   109    1
     4    97    98    1
     5   103   101    1
     6   161   160    2
     7    98   101    1
     8    98    99    1
     9   109   108    1
    10   101   102    1
    11   160   159    1
    12    99   104   am
    13    99   100    2
    14   104   105    1
    15   108   105    1
    16   131   133   ar
    17   131   130   ar
    18   159   158    1
    19   105   106    1
    20    46    48   ar
    21    46    45   ar
    22   129   130    1
    23   129   126    1
    24   133   134   ar
    25    40    41    1
    26    48    50   ar
    27   130   132   ar
    28   162   163    1
    29   125   126    1
    30    41    44    1
    31    41    42    1
    32    44    45    1
    33   158   152   am
    34   126   127    1
    35   156   155    2
    36   134   132   ar
    37   163   164    1
    38   163   166    1
    39    45    47   ar
    40   107   106    2
    41   106   113   am
    42   164   165    2
    43    50    51    1
    44    50    49   ar
    45   170   168   ar
    46   170   172   ar
    47   152   153    2
    48   152   151    1
    49   168   167   ar
    50   113   114    1
    51   172   171   ar
    52    47    49   ar
    53   155   157   am
    54   155   154    1
    55    42    43    2
    56   145   144    2
    57   119   120    1
    58   167   166    1
    59   167   169   ar
    60   127   128    2
    61   127   135   am
    62   171   169   ar
    63   150   151    1
    64   150   148   am
    65   122   121    2
    66   147   148    1
    67   147   146    1
    68   121   120    1
    69   151   154    1
    70   120   123    1
    71   135   136    1
    72   115   114    1
    73   115   116    2
    74   148   149    2
    75   144   146   am
    76   144   143    1
    77   114   117    1
    78     3     4    2
    79     3     2    1
    80   142   143    1
    81   142   137   am
    82   117   118    1
    83   136   137    1
    84   136   139    1
    85   123   124    1
    86     2     1    1
    87     2     5    1
    88   137   138    2
    89   141   139    1
    90   140   139    1
    91    58    56    1
    92     5     6    1
    93    59    57    1
    94    56    57    1
    95    56    53    1
    96     8     6   ar
    97     8    10   ar
    98     6     7   ar
    99    75    73    1
   100    74    73    1
   101    52    53    1
   102    10    11   ar
   103    34    33    2
   104    73    72    1
   105     7     9   ar
   106    53    54    1
   107    20    21   ar
   108    20    18   ar
   109    21    19   ar
   110    33    32    1
   111    35    32    1
   112    35    36    1
   113    93    92    2
   114    96    94    1
   115    11     9   ar
   116    18    17   ar
   117    92    91    1
   118    54    60   am
   119    54    55    2
   120    32    31    1
   121    63    62    2
   122    72    69    1
   123    36    37    1
   124    94    91    1
   125    94    95    1
   126    60    61    1
   127    19    17   ar
   128    69    68    1
   129    69    70    1
   130    62    68   am
   131    62    61    1
   132    39    37   ar
   133    91    90    1
   134    17    16    1
   135    37    38   ar
   136    61    64    1
   137    25    24    2
   138    76    70   am
   139    76    77    1
   140    70    71    2
   141    81    80    1
   142    24    23    1
   143    64    65    1
   144    12    13    1
   145    16    13    1
   146    14    13    1
   147    14    15    2
   148    65    66    1
   149    65    67    1
   150    77    80    1
   151    77    78    1
   152    85    84    2
   153    23    26    1
   154    23    22    1
   155    26    27    1
   156    78    79    2
   157    84    83    1
   158    82    83    1
   159    83    86    1
   160    86    87    1
   161    27    28    1
   162    28    29    1
   163    29    30    1
   164    88    87    2
   165    87    89   am
