@<TRIPOS>MOLECULE
tmp/6ffsA00.pdb
 172 165 0 0 0
SMALL
GASTEIGER

@<TRIPOS>ATOM
      1  N        -24.7110   16.1170   -2.9300 N.3    27  PHE27      -0.1241
      2  CA       -25.8830   15.5460   -3.5510 C.3    27  PHE27       0.1605
      3  C        -26.3420   16.4460   -4.6580 C.2    27  PHE27       0.2264
      4  O        -26.1860   17.6720   -4.5680 O.2    27  PHE27      -0.2867
      5  CB       -26.9930   15.4290   -2.5130 C.3    27  PHE27       0.0534
      6  CG       -26.6210   14.5560   -1.3930 C.ar   27  PHE27      -0.0203
      7  CD1      -25.8860   15.0360   -0.2930 C.ar   27  PHE27      -0.0042
      8  CD2      -26.9660   13.1890   -1.4370 C.ar   27  PHE27      -0.0042
      9  CE1      -25.4860   14.1960    0.7200 C.ar   27  PHE27      -0.0003
     10  CE2      -26.5770   12.3570   -0.3970 C.ar   27  PHE27      -0.0003
     11  CZ       -25.8440   12.8600    0.6700 C.ar   27  PHE27      -0.0000
     12  N        -31.7600   11.1440    3.3110 N.3    42  HIS42      -0.1241
     13  CA       -30.5220   10.6510    3.9280 C.3    42  HIS42       0.1621
     14  C        -29.3230   11.5860    3.7840 C.2    42  HIS42       0.2264
     15  O        -28.3040   11.3890    4.4650 O.2    42  HIS42      -0.2867
     16  CB       -30.1940    9.1960    3.4640 C.3    42  HIS42       0.0745
     17  CG       -29.6680    9.0920    2.0660 C.ar   42  HIS42       0.0817
     18  ND1      -30.4780    8.7410    0.9940 N.ar   42  HIS42      -0.2268
     19  CD2      -28.4080    9.2040    1.5630 C.ar   42  HIS42       0.1154
     20  CE1      -29.7570    8.6970   -0.1060 C.ar   42  HIS42       0.1986
     21  NE2      -28.4990    8.9910    0.2030 N.ar   42  HIS42      -0.2212
     22  N        -41.1710    6.7620    5.2560 N.3    71  LYS71      -0.1245
     23  CA       -40.4680    7.7930    4.5310 C.3    71  LYS71       0.1561
     24  C        -40.4860    7.6220    3.0200 C.2    71  LYS71       0.2260
     25  O        -40.3110    6.4980    2.5140 O.2    71  LYS71      -0.2867
     26  CB       -39.0100    7.8760    4.9640 C.3    71  LYS71       0.0271
     27  CG       -38.8220    8.4700    6.3260 C.3    71  LYS71       0.0035
     28  CD       -37.3240    8.5090    6.6510 C.3    71  LYS71       0.0206
     29  CE       -37.0610    9.4050    7.8620 C.3    71  LYS71       0.1093
     30  NZ       -35.6040    9.5860    8.0960 N.3    71  LYS71      -0.1314
     31  N        -38.1510    9.3100    1.2900 N.3    73  GLU73      -0.1245
     32  CA       -36.7570    9.6710    1.0420 C.3    73  GLU73       0.1567
     33  C        -36.6580   10.9740    0.2420 C.2    73  GLU73       0.2260
     34  O        -35.6300   11.2630   -0.3640 O.2    73  GLU73      -0.2867
     35  CB       -35.9470    8.5830    0.3140 C.3    73  GLU73       0.0388
     36  CG       -34.9610    7.7670    1.0950 C.3    73  GLU73       0.1160
     37  CD       -34.1020    8.4880    2.1230 C.2    73  GLU73       0.3649
     38  OE1      -34.4470    8.3100    3.2960 O.co2  73  GLU73      -0.2457
     39  OE2      -33.0620    9.0940    1.7430 O.co2  73  GLU73      -0.2457
     40  N        -42.2120    0.3550   -8.1500 N.3   124  TYR124     -0.1241
     41  CA       -41.7740   -0.8790   -7.4920 C.3   124  TYR124      0.1605
     42  C        -42.3430   -1.1350   -6.0930 C.2   124  TYR124      0.2264
     43  O        -42.1230   -2.2250   -5.5360 O.2   124  TYR124     -0.2867
     44  CB       -40.2690   -0.8590   -7.4080 C.3   124  TYR124      0.0534
     45  CG       -39.5930   -2.1900   -7.2170 C.ar  124  TYR124     -0.0201
     46  CD1      -39.7040   -3.1920   -8.1810 C.ar  124  TYR124     -0.0009
     47  CD2      -38.7890   -2.4260   -6.1100 C.ar  124  TYR124     -0.0009
     48  CE1      -39.0420   -4.4060   -8.0290 C.ar  124  TYR124      0.0417
     49  CE2      -38.1440   -3.6470   -5.9420 C.ar  124  TYR124      0.0417
     50  CZ       -38.2650   -4.6170   -6.9290 C.ar  124  TYR124      0.1957
     51  OH       -37.6270   -5.8050   -6.7890 O.3   124  TYR124     -0.2866
     52  N        -39.2570   -0.5980   -0.4230 N.3   127  ILE127     -0.1231
     53  CA       -38.0280   -1.3690   -0.2860 C.3   127  ILE127      0.1692
     54  C        -37.3750   -1.0770    1.0400 C.2   127  ILE127      0.2592
     55  O        -37.7500   -0.1320    1.7390 O.2   127  ILE127     -0.2718
     56  CB       -37.0220   -1.0790   -1.4390 C.3   127  ILE127      0.0266
     57  CG1      -36.4160    0.3260   -1.3150 C.3   127  ILE127      0.0019
     58  CG2      -37.6960   -1.2590   -2.7950 C.3   127  ILE127      0.0020
     59  CD1      -35.4170    0.6510   -2.4010 C.3   127  ILE127      0.0001
     60  N        -36.3670   -1.8800    1.3640 N.am  128  LEU128     -0.1966
     61  CA       -35.4740   -1.5810    2.4560 C.3   128  LEU128      0.1728
     62  C        -34.2150   -0.9460    1.8720 C.2   128  LEU128      0.2616
     63  O        -33.5330   -1.5790    1.0880 O.2   128  LEU128     -0.2715
     64  CB       -35.1020   -2.8150    3.2480 C.3   128  LEU128      0.0311
     65  CG       -36.2840   -3.4720    3.9850 C.3   128  LEU128      0.0022
     66  CD1      -35.8510   -4.7850    4.6160 C.3   128  LEU128      0.0001
     67  CD2      -36.8760   -2.5660    5.0350 C.3   128  LEU128      0.0001
     68  N        -33.9350    0.2960    2.2530 N.am  129  LEU129     -0.1963
     69  CA       -32.7800    1.0310    1.7240 C.3   129  LEU129      0.1728
     70  C        -31.8610    1.2490    2.9250 C.2   129  LEU129      0.2616
     71  O        -32.2480    1.9120    3.8900 O.2   129  LEU129     -0.2715
     72  CB       -33.3000    2.3380    1.1240 C.3   129  LEU129      0.0311
     73  CG       -32.4730    3.0350    0.0610 C.3   129  LEU129      0.0022
     74  CD1      -32.0740    2.1180   -1.0840 C.3   129  LEU129      0.0001
     75  CD2      -33.2910    4.2430   -0.4100 C.3   129  LEU129      0.0001
     76  N        -30.6890    0.6090    2.8990 N.am  130  SER130     -0.1950
     77  CA       -29.7910    0.4660    4.0870 C.3   130  SER130      0.1924
     78  C        -30.5580    0.1020    5.3350 C.2   130  SER130      0.2314
     79  O        -30.3820    0.6890    6.4020 O.2   130  SER130     -0.2863
     80  CB       -28.9520    1.7400    4.3080 C.3   130  SER130      0.2116
     81  OG       -28.2560    2.0600    3.0960 O.3   130  SER130     -0.2180
     82  N        -33.7770    0.5070    6.0050 N.3   132  ASN132     -0.1240
     83  CA       -34.8850    1.3920    6.4090 C.3   132  ASN132      0.1653
     84  C        -36.0070    1.3200    5.3530 C.2   132  ASN132      0.2266
     85  O        -35.7350    1.4640    4.1520 O.2   132  ASN132     -0.2867
     86  CB       -34.4130    2.8400    6.4910 C.3   132  ASN132      0.1155
     87  CG       -33.2850    3.0540    7.4880 C.2   132  ASN132      0.2627
     88  OD1      -32.2280    3.5790    7.1370 O.2   132  ASN132     -0.2716
     89  ND2      -33.4960    2.6330    8.7120 N.am  132  ASN132     -0.0877
     90  N        -38.6860    2.2820    2.8610 N.3   134  THR134     -0.1218
     91  CA       -38.8020    3.4540    2.0070 C.3   134  THR134      0.1862
     92  C        -39.8780    3.1860    0.9710 C.2   134  THR134      0.2287
     93  O        -39.8830    2.1390    0.3290 O.2   134  THR134     -0.2866
     94  CB       -37.4560    3.7650    1.3080 C.3   134  THR134      0.1770
     95  OG1      -36.4300    3.8250    2.2840 O.3   134  THR134     -0.2211
     96  CG2      -37.5130    5.0700    0.6030 C.3   134  THR134      0.0375
     97  N        -25.7760    1.8650  -10.9550 N.3   144  THR144     -0.1203
     98  CA       -25.5440    3.1820  -10.3770 C.3   144  THR144      0.1994
     99  C        -24.4160    3.1520   -9.3490 C.2   144  THR144      0.2618
    100  O        -24.0600    2.0820   -8.8240 O.2   144  THR144     -0.2717
    101  CB       -26.8360    3.7690   -9.7660 C.3   144  THR144      0.1784
    102  OG1      -27.3000    2.9440   -8.6850 O.3   144  THR144     -0.2211
    103  CG2      -27.9050    3.8830  -10.8300 C.3   144  THR144      0.0376
    104  N        -23.8370    4.3310   -9.1130 N.am  145  LYS145     -0.1965
    105  CA       -22.6500    4.5070   -8.2540 C.3   145  LYS145      0.1728
    106  C        -22.9700    5.3870   -7.0810 C.2   145  LYS145      0.2616
    107  O        -23.9810    6.0700   -7.0740 O.2   145  LYS145     -0.2715
    108  CB       -21.5250    5.1480   -9.0510 C.3   145  LYS145      0.0311
    109  CG       -21.1130    4.3570  -10.2820 C.3   145  LYS145      0.0038
    110  CD       -19.9170    5.0010  -10.9670 C.3   145  LYS145      0.0206
    111  CE       -19.5260    4.2260  -12.2200 C.3   145  LYS145      0.1093
    112  NZ       -18.2140    4.6550  -12.7700 N.3   145  LYS145     -0.1314
    113  N        -22.0920    5.3720   -6.0820 N.am  146  SER146     -0.1950
    114  CA       -22.2670    6.1460   -4.8440 C.3   146  SER146      0.1924
    115  C        -22.4930    7.6540   -5.0400 C.2   146  SER146      0.2314
    116  O        -23.2920    8.2580   -4.3380 O.2   146  SER146     -0.2863
    117  CB       -21.0760    5.9390   -3.8900 C.3   146  SER146      0.2116
    118  OG       -19.8630    6.1020   -4.6030 O.3   146  SER146     -0.2180
    119  N        -26.5050   10.0690   -5.9400 N.3   149  CYS149     -0.1235
    120  CA       -27.6700   10.4770   -5.1810 C.3   149  CYS149      0.1677
    121  C        -28.1540   11.9180   -5.4170 C.2   149  CYS149      0.2270
    122  O        -27.3850   12.8850   -5.5170 O.2   149  CYS149     -0.2867
    123  CB       -27.5760   10.1230   -3.6990 C.3   149  CYS149      0.0956
    124  SG       -27.8170    8.2900   -3.5110 S.3   149  CYS149     -0.0801
    125  N        -32.6980   10.0990   -7.5770 N.3   163  HIS163     -0.1226
    126  CA       -31.9690    8.8740   -7.2680 C.3   163  HIS163      0.1752
    127  C        -31.6060    8.7760   -5.7750 C.2   163  HIS163      0.2596
    128  O        -31.0220    9.7200   -5.2480 O.2   163  HIS163     -0.2718
    129  CB       -30.7240    8.7450   -8.1320 C.3   163  HIS163      0.0759
    130  CG       -29.9640    7.4800   -7.9110 C.ar  163  HIS163      0.0818
    131  ND1      -30.3290    6.2770   -8.5040 N.ar  163  HIS163     -0.2268
    132  CD2      -28.9200    7.1990   -7.0970 C.ar  163  HIS163      0.1154
    133  CE1      -29.4960    5.3350   -8.1070 C.ar  163  HIS163      0.1986
    134  NE2      -28.6380    5.8620   -7.2460 N.ar  163  HIS163     -0.2212
    135  N        -31.9310    7.6410   -5.1270 N.am  164  VAL164     -0.1966
    136  CA       -31.7290    7.4580   -3.6770 C.3   164  VAL164      0.1727
    137  C        -30.8890    6.2420   -3.3180 C.2   164  VAL164      0.2617
    138  O        -30.4300    6.1360   -2.1960 O.2   164  VAL164     -0.2715
    139  CB       -33.0120    7.4690   -2.8550 C.3   164  VAL164      0.0290
    140  CG1      -33.7550    8.7930   -3.0060 C.3   164  VAL164      0.0023
    141  CG2      -33.8890    6.2830   -3.1960 C.3   164  VAL164      0.0023
    142  N        -30.6560    5.3500   -4.2610 N.am  165  GLY165     -0.1940
    143  CA       -29.8560    4.1790   -3.9080 C.3   165  GLY165      0.2014
    144  C        -29.8580    3.0800   -4.9300 C.2   165  GLY165      0.2639
    145  O        -30.4160    3.1830   -6.0040 O.2   165  GLY165     -0.2714
    146  N        -29.1720    2.0040   -4.5870 N.am  166  GLY166     -0.1939
    147  CA       -29.0760    0.9030   -5.5220 C.3   166  GLY166      0.2014
    148  C        -28.1680   -0.1580   -4.9770 C.2   166  GLY166      0.2639
    149  O        -27.5810    0.0120   -3.9070 O.2   166  GLY166     -0.2714
    150  N        -28.0610   -1.2380   -5.7140 N.am  167  ASN167     -0.1958
    151  CA       -27.2350   -2.3860   -5.2800 C.3   167  ASN167      0.1819
    152  C        -26.1690   -2.8110   -6.2720 C.2   167  ASN167      0.2621
    153  O        -25.5990   -3.8690   -6.1140 O.2   167  ASN167     -0.2715
    154  CB       -28.1240   -3.6070   -4.9550 C.3   167  ASN167      0.1195
    155  CG       -29.0150   -4.0070   -6.0990 C.2   167  ASN167      0.2630
    156  OD1      -28.7380   -3.7010   -7.2600 O.2   167  ASN167     -0.2716
    157  ND2      -30.0860   -4.7240   -5.7830 N.am  167  ASN167     -0.0877
    158  N        -25.8940   -2.0250   -7.2910 N.am  168  GLY168     -0.1954
    159  CA       -24.9020   -2.4290   -8.3090 C.3   168  GLY168      0.1869
    160  C        -25.5490   -2.9780   -9.5750 C.2   168  GLY168      0.2309
    161  O        -24.9440   -2.9290  -10.6380 O.2   168  GLY168     -0.2863
    162  N        -32.6820    2.9400   -7.6920 N.3   172  PHE172     -0.1241
    163  CA       -33.9670    3.3590   -7.1860 C.3   172  PHE172      0.1605
    164  C        -34.0060    4.8790   -7.0700 C.2   172  PHE172      0.2264
    165  O        -33.0850    5.5010   -6.5310 O.2   172  PHE172     -0.2867
    166  CB       -34.2540    2.7150   -5.8360 C.3   172  PHE172      0.0534
    167  CG       -34.2980    1.2220   -5.8960 C.ar  172  PHE172     -0.0203
    168  CD1      -35.4570    0.5540   -6.2350 C.ar  172  PHE172     -0.0042
    169  CD2      -33.1660    0.4960   -5.6510 C.ar  172  PHE172     -0.0042
    170  CE1      -35.4660   -0.8580   -6.2990 C.ar  172  PHE172     -0.0003
    171  CE2      -33.1600   -0.8970   -5.6960 C.ar  172  PHE172     -0.0003
    172  CZ       -34.3160   -1.5620   -6.0550 C.ar  172  PHE172     -0.0000
@<TRIPOS>BOND
     1   112   111    1
     2   111   110    1
     3   110   109    1
     4    97    98    1
     5   103   101    1
     6   161   160    2
     7    98   101    1
     8    98    99    1
     9   109   108    1
    10   101   102    1
    11   160   159    1
    12    99   104   am
    13    99   100    2
    14   104   105    1
    15   108   105    1
    16   131   133   ar
    17   131   130   ar
    18   159   158    1
    19   105   106    1
    20    46    48   ar
    21    46    45   ar
    22    40    41    1
    23   129   130    1
    24   129   126    1
    25   133   134   ar
    26    48    50   ar
    27   130   132   ar
    28   162   163    1
    29   125   126    1
    30    41    44    1
    31    41    42    1
    32    44    45    1
    33   158   152   am
    34   126   127    1
    35   156   155    2
    36   134   132   ar
    37    45    47   ar
    38   163   164    1
    39   163   166    1
    40   106   107    2
    41   106   113   am
    42   164   165    2
    43    50    51    1
    44    50    49   ar
    45   170   168   ar
    46   170   172   ar
    47   152   153    2
    48   152   151    1
    49   168   167   ar
    50    47    49   ar
    51   155   157   am
    52   155   154    1
    53    42    43    2
    54   113   114    1
    55   172   171   ar
    56   145   144    2
    57   119   120    1
    58   167   166    1
    59   167   169   ar
    60   127   128    2
    61   127   135   am
    62   150   151    1
    63   150   148   am
    64   171   169   ar
    65   147   148    1
    66   147   146    1
    67   122   121    2
    68   121   120    1
    69   151   154    1
    70   120   123    1
    71   135   136    1
    72   115   114    1
    73   115   116    2
    74   148   149    2
    75   144   146   am
    76   144   143    1
    77   114   117    1
    78     3     4    2
    79     3     2    1
    80   118   117    1
    81   142   143    1
    82   142   137   am
    83   123   124    1
    84   136   137    1
    85   136   139    1
    86     2     1    1
    87     2     5    1
    88   137   138    2
    89   141   139    1
    90   140   139    1
    91    58    56    1
    92     5     6    1
    93    59    57    1
    94    56    57    1
    95    56    53    1
    96     8     6   ar
    97     8    10   ar
    98     6     7   ar
    99    74    73    1
   100    52    53    1
   101    75    73    1
   102    10    11   ar
   103    34    33    2
   104     7     9   ar
   105    53    54    1
   106    20    21   ar
   107    20    18   ar
   108    73    72    1
   109    21    19   ar
   110    33    32    1
   111    35    32    1
   112    35    36    1
   113    93    92    2
   114    96    94    1
   115    11     9   ar
   116    92    91    1
   117    18    17   ar
   118    54    60   am
   119    54    55    2
   120    32    31    1
   121    63    62    2
   122    36    37    1
   123    72    69    1
   124    94    91    1
   125    94    95    1
   126    60    61    1
   127    19    17   ar
   128    69    68    1
   129    69    70    1
   130    39    37   ar
   131    62    68   am
   132    62    61    1
   133    91    90    1
   134    17    16    1
   135    37    38   ar
   136    61    64    1
   137    25    24    2
   138    76    70   am
   139    76    77    1
   140    70    71    2
   141    24    23    1
   142    81    80    1
   143    64    65    1
   144    12    13    1
   145    16    13    1
   146    14    13    1
   147    14    15    2
   148    65    66    1
   149    65    67    1
   150    77    80    1
   151    77    78    1
   152    85    84    2
   153    23    26    1
   154    23    22    1
   155    26    27    1
   156    78    79    2
   157    84    83    1
   158    82    83    1
   159    27    28    1
   160    83    86    1
   161    86    87    1
   162    28    29    1
   163    88    87    2
   164    87    89   am
   165    29    30    1
