@<TRIPOS>MOLECULE
tmp/6fftA00.pdb
 86 78 0 0 0
SMALL
GASTEIGER

@<TRIPOS>ATOM
      1  N         -3.4030  -10.8890   -0.3660 N.3     4  MET4       -0.1245
      2  CA        -2.1340  -10.2100   -0.4800 C.3     4  MET4        0.1570
      3  C         -1.6370   -9.8870    0.9380 C.2     4  MET4        0.2261
      4  O         -2.4540   -9.6720    1.8280 O.2     4  MET4       -0.2867
      5  CB        -2.3060   -8.9460   -1.3180 C.3     4  MET4        0.0387
      6  CG        -0.9490   -8.1980   -1.8560 C.3     4  MET4        0.0595
      7  SD        -0.1200   -6.9770   -0.7600 S.3     4  MET4       -0.1393
      8  CE        -0.9850   -5.5250   -1.1810 C.3     4  MET4        0.0692
      9  N          1.3230   -7.6010    3.0910 N.3     6  LYS6       -0.1245
     10  CA         2.2120   -6.4250    3.0430 C.3     6  LYS6        0.1561
     11  C          2.9010   -6.3350    4.3950 C.2     6  LYS6        0.2260
     12  O          2.2170   -6.3490    5.4260 O.2     6  LYS6       -0.2867
     13  CB         1.4630   -5.1400    2.7330 C.3     6  LYS6        0.0271
     14  CG         2.4800   -4.0000    2.4440 C.3     6  LYS6        0.0035
     15  CD         2.1580   -3.1260    1.2890 C.3     6  LYS6        0.0206
     16  CE         3.0870   -1.8150    1.2210 C.3     6  LYS6        0.1093
     17  NZ         4.1070   -1.8240    0.1480 N.3     6  LYS6       -0.1314
     18  N          5.8830   -4.2580    6.6780 N.3     8  LEU8       -0.1245
     19  CA         6.6810   -3.0600    6.8640 C.3     8  LEU8        0.1561
     20  C          7.5480   -3.1870    8.1070 C.2     8  LEU8        0.2260
     21  O          7.1370   -3.7390    9.1320 O.2     8  LEU8       -0.2867
     22  CB         5.7750   -1.8230    6.9550 C.3     8  LEU8        0.0270
     23  CG         4.7670   -1.5750    5.7830 C.3     8  LEU8        0.0019
     24  CD1        3.8030   -0.4650    6.0350 C.3     8  LEU8        0.0001
     25  CD2        5.6260   -1.2480    4.6230 C.3     8  LEU8        0.0001
     26  N          5.7330   -6.8760   -0.4070 N.3    45  GLU45      -0.1245
     27  CA         4.4680   -7.4840   -0.7720 C.3    45  GLU45       0.1567
     28  C          4.6310   -8.9450   -1.2020 C.2    45  GLU45       0.2260
     29  O          5.6400   -9.3190   -1.7870 O.2    45  GLU45      -0.2867
     30  CB         3.8530   -6.6970   -1.8940 C.3    45  GLU45       0.0388
     31  CG         3.4520   -5.3370   -1.4140 C.3    45  GLU45       0.1160
     32  CD         2.8480   -4.4350   -2.5310 C.2    45  GLU45       0.3649
     33  OE1        2.6890   -4.9010   -3.6460 O.co2  45  GLU45      -0.2457
     34  OE2        2.5770   -3.2770   -2.2610 O.co2  45  GLU45      -0.2457
     35  N         -6.3060   -7.9050    2.0420 N.3    97  THR97      -0.1218
     36  CA        -4.9300   -7.4910    2.3060 C.3    97  THR97       0.1862
     37  C         -4.6410   -7.6170    3.7970 C.2    97  THR97       0.2287
     38  O         -5.2950   -6.9850    4.6200 O.2    97  THR97      -0.2866
     39  CB        -4.7040   -6.0650    1.8000 C.3    97  THR97       0.1770
     40  OG1       -4.8650   -6.1120    0.3990 O.3    97  THR97      -0.2211
     41  CG2       -3.2680   -5.5270    2.0870 C.3    97  THR97       0.0375
     42  N         -1.8280   -6.7220    6.3910 N.3    99  ALA99      -0.1231
     43  CA        -0.6760   -5.8460    6.5650 C.3    99  ALA99       0.1694
     44  C         -0.1390   -6.0410    7.9570 C.2    99  ALA99       0.2592
     45  O         -0.9330   -6.2730    8.9010 O.2    99  ALA99      -0.2718
     46  CB        -1.0770   -4.3910    6.3420 C.3    99  ALA99       0.0304
     47  N          1.1950   -6.0050    8.0910 N.am  100  ALA100     -0.1966
     48  CA         1.8620   -6.0780    9.3720 C.3   100  ALA100      0.1728
     49  C          2.9880   -5.0630    9.4360 C.2   100  ALA100      0.2616
     50  O          3.7330   -4.8610    8.4790 O.2   100  ALA100     -0.2715
     51  CB         2.3430   -7.5080    9.6040 C.3   100  ALA100      0.0334
     52  N          3.1020   -4.4570   10.5820 N.am  101  LEU101     -0.1977
     53  CA         4.1280   -3.5080   10.8780 C.3   101  LEU101      0.1596
     54  C          4.9670   -4.0910   12.0210 C.2   101  LEU101      0.2287
     55  O          4.4410   -4.2820   13.1230 O.2   101  LEU101     -0.2864
     56  CB         3.5180   -2.1520   11.2820 C.3   101  LEU101      0.0297
     57  CG         4.4530   -1.0090   11.6860 C.3   101  LEU101      0.0022
     58  CD1        5.2610   -0.5990   10.5260 C.3   101  LEU101      0.0001
     59  CD2        3.6990    0.0860   12.1440 C.3   101  LEU101      0.0001
     60  N          2.0540   -4.8250   14.8750 N.3   108  SER108     -0.1202
     61  CA         0.6910   -4.4620   14.6060 C.3   108  SER108      0.2020
     62  C          0.2430   -5.1780   13.3370 C.2   108  SER108      0.2619
     63  O          1.0280   -5.3470   12.3940 O.2   108  SER108     -0.2717
     64  CB         0.5260   -2.9640   14.4370 C.3   108  SER108      0.2103
     65  OG         1.0140   -2.2910   15.5260 O.3   108  SER108     -0.2182
     66  N         -1.0280   -5.4870   13.2550 N.am  109  THR109     -0.1938
     67  CA        -1.5650   -6.0930   12.0230 C.3   109  THR109      0.2028
     68  C         -2.9600   -5.5590   11.7730 C.2   109  THR109      0.2642
     69  O         -3.7070   -5.3010   12.7090 O.2   109  THR109     -0.2714
     70  CB        -1.5630   -7.6130   12.0810 C.3   109  THR109      0.1808
     71  OG1       -2.0090   -8.1550   10.8380 O.3   109  THR109     -0.2208
     72  CG2       -2.4810   -8.1220   13.1570 C.3   109  THR109      0.0379
     73  N         -3.2670   -5.2640   10.5160 N.am  110  THR110     -0.1950
     74  CA        -4.6230   -4.8880   10.1720 C.3   110  THR110      0.1897
     75  C         -5.0340   -5.6130    8.9060 C.2   110  THR110      0.2313
     76  O         -4.2080   -6.1920    8.1860 O.2   110  THR110     -0.2863
     77  CB        -4.7410   -3.3550   10.0340 C.3   110  THR110      0.1794
     78  OG1       -6.1120   -2.9570   10.0500 O.3   110  THR110     -0.2208
     79  CG2       -4.0460   -2.9280    8.7780 C.3   110  THR110      0.0378
     80  N         -7.4950   -5.1670    5.3620 N.3   112  VAL112     -0.1245
     81  CA        -8.3010   -4.3790    4.4370 C.3   112  VAL112      0.1561
     82  C         -9.0730   -5.3800    3.5890 C.2   112  VAL112      0.2260
     83  O         -8.4710   -6.2480    2.9410 O.2   112  VAL112     -0.2867
     84  CB        -7.4480   -3.4630    3.5600 C.3   112  VAL112      0.0252
     85  CG1       -8.3440   -2.6880    2.6070 C.3   112  VAL112      0.0019
     86  CG2       -6.6590   -2.5260    4.3960 C.3   112  VAL112      0.0019
@<TRIPOS>BOND
     1    33    32   ar
     2    32    34   ar
     3    32    31    1
     4    30    31    1
     5    30    27    1
     6     6     5    1
     7     6     7    1
     8    29    28    2
     9     5     2    1
    10    28    27    1
    11     8     7    1
    12    27    26    1
    13     2     1    1
    14     2     3    1
    15    17    16    1
    16    40    39    1
    17     3     4    2
    18    16    15    1
    19    15    14    1
    20    39    41    1
    21    39    36    1
    22    35    36    1
    23    36    37    1
    24    14    13    1
    25    85    84    1
    26    13    10    1
    27    83    82    2
    28    10     9    1
    29    10    11    1
    30    84    86    1
    31    84    81    1
    32    82    81    1
    33    37    38    2
    34    11    12    2
    35    81    80    1
    36    25    23    1
    37    23    24    1
    38    23    22    1
    39    46    43    1
    40    42    43    1
    41    43    44    1
    42    18    19    1
    43    19    22    1
    44    19    20    1
    45    44    47   am
    46    44    45    2
    47    47    48    1
    48    20    21    2
    49    76    75    2
    50    50    49    2
    51    79    77    1
    52    75    74    1
    53    48    49    1
    54    48    51    1
    55    49    52   am
    56    77    78    1
    57    77    74    1
    58    74    73    1
    59    73    68   am
    60    58    57    1
    61    52    53    1
    62    71    70    1
    63    53    56    1
    64    53    54    1
    65    56    57    1
    66    57    59    1
    67    68    67    1
    68    68    69    2
    69    54    55    2
    70    67    70    1
    71    67    66    1
    72    70    72    1
    73    63    62    2
    74    66    62   am
    75    62    61    1
    76    64    61    1
    77    64    65    1
    78    61    60    1
