@<TRIPOS>MOLECULE
tmp/6ffvA07.pdb
 122 114 0 0 0
SMALL
GASTEIGER

@<TRIPOS>ATOM
      1  N         25.9220   13.4270   10.6460 N.3     2  GLY2       -0.1225
      2  CA        25.9240   13.8890    9.2760 C.3     2  GLY2        0.1811
      3  C         25.8300   15.3850    9.0700 C.2     2  GLY2        0.2280
      4  O         25.5270   15.8170    7.9480 O.2     2  GLY2       -0.2866
      5  N         28.4490   17.3410    9.5110 N.3     4  ASN4       -0.1225
      6  CA        29.8310   17.7290    9.2540 C.3     4  ASN4        0.1785
      7  C         29.9370   18.1170    7.7820 C.2     4  ASN4        0.2597
      8  O         29.8970   17.2630    6.9050 O.2     4  ASN4       -0.2718
      9  CB        30.7560   16.5670    9.6050 C.3     4  ASN4        0.1169
     10  CG        30.6210   16.1410   11.0670 C.2     4  ASN4        0.2627
     11  OD1       30.1700   15.0440   11.3730 O.2     4  ASN4       -0.2716
     12  ND2       31.0150   17.0190   11.9660 N.am    4  ASN4       -0.0877
     13  N         30.0090   19.4100    7.5040 N.am    5  LEU5       -0.1980
     14  CA        30.1800   19.9160    6.1530 C.3     5  LEU5        0.1596
     15  C         31.6430   20.2320    5.8780 C.2     5  LEU5        0.2287
     16  O         32.4350   20.4280    6.7970 O.2     5  LEU5       -0.2864
     17  CB        29.3450   21.1770    5.9550 C.3     5  LEU5        0.0297
     18  CG        27.8700   21.0280    6.3030 C.3     5  LEU5        0.0022
     19  CD1       27.1750   22.2910    5.9870 C.3     5  LEU5        0.0001
     20  CD2       27.2250   19.8750    5.5590 C.3     5  LEU5        0.0001
     21  N         31.8260   24.3420    1.9630 N.3     9  GLN9       -0.1245
     22  CA        30.3870   24.4540    2.2090 C.3     9  GLN9        0.1566
     23  C         30.1060   25.3850    3.3860 C.2     9  GLN9        0.2260
     24  O         29.1650   26.1980    3.3470 O.2     9  GLN9       -0.2867
     25  CB        29.7820   23.0770    2.4590 C.3     9  GLN9        0.0367
     26  CG        29.7270   22.2160    1.2170 C.3     9  GLN9        0.0905
     27  CD        29.4550   20.7770    1.5600 C.2     9  GLN9        0.2608
     28  OE1       29.7900   20.3280    2.6550 O.2     9  GLN9       -0.2717
     29  NE2       28.8390   20.0470    0.6420 N.am    9  GLN9       -0.0878
     30  N         27.9210   28.8410    3.4520 N.3    13  ILE13      -0.1245
     31  CA        26.8670   29.1280    4.4330 C.3    13  ILE13       0.1561
     32  C         27.1420   30.4460    5.1340 C.2    13  ILE13       0.2260
     33  O         26.2410   31.2810    5.3150 O.2    13  ILE13      -0.2867
     34  CB        26.7370   27.9780    5.4490 C.3    13  ILE13       0.0252
     35  CG1       26.0940   26.7730    4.7770 C.3    13  ILE13       0.0019
     36  CG2       25.9670   28.4350    6.7210 C.3    13  ILE13       0.0019
     37  CD1       26.3150   25.4950    5.5660 C.3    13  ILE13       0.0001
     38  N         24.5960   33.5840    5.1940 N.3    17  LEU17      -0.1245
     39  CA        24.0070   34.0630    6.4460 C.3    17  LEU17       0.1561
     40  C         24.2550   35.5590    6.6420 C.2    17  LEU17       0.2260
     41  O         23.3610   36.2850    7.0820 O.2    17  LEU17      -0.2867
     42  CB        24.5300   33.2400    7.6390 C.3    17  LEU17       0.0270
     43  CG        24.1110   31.7420    7.6930 C.3    17  LEU17       0.0019
     44  CD1       24.6620   31.0300    8.9410 C.3    17  LEU17       0.0001
     45  CD2       22.6030   31.5290    7.6030 C.3    17  LEU17       0.0001
     46  N         21.9250   28.6290   13.3080 N.3    45  LEU45      -0.1245
     47  CA        22.4470   27.8560   12.1890 C.3    45  LEU45       0.1561
     48  C         23.9790   27.8720   12.1620 C.2    45  LEU45       0.2260
     49  O         24.5950   26.8610   11.8050 O.2    45  LEU45      -0.2867
     50  CB        21.8390   28.3780   10.8770 C.3    45  LEU45       0.0270
     51  CG        20.3300   28.0940   10.7190 C.3    45  LEU45       0.0019
     52  CD1       19.7070   28.8990    9.6080 C.3    45  LEU45       0.0001
     53  CD2       20.0690   26.6060   10.4790 C.3    45  LEU45       0.0001
     54  N         26.1320   24.3970   12.0380 N.3    49  TYR49      -0.1241
     55  CA        26.8740   24.0990   10.8140 C.3    49  TYR49       0.1605
     56  C         28.3230   24.5590   10.8000 C.2    49  TYR49       0.2264
     57  O         29.1360   23.9170   10.1470 O.2    49  TYR49      -0.2867
     58  CB        26.1680   24.7300    9.5910 C.3    49  TYR49       0.0534
     59  CG        24.9250   23.9910    9.1350 C.ar   49  TYR49      -0.0201
     60  CD1       24.9900   22.6530    8.7520 C.ar   49  TYR49      -0.0009
     61  CD2       23.6810   24.6340    9.0880 C.ar   49  TYR49      -0.0009
     62  CE1       23.8500   21.9650    8.3360 C.ar   49  TYR49       0.0417
     63  CE2       22.5380   23.9530    8.6590 C.ar   49  TYR49       0.0417
     64  CZ        22.6390   22.6270    8.2870 C.ar   49  TYR49       0.1957
     65  OH        21.5220   21.9510    7.8750 O.3    49  TYR49      -0.2866
     66  N         16.1980   26.2340    6.0850 N.3   172  ALA172     -0.1245
     67  CA        17.5590   25.7230    5.9970 C.3   172  ALA172      0.1562
     68  C         17.5530   24.2000    5.9400 C.2   172  ALA172      0.2260
     69  O         18.2670   23.5980    5.1360 O.2   172  ALA172     -0.2867
     70  CB        18.3950   26.2210    7.1800 C.3   172  ALA172      0.0290
     71  N         16.4180   23.0740    2.4190 N.3   175  VAL175     -0.1231
     72  CA        17.4560   23.2200    1.4040 C.3   175  VAL175      0.1692
     73  C         18.5020   22.1280    1.5640 C.2   175  VAL175      0.2592
     74  O         18.9510   21.5220    0.5790 O.2   175  VAL175     -0.2718
     75  CB        18.0790   24.6280    1.4940 C.3   175  VAL175      0.0266
     76  CG1       19.3370   24.7240    0.6550 C.3   175  VAL175      0.0020
     77  CG2       17.0600   25.6820    1.0790 C.3   175  VAL175      0.0020
     78  N         18.9050   21.8560    2.8110 N.am  176  HIS176     -0.1976
     79  CA        19.8910   20.8100    3.0560 C.3   176  HIS176      0.1656
     80  C         19.3870   19.4590    2.5610 C.2   176  HIS176      0.2291
     81  O         20.0900   18.7530    1.8290 O.2   176  HIS176     -0.2864
     82  CB        20.2560   20.7610    4.5450 C.3   176  HIS176      0.0771
     83  CG        21.5130   19.9970    4.8190 C.ar  176  HIS176      0.0820
     84  ND1       22.2060   20.0940    6.0080 N.ar  176  HIS176     -0.2267
     85  CD2       22.2090   19.1230    4.0460 C.ar  176  HIS176      0.1154
     86  CE1       23.2670   19.3030    5.9610 C.ar  176  HIS176      0.1986
     87  NE2       23.2950   18.7090    4.7800 N.ar  176  HIS176     -0.2212
     88  N         19.4390   19.4850   -1.2720 N.3   179  LEU179     -0.1231
     89  CA        20.7790   19.3680   -1.8390 C.3   179  LEU179      0.1693
     90  C         21.3880   18.0000   -1.5620 C.2   179  LEU179      0.2591
     91  O         22.1350   17.4780   -2.4000 O.2   179  LEU179     -0.2718
     92  CB        21.6790   20.4820   -1.3030 C.3   179  LEU179      0.0284
     93  CG        21.2830   21.8890   -1.7550 C.3   179  LEU179      0.0019
     94  CD1       22.1630   22.9390   -1.0840 C.3   179  LEU179      0.0001
     95  CD2       21.3780   21.9970   -3.2760 C.3   179  LEU179      0.0001
     96  N         21.0810   17.3980   -0.4070 N.am  180  ALA180     -0.1980
     97  CA        21.5720   16.0470   -0.1340 C.3   180  ALA180      0.1597
     98  C         21.0330   15.0560   -1.1510 C.2   180  ALA180      0.2287
     99  O         21.7600   14.1560   -1.5980 O.2   180  ALA180     -0.2864
    100  CB        21.1950   15.6060    1.2840 C.3   180  ALA180      0.0319
    101  N         22.7970   15.4060   -4.5810 N.3   183  PHE183     -0.1227
    102  CA        24.1960   14.9970   -4.6350 C.3   183  PHE183      0.1736
    103  C         24.4460   13.6030   -4.0650 C.2   183  PHE183      0.2595
    104  O         25.6070   13.2480   -3.8300 O.2   183  PHE183     -0.2718
    105  CB        25.0700   16.0210   -3.9080 C.3   183  PHE183      0.0547
    106  CG        25.1800   17.3300   -4.6320 C.ar  183  PHE183     -0.0202
    107  CD1       26.0520   17.4680   -5.7040 C.ar  183  PHE183     -0.0042
    108  CD2       24.3990   18.4140   -4.2590 C.ar  183  PHE183     -0.0042
    109  CE1       26.1460   18.6630   -6.3870 C.ar  183  PHE183     -0.0003
    110  CE2       24.4870   19.6120   -4.9280 C.ar  183  PHE183     -0.0003
    111  CZ        25.3620   19.7400   -5.9980 C.ar  183  PHE183     -0.0000
    112  N         23.3890   12.8080   -3.8580 N.am  184  ARG184     -0.1980
    113  CA        23.5230   11.4900   -3.2360 C.3   184  ARG184      0.1597
    114  C         24.6510   10.6710   -3.8640 C.2   184  ARG184      0.2287
    115  O         25.5950   10.2630   -3.1780 O.2   184  ARG184     -0.2864
    116  CB        22.1990   10.7330   -3.3380 C.3   184  ARG184      0.0334
    117  CG        22.1960    9.4250   -2.5720 C.3   184  ARG184      0.0492
    118  CD        21.9910    9.6870   -1.0870 C.3   184  ARG184      0.2205
    119  NE        22.3650    8.5480   -0.2520 N.pl3 184  ARG184     -0.0865
    120  CZ        23.3670    8.5620    0.6230 C.cat 184  ARG184      0.5346
    121  NH1       24.0920    9.6650    0.7850 N.pl3 184  ARG184      0.1354
    122  NH2       23.6390    7.4790    1.3430 N.pl3 184  ARG184      0.1354
@<TRIPOS>BOND
     1   109   111   ar
     2   109   107   ar
     3   111   110   ar
     4   107   106   ar
     5   110   108   ar
     6   102   101    1
     7   102   103    1
     8   102   105    1
     9   106   108   ar
    10   106   105    1
    11   103   112   am
    12   103   104    2
    13   114   113    1
    14   114   115    2
    15   112   113    1
    16   116   113    1
    17   116   117    1
    18    95    93    1
    19   117   118    1
    20    91    90    2
    21    89    90    1
    22    89    92    1
    23    89    88    1
    24    93    92    1
    25    93    94    1
    26    99    98    2
    27    90    96   am
    28    98    97    1
    29   118   119    1
    30    96    97    1
    31   119   120    2
    32    97   100    1
    33    74    73    2
    34   120   121    1
    35   120   122    1
    36    29    27   am
    37    76    75    1
    38    77    75    1
    39    26    27    1
    40    26    25    1
    41    72    75    1
    42    72    73    1
    43    72    71    1
    44    27    28    2
    45    73    78   am
    46    81    80    2
    47    21    22    1
    48    22    25    1
    49    22    23    1
    50    80    79    1
    51    78    79    1
    52    79    82    1
    53    24    23    2
    54    30    31    1
    55    85    87   ar
    56    85    83   ar
    57    31    32    1
    58    31    34    1
    59    82    83    1
    60    35    34    1
    61    35    37    1
    62    87    86   ar
    63    83    84   ar
    64    32    33    2
    65    69    68    2
    66    38    39    1
    67    34    36    1
    68    20    18    1
    69    15    14    1
    70    15    16    2
    71    68    67    1
    72    17    14    1
    73    17    18    1
    74    86    84   ar
    75    19    18    1
    76    67    66    1
    77    67    70    1
    78    14    13    1
    79    39    40    1
    80    39    42    1
    81    40    41    2
    82     8     7    2
    83    13     7   am
    84    45    43    1
    85    42    43    1
    86    43    44    1
    87     7     6    1
    88    65    64    1
    89     4     3    2
    90    64    62   ar
    91    64    63   ar
    92    62    60   ar
    93    63    61   ar
    94    60    59   ar
    95     3     2    1
    96    61    59   ar
    97    59    58    1
    98     6     5    1
    99     6     9    1
   100     2     1    1
   101    58    55    1
   102     9    10    1
   103    52    51    1
   104    57    56    2
   105    53    51    1
   106    51    50    1
   107    56    55    1
   108    55    54    1
   109    50    47    1
   110    10    11    2
   111    10    12   am
   112    49    48    2
   113    48    47    1
   114    47    46    1
