@<TRIPOS>MOLECULE
tmp/6ffvA05.pdb
 141 134 0 0 0
SMALL
GASTEIGER

@<TRIPOS>ATOM
      1  N         26.2650   11.8190   12.8070 N.3     1  MET1       -0.1230
      2  CA        24.9580   12.4420   12.6460 C.3     1  MET1        0.1702
      3  C         24.8060   13.0410   11.2500 C.2     1  MET1        0.2593
      4  O         23.6950   13.1570   10.7320 O.2     1  MET1       -0.2718
      5  CB        24.7350   13.5130   13.7190 C.3     1  MET1        0.0401
      6  CG        25.9610   14.3420   14.0850 C.3     1  MET1        0.0596
      7  SD        26.6150   15.3740   12.7570 S.3     1  MET1       -0.1393
      8  CE        27.6660   16.4860   13.6930 C.3     1  MET1        0.0692
      9  N         25.9220   13.4270   10.6460 N.am    2  GLY2       -0.1942
     10  CA        25.9240   13.8890    9.2760 C.3     2  GLY2        0.2014
     11  C         25.8300   15.3850    9.0700 C.2     2  GLY2        0.2638
     12  O         25.5270   15.8170    7.9480 O.2     2  GLY2       -0.2714
     13  N         26.0710   16.1930   10.1040 N.am    3  LEU3       -0.1977
     14  CA        26.0820   17.6400    9.9400 C.3     3  LEU3        0.1596
     15  C         27.4990   18.1890    9.8720 C.2     3  LEU3        0.2287
     16  O         27.7230   19.3770   10.1290 O.2     3  LEU3       -0.2864
     17  CB        25.2800   18.3160   11.0500 C.3     3  LEU3        0.0297
     18  CG        23.8180   17.8720   11.0870 C.3     3  LEU3        0.0022
     19  CD1       22.9960   18.8500   11.8970 C.3     3  LEU3        0.0001
     20  CD2       23.2370   17.6870    9.6780 C.3     3  LEU3        0.0001
     21  N         21.7010   30.4690   15.4510 N.3    44  PHE44      -0.1227
     22  CA        21.4520   29.0420   15.6740 C.3    44  PHE44       0.1736
     23  C         22.0870   28.2000   14.5650 C.2    44  PHE44       0.2595
     24  O         22.7630   27.2010   14.8360 O.2    44  PHE44      -0.2718
     25  CB        19.9440   28.8070   15.7530 C.3    44  PHE44       0.0547
     26  CG        19.5550   27.3880   16.0170 C.ar   44  PHE44      -0.0202
     27  CD1       19.4920   26.8960   17.3230 C.ar   44  PHE44      -0.0042
     28  CD2       19.2260   26.5380   14.9620 C.ar   44  PHE44      -0.0042
     29  CE1       19.1100   25.5520   17.5800 C.ar   44  PHE44      -0.0003
     30  CE2       18.8520   25.2030   15.2070 C.ar   44  PHE44      -0.0003
     31  CZ        18.7920   24.7160   16.5220 C.ar   44  PHE44      -0.0000
     32  N         21.9250   28.6290   13.3080 N.am   45  LEU45      -0.1980
     33  CA        22.4470   27.8560   12.1890 C.3    45  LEU45       0.1596
     34  C         23.9790   27.8720   12.1620 C.2    45  LEU45       0.2287
     35  O         24.5950   26.8610   11.8050 O.2    45  LEU45      -0.2864
     36  CB        21.8390   28.3780   10.8770 C.3    45  LEU45       0.0297
     37  CG        20.3300   28.0940   10.7190 C.3    45  LEU45       0.0022
     38  CD1       19.7070   28.8990    9.6080 C.3    45  LEU45       0.0001
     39  CD2       20.0690   26.6060   10.4790 C.3    45  LEU45       0.0001
     40  N         24.7230   25.0900   14.3650 N.3    48  VAL48      -0.1231
     41  CA        24.4890   23.7890   13.7560 C.3    48  VAL48       0.1692
     42  C         25.6310   23.4250   12.8130 C.2    48  VAL48       0.2592
     43  O         26.0760   22.2780   12.7840 O.2    48  VAL48      -0.2718
     44  CB        23.1310   23.7750   13.0210 C.3    48  VAL48       0.0266
     45  CG1       22.9370   22.4430   12.2650 C.3    48  VAL48       0.0020
     46  CG2       21.9760   24.0010   13.9990 C.3    48  VAL48       0.0020
     47  N         26.1320   24.3970   12.0380 N.am   49  TYR49      -0.1976
     48  CA        26.8740   24.0990   10.8140 C.3    49  TYR49       0.1639
     49  C         28.3230   24.5590   10.8000 C.2    49  TYR49       0.2290
     50  O         29.1360   23.9170   10.1470 O.2    49  TYR49      -0.2864
     51  CB        26.1680   24.7300    9.5910 C.3    49  TYR49       0.0560
     52  CG        24.9250   23.9910    9.1350 C.ar   49  TYR49      -0.0198
     53  CD1       24.9900   22.6530    8.7520 C.ar   49  TYR49      -0.0009
     54  CD2       23.6810   24.6340    9.0880 C.ar   49  TYR49      -0.0009
     55  CE1       23.8500   21.9650    8.3360 C.ar   49  TYR49       0.0417
     56  CE2       22.5380   23.9530    8.6590 C.ar   49  TYR49       0.0417
     57  CZ        22.6390   22.6270    8.2870 C.ar   49  TYR49       0.1957
     58  OH        21.5220   21.9510    7.8750 O.3    49  TYR49      -0.2866
     59  N         22.0830   21.0440   19.3920 N.3   102  TYR102     -0.1241
     60  CA        21.1810   20.2480   18.5670 C.3   102  TYR102      0.1605
     61  C         21.9550   19.3100   17.6450 C.2   102  TYR102      0.2264
     62  O         21.6130   18.1280   17.5230 O.2   102  TYR102     -0.2867
     63  CB        20.2470   21.1300   17.7340 C.3   102  TYR102      0.0534
     64  CG        19.5480   20.2780   16.6970 C.ar  102  TYR102     -0.0201
     65  CD1       18.5110   19.4240   17.0660 C.ar  102  TYR102     -0.0009
     66  CD2       19.9780   20.2540   15.3710 C.ar  102  TYR102     -0.0009
     67  CE1       17.8940   18.5990   16.1310 C.ar  102  TYR102      0.0417
     68  CE2       19.3730   19.4220   14.4360 C.ar  102  TYR102      0.0417
     69  CZ        18.3300   18.6040   14.8230 C.ar  102  TYR102      0.1957
     70  OH        17.7180   17.7920   13.9000 O.3   102  TYR102     -0.2866
     71  N         21.5870   15.2000   16.1860 N.3   106  HIS106     -0.1241
     72  CA        20.6680   15.2770   15.0590 C.3   106  HIS106      0.1621
     73  C         20.3660   13.8960   14.4760 C.2   106  HIS106      0.2264
     74  O         21.1920   12.9810   14.5240 O.2   106  HIS106     -0.2867
     75  CB        21.2490   16.1660   13.9660 C.3   106  HIS106      0.0745
     76  CG        20.5540   16.0320   12.6470 C.ar  106  HIS106      0.0817
     77  ND1       19.3480   16.6420   12.3760 N.ar  106  HIS106     -0.2268
     78  CD2       20.8870   15.3400   11.5300 C.ar  106  HIS106      0.1154
     79  CE1       18.9760   16.3480   11.1420 C.ar  106  HIS106      0.1986
     80  NE2       19.8920   15.5600   10.6070 N.ar  106  HIS106     -0.2212
     81  N         17.4440   12.4070   11.0910 N.3   108  LEU108     -0.1245
     82  CA        16.3340   12.6950   10.1850 C.3   108  LEU108      0.1561
     83  C         15.2120   11.7170   10.5140 C.2   108  LEU108      0.2260
     84  O         15.1080   10.6360    9.9340 O.2   108  LEU108     -0.2867
     85  CB        16.7880   12.5950    8.7340 C.3   108  LEU108      0.0270
     86  CG        16.0170   13.4140    7.6950 C.3   108  LEU108      0.0019
     87  CD1       16.1400   14.8960    7.9790 C.3   108  LEU108      0.0001
     88  CD2       16.5040   13.0980    6.2910 C.3   108  LEU108      0.0001
     89  N         14.6870   18.8390   17.8540 N.3   116  LEU116     -0.1245
     90  CA        14.8480   20.1620   17.2650 C.3   116  LEU116      0.1561
     91  C         13.7880   21.1270   17.7860 C.2   116  LEU116      0.2260
     92  O         14.1030   22.2700   18.1390 O.2   116  LEU116     -0.2867
     93  CB        14.7890   20.0580   15.7460 C.3   116  LEU116      0.0270
     94  CG        14.7780   21.3860   14.9900 C.3   116  LEU116      0.0019
     95  CD1       16.0860   22.1390   15.2040 C.3   116  LEU116      0.0001
     96  CD2       14.5280   21.1340   13.5080 C.3   116  LEU116      0.0001
     97  N         14.7520   28.2530   10.2570 N.3   169  VAL169     -0.1245
     98  CA        15.4670   26.9960   10.4880 C.3   169  VAL169      0.1561
     99  C         14.8710   25.8910    9.6210 C.2   169  VAL169      0.2260
    100  O         15.5970   25.0800    9.0310 O.2   169  VAL169     -0.2867
    101  CB        15.4460   26.6250   11.9880 C.3   169  VAL169      0.0252
    102  CG1       16.0010   25.2340   12.2020 C.3   169  VAL169      0.0019
    103  CG2       16.2530   27.6650   12.8180 C.3   169  VAL169      0.0019
    104  N         16.7240   23.5600    6.7620 N.3   173  ALA173     -0.1245
    105  CA        16.6680   22.1010    6.7320 C.3   173  ALA173      0.1562
    106  C         16.1190   21.5990    5.4050 C.2   173  ALA173      0.2260
    107  O         16.5650   20.5670    4.8920 O.2   173  ALA173     -0.2867
    108  CB        15.8240   21.5810    7.8970 C.3   173  ALA173      0.0290
    109  N         18.9050   21.8560    2.8110 N.3   176  HIS176     -0.1226
    110  CA        19.8910   20.8100    3.0560 C.3   176  HIS176      0.1752
    111  C         19.3870   19.4590    2.5610 C.2   176  HIS176      0.2595
    112  O         20.0900   18.7530    1.8290 O.2   176  HIS176     -0.2718
    113  CB        20.2560   20.7610    4.5450 C.3   176  HIS176      0.0759
    114  CG        21.5130   19.9970    4.8190 C.ar  176  HIS176      0.0818
    115  ND1       22.2060   20.0940    6.0080 N.ar  176  HIS176     -0.2268
    116  CD2       22.2090   19.1230    4.0460 C.ar  176  HIS176      0.1154
    117  CE1       23.2670   19.3030    5.9610 C.ar  176  HIS176      0.1986
    118  NE2       23.2950   18.7090    4.7800 N.ar  176  HIS176     -0.2212
    119  N         18.1640   19.0830    2.9340 N.am  177  VAL177     -0.1980
    120  CA        17.6110   17.8180    2.4490 C.3   177  VAL177      0.1595
    121  C         17.5930   17.7890    0.9240 C.2   177  VAL177      0.2287
    122  O         17.9730   16.7900    0.3020 O.2   177  VAL177     -0.2864
    123  CB        16.2050   17.5780    3.0270 C.3   177  VAL177      0.0276
    124  CG1       15.5580   16.3470    2.3660 C.3   177  VAL177      0.0022
    125  CG2       16.2810   17.4040    4.5230 C.3   177  VAL177      0.0022
    126  N         21.0810   17.3980   -0.4070 N.3   180  ALA180     -0.1245
    127  CA        21.5720   16.0470   -0.1340 C.3   180  ALA180      0.1562
    128  C         21.0330   15.0560   -1.1510 C.2   180  ALA180      0.2260
    129  O         21.7600   14.1560   -1.5980 O.2   180  ALA180     -0.2867
    130  CB        21.1950   15.6060    1.2840 C.3   180  ALA180      0.0290
    131  N         23.3890   12.8080   -3.8580 N.3   184  ARG184     -0.1245
    132  CA        23.5230   11.4900   -3.2360 C.3   184  ARG184      0.1563
    133  C         24.6510   10.6710   -3.8640 C.2   184  ARG184      0.2260
    134  O         25.5950   10.2630   -3.1780 O.2   184  ARG184     -0.2867
    135  CB        22.1990   10.7330   -3.3380 C.3   184  ARG184      0.0307
    136  CG        22.1960    9.4250   -2.5720 C.3   184  ARG184      0.0489
    137  CD        21.9910    9.6870   -1.0870 C.3   184  ARG184      0.2205
    138  NE        22.3650    8.5480   -0.2520 N.pl3 184  ARG184     -0.0865
    139  CZ        23.3670    8.5620    0.6230 C.cat 184  ARG184      0.5346
    140  NH1       24.0920    9.6650    0.7850 N.pl3 184  ARG184      0.1354
    141  NH2       23.6390    7.4790    1.3430 N.pl3 184  ARG184      0.1354
@<TRIPOS>BOND
     1   133   132    1
     2   133   134    2
     3   131   132    1
     4   135   132    1
     5   135   136    1
     6   136   137    1
     7   129   128    2
     8   128   127    1
     9   137   138    1
    10   126   127    1
    11   138   139    2
    12   127   130    1
    13   122   121    2
    14   139   140    1
    15   139   141    1
    16   121   120    1
    17   112   111    2
    18   124   123    1
    19   120   119    1
    20   120   123    1
    21   111   119   am
    22   111   110    1
    23   109   110    1
    24   123   125    1
    25   110   113    1
    26   116   118   ar
    27   116   114   ar
    28   113   114    1
    29   118   117   ar
    30   114   115   ar
    31   107   106    2
    32   106   105    1
    33   117   115   ar
    34    88    86    1
    35   105   104    1
    36   105   108    1
    37    86    87    1
    38    86    85    1
    39    58    57    1
    40    12    11    2
    41    57    55   ar
    42    57    56   ar
    43    55    53   ar
    44    56    54   ar
    45    85    82    1
    46    53    52   ar
    47   100    99    2
    48    11    10    1
    49    11    13   am
    50    54    52   ar
    51    52    51    1
    52    10     9    1
    53    51    48    1
    54    38    37    1
    55    99    98    1
    56    20    18    1
    57    15    14    1
    58    15    16    2
    59    84    83    2
    60    14    13    1
    61    14    17    1
    62    50    49    2
    63    82    83    1
    64    82    81    1
    65    97    98    1
    66    39    37    1
    67    98   101    1
    68    80    79   ar
    69    80    78   ar
    70     9     3   am
    71    37    36    1
    72     4     3    2
    73    49    48    1
    74    48    47    1
    75    36    33    1
    76    17    18    1
    77    18    19    1
    78    79    77   ar
    79     3     2    1
    80    78    76   ar
    81    35    34    2
    82   101   102    1
    83   101   103    1
    84    47    42   am
    85    34    33    1
    86    33    32    1
    87    45    44    1
    88    77    76   ar
    89     2     1    1
    90     2     5    1
    91    76    75    1
    92     7     8    1
    93     7     6    1
    94    43    42    2
    95    42    41    1
    96    44    41    1
    97    44    46    1
    98    32    23   am
    99    96    94    1
   100     5     6    1
   101    41    40    1
   102    70    69    1
   103    75    72    1
   104    68    69   ar
   105    68    66   ar
   106    73    74    2
   107    73    72    1
   108    23    24    2
   109    23    22    1
   110    69    67   ar
   111    28    30   ar
   112    28    26   ar
   113    94    95    1
   114    94    93    1
   115    72    71    1
   116    30    31   ar
   117    66    64   ar
   118    21    22    1
   119    22    25    1
   120    93    90    1
   121    25    26    1
   122    26    27   ar
   123    67    65   ar
   124    31    29   ar
   125    64    65   ar
   126    64    63    1
   127    90    91    1
   128    90    89    1
   129    27    29   ar
   130    62    61    2
   131    61    60    1
   132    63    60    1
   133    91    92    2
   134    60    59    1
