@<TRIPOS>MOLECULE
tmp/6ffvA09.pdb
 83 76 0 0 0
SMALL
GASTEIGER

@<TRIPOS>ATOM
      1  N         31.9890   20.3210    4.5920 N.3     6  THR6       -0.1218
      2  CA        33.3540   20.6820    4.2280 C.3     6  THR6        0.1862
      3  C         33.6340   22.1470    4.5790 C.2     6  THR6        0.2287
      4  O         32.7270   22.9580    4.8290 O.2     6  THR6       -0.2866
      5  CB        33.6100   20.4640    2.7250 C.3     6  THR6        0.1770
      6  OG1       32.8250   21.3980    1.9630 O.3     6  THR6       -0.2211
      7  CG2       33.2540   19.0230    2.2820 C.3     6  THR6        0.0375
      8  N         34.5800   24.4550    2.4630 N.3     8  ARG8       -0.1231
      9  CA        34.0110   25.4330    1.5420 C.3     8  ARG8        0.1694
     10  C         32.4800   25.4040    1.4880 C.2     8  ARG8        0.2591
     11  O         31.8740   26.3830    1.0420 O.2     8  ARG8       -0.2718
     12  CB        34.6370   25.2720    0.1600 C.3     8  ARG8        0.0321
     13  CG        33.9360   24.3920   -0.8180 C.3     8  ARG8        0.0489
     14  CD        34.8700   24.2460   -2.0190 C.3     8  ARG8        0.2205
     15  NE        34.2370   23.5930   -3.1530 N.pl3   8  ARG8       -0.0865
     16  CZ        34.9030   23.1600   -4.2150 C.cat   8  ARG8        0.5346
     17  NH1       36.2270   23.3020   -4.2800 N.pl3   8  ARG8        0.1354
     18  NH2       34.2470   22.5720   -5.2000 N.pl3   8  ARG8        0.1354
     19  N         31.8260   24.3420    1.9630 N.am    9  GLN9       -0.1979
     20  CA        30.3870   24.4540    2.2090 C.3     9  GLN9        0.1601
     21  C         30.1060   25.3850    3.3860 C.2     9  GLN9        0.2287
     22  O         29.1650   26.1980    3.3470 O.2     9  GLN9       -0.2864
     23  CB        29.7820   23.0770    2.4590 C.3     9  GLN9        0.0394
     24  CG        29.7270   22.2160    1.2170 C.3     9  GLN9        0.0908
     25  CD        29.4550   20.7770    1.5600 C.2     9  GLN9        0.2608
     26  OE1       29.7900   20.3280    2.6550 O.2     9  GLN9       -0.2717
     27  NE2       28.8390   20.0470    0.6420 N.am    9  GLN9       -0.0878
     28  N         30.4900   28.9850    2.2140 N.3    12  ALA12      -0.1231
     29  CA        29.2880   29.3670    1.4860 C.3    12  ALA12       0.1694
     30  C         28.1460   29.6940    2.4430 C.2    12  ALA12       0.2591
     31  O         27.4700   30.7200    2.2850 O.2    12  ALA12      -0.2718
     32  CB        28.8920   28.2540    0.5160 C.3    12  ALA12       0.0304
     33  N         27.9210   28.8410    3.4520 N.am   13  ILE13      -0.1980
     34  CA        26.8670   29.1280    4.4330 C.3    13  ILE13       0.1595
     35  C         27.1420   30.4460    5.1340 C.2    13  ILE13       0.2287
     36  O         26.2410   31.2810    5.3150 O.2    13  ILE13      -0.2864
     37  CB        26.7370   27.9780    5.4490 C.3    13  ILE13       0.0276
     38  CG1       26.0940   26.7730    4.7770 C.3    13  ILE13       0.0022
     39  CG2       25.9670   28.4350    6.7210 C.3    13  ILE13       0.0022
     40  CD1       26.3150   25.4950    5.5660 C.3    13  ILE13       0.0001
     41  N         26.1010   33.2940    2.8300 N.3    16  VAL16      -0.1245
     42  CA        24.6480   33.4090    2.7330 C.3    16  VAL16       0.1561
     43  C         24.0530   33.9690    4.0320 C.2    16  VAL16       0.2260
     44  O         23.1330   34.7940    3.9940 O.2    16  VAL16      -0.2867
     45  CB        24.0180   32.0620    2.3500 C.3    16  VAL16       0.0252
     46  CG1       22.4820   32.1520    2.4030 C.3    16  VAL16       0.0019
     47  CG2       24.4850   31.6240    0.9440 C.3    16  VAL16       0.0019
     48  N         16.1980   26.2340    6.0850 N.3   172  ALA172     -0.1245
     49  CA        17.5590   25.7230    5.9970 C.3   172  ALA172      0.1562
     50  C         17.5530   24.2000    5.9400 C.2   172  ALA172      0.2260
     51  O         18.2670   23.5980    5.1360 O.2   172  ALA172     -0.2867
     52  CB        18.3950   26.2210    7.1800 C.3   172  ALA172      0.0290
     53  N         16.4180   23.0740    2.4190 N.3   175  VAL175     -0.1245
     54  CA        17.4560   23.2200    1.4040 C.3   175  VAL175      0.1561
     55  C         18.5020   22.1280    1.5640 C.2   175  VAL175      0.2260
     56  O         18.9510   21.5220    0.5790 O.2   175  VAL175     -0.2867
     57  CB        18.0790   24.6280    1.4940 C.3   175  VAL175      0.0252
     58  CG1       19.3370   24.7240    0.6550 C.3   175  VAL175      0.0019
     59  CG2       17.0600   25.6820    1.0790 C.3   175  VAL175      0.0019
     60  N         19.4390   19.4850   -1.2720 N.3   179  LEU179     -0.1231
     61  CA        20.7790   19.3680   -1.8390 C.3   179  LEU179      0.1693
     62  C         21.3880   18.0000   -1.5620 C.2   179  LEU179      0.2591
     63  O         22.1350   17.4780   -2.4000 O.2   179  LEU179     -0.2718
     64  CB        21.6790   20.4820   -1.3030 C.3   179  LEU179      0.0284
     65  CG        21.2830   21.8890   -1.7550 C.3   179  LEU179      0.0019
     66  CD1       22.1630   22.9390   -1.0840 C.3   179  LEU179      0.0001
     67  CD2       21.3780   21.9970   -3.2760 C.3   179  LEU179      0.0001
     68  N         21.0810   17.3980   -0.4070 N.am  180  ALA180     -0.1980
     69  CA        21.5720   16.0470   -0.1340 C.3   180  ALA180      0.1597
     70  C         21.0330   15.0560   -1.1510 C.2   180  ALA180      0.2287
     71  O         21.7600   14.1560   -1.5980 O.2   180  ALA180     -0.2864
     72  CB        21.1950   15.6060    1.2840 C.3   180  ALA180      0.0319
     73  N         22.7970   15.4060   -4.5810 N.3   183  PHE183     -0.1241
     74  CA        24.1960   14.9970   -4.6350 C.3   183  PHE183      0.1605
     75  C         24.4460   13.6030   -4.0650 C.2   183  PHE183      0.2264
     76  O         25.6070   13.2480   -3.8300 O.2   183  PHE183     -0.2867
     77  CB        25.0700   16.0210   -3.9080 C.3   183  PHE183      0.0534
     78  CG        25.1800   17.3300   -4.6320 C.ar  183  PHE183     -0.0203
     79  CD1       26.0520   17.4680   -5.7040 C.ar  183  PHE183     -0.0042
     80  CD2       24.3990   18.4140   -4.2590 C.ar  183  PHE183     -0.0042
     81  CE1       26.1460   18.6630   -6.3870 C.ar  183  PHE183     -0.0003
     82  CE2       24.4870   19.6120   -4.9280 C.ar  183  PHE183     -0.0003
     83  CZ        25.3620   19.7400   -5.9980 C.ar  183  PHE183     -0.0000
@<TRIPOS>BOND
     1    81    83   ar
     2    81    79   ar
     3    83    82   ar
     4    79    78   ar
     5    18    16    1
     6    82    80   ar
     7    74    73    1
     8    74    75    1
     9    74    77    1
    10    78    80   ar
    11    78    77    1
    12    17    16    1
    13    16    15    2
    14    75    76    2
    15    67    65    1
    16    15    14    1
    17    63    62    2
    18    14    13    1
    19    61    62    1
    20    61    64    1
    21    61    60    1
    22    65    64    1
    23    65    66    1
    24    71    70    2
    25    62    68   am
    26    70    69    1
    27    13    12    1
    28    68    69    1
    29    69    72    1
    30    12     9    1
    31    32    29    1
    32    56    55    2
    33    27    25   am
    34    58    57    1
    35    47    45    1
    36    11    10    2
    37    59    57    1
    38    24    25    1
    39    24    23    1
    40    54    57    1
    41    54    55    1
    42    54    53    1
    43    29    28    1
    44    29    30    1
    45    10     9    1
    46    10    19   am
    47     9     8    1
    48    25    26    2
    49    19    20    1
    50     6     5    1
    51    20    23    1
    52    20    21    1
    53     7     5    1
    54    31    30    2
    55    45    46    1
    56    45    42    1
    57    30    33   am
    58     5     2    1
    59    42    41    1
    60    42    43    1
    61    22    21    2
    62    33    34    1
    63    44    43    2
    64     2     3    1
    65     2     1    1
    66    34    35    1
    67    34    37    1
    68     3     4    2
    69    38    37    1
    70    38    40    1
    71    35    36    2
    72    51    50    2
    73    37    39    1
    74    50    49    1
    75    49    48    1
    76    49    52    1
