@<TRIPOS>MOLECULE
tmp/6ffvA06.pdb
 65 60 0 0 0
SMALL
GASTEIGER

@<TRIPOS>ATOM
      1  N         12.9910   15.4140   15.0070 N.3   113  LEU113     -0.1245
      2  CA        12.1710   16.6180   14.9520 C.3   113  LEU113      0.1561
      3  C         11.7590   17.0570   16.3530 C.2   113  LEU113      0.2260
      4  O         11.7910   18.2550   16.6670 O.2   113  LEU113     -0.2867
      5  CB        10.9540   16.3680   14.0650 C.3   113  LEU113      0.0270
      6  CG         9.9820   17.5130   13.7910 C.3   113  LEU113      0.0019
      7  CD1       10.6930   18.7160   13.1860 C.3   113  LEU113      0.0001
      8  CD2        8.8690   17.0290   12.8740 C.3   113  LEU113      0.0001
      9  N         14.6870   18.8390   17.8540 N.3   116  LEU116     -0.1231
     10  CA        14.8480   20.1620   17.2650 C.3   116  LEU116      0.1693
     11  C         13.7880   21.1270   17.7860 C.2   116  LEU116      0.2591
     12  O         14.1030   22.2700   18.1390 O.2   116  LEU116     -0.2718
     13  CB        14.7890   20.0580   15.7460 C.3   116  LEU116      0.0284
     14  CG        14.7780   21.3860   14.9900 C.3   116  LEU116      0.0019
     15  CD1       16.0860   22.1390   15.2040 C.3   116  LEU116      0.0001
     16  CD2       14.5280   21.1340   13.5080 C.3   116  LEU116      0.0001
     17  N         12.5290   20.6830   17.8560 N.am  117  ALA117     -0.1980
     18  CA        11.4790   21.5320   18.4110 C.3   117  ALA117      0.1597
     19  C         11.7630   21.8770   19.8670 C.2   117  ALA117      0.2287
     20  O         11.5590   23.0190   20.2920 O.2   117  ALA117     -0.2864
     21  CB        10.1180   20.8470   18.2810 C.3   117  ALA117      0.0319
     22  N         14.5510   24.4390   19.9810 N.3   120  ALA120     -0.1245
     23  CA        14.0760   25.7190   19.4690 C.3   120  ALA120      0.1562
     24  C         13.2840   26.4760   20.5300 C.2   120  ALA120      0.2260
     25  O         13.5140   27.6660   20.7570 O.2   120  ALA120     -0.2867
     26  CB        13.2350   25.4950   18.2110 C.3   120  ALA120      0.0290
     27  N          7.7680   31.6910   15.6850 N.3   163  GLY163     -0.1225
     28  CA         7.3630   31.3000   14.3400 C.3   163  GLY163      0.1811
     29  C          8.3910   31.6910   13.2940 C.2   163  GLY163      0.2280
     30  O          8.7270   30.8980   12.4100 O.2   163  GLY163     -0.2866
     31  N         11.6940   32.1960   13.8510 N.3   165  PHE165     -0.1227
     32  CA        12.8370   31.3140   14.0550 C.3   165  PHE165      0.1736
     33  C         12.6000   29.9530   13.4070 C.2   165  PHE165      0.2595
     34  O         13.4370   29.4520   12.6410 O.2   165  PHE165     -0.2718
     35  CB        13.1060   31.1750   15.5570 C.3   165  PHE165      0.0547
     36  CG        14.2640   30.2800   15.8960 C.ar  165  PHE165     -0.0202
     37  CD1       14.0770   28.9200   16.0910 C.ar  165  PHE165     -0.0042
     38  CD2       15.5280   30.8060   16.0700 C.ar  165  PHE165     -0.0042
     39  CE1       15.1410   28.0930   16.4250 C.ar  165  PHE165     -0.0003
     40  CE2       16.5940   29.9860   16.4070 C.ar  165  PHE165     -0.0003
     41  CZ        16.4000   28.6170   16.5760 C.ar  165  PHE165     -0.0000
     42  N         11.4400   29.3570   13.6770 N.am  166  ALA166     -0.1966
     43  CA        11.1670   28.0230   13.1560 C.3   166  ALA166      0.1728
     44  C         11.0650   28.0340   11.6330 C.2   166  ALA166      0.2616
     45  O         11.4860   27.0770   10.9730 O.2   166  ALA166     -0.2715
     46  CB         9.8890   27.4640   13.7810 C.3   166  ALA166      0.0334
     47  N         10.5270   29.1100   11.0540 N.am  167  LEU167     -0.1977
     48  CA        10.4170   29.1730    9.6000 C.3   167  LEU167      0.1596
     49  C         11.7950   29.2050    8.9410 C.2   167  LEU167      0.2287
     50  O         12.0580   28.4440    8.0080 O.2   167  LEU167     -0.2864
     51  CB         9.5910   30.3860    9.1840 C.3   167  LEU167      0.0297
     52  CG         9.0880   30.3460    7.7380 C.3   167  LEU167      0.0022
     53  CD1        8.6220   28.9500    7.3530 C.3   167  LEU167      0.0001
     54  CD2        7.9500   31.3310    7.5540 C.3   167  LEU167      0.0001
     55  N         14.7520   28.2530   10.2570 N.3   169  VAL169     -0.1231
     56  CA        15.4670   26.9960   10.4880 C.3   169  VAL169      0.1692
     57  C         14.8710   25.8910    9.6210 C.2   169  VAL169      0.2592
     58  O         15.5970   25.0800    9.0310 O.2   169  VAL169     -0.2718
     59  CB        15.4460   26.6250   11.9880 C.3   169  VAL169      0.0266
     60  CG1       16.0010   25.2340   12.2020 C.3   169  VAL169      0.0020
     61  CG2       16.2530   27.6650   12.8180 C.3   169  VAL169      0.0020
     62  N         13.5380   25.8590    9.5160 N.am  170  GLY170     -0.1957
     63  CA        12.8830   24.8820    8.6580 C.3   170  GLY170      0.1869
     64  C         13.2920   24.9960    7.1960 C.2   170  GLY170      0.2309
     65  O         13.4700   23.9830    6.5160 O.2   170  GLY170     -0.2863
@<TRIPOS>BOND
     1    65    64    2
     2    64    63    1
     3    53    52    1
     4    54    52    1
     5    52    51    1
     6    50    49    2
     7    63    62    1
     8    49    48    1
     9    58    57    2
    10    51    48    1
    11    62    57   am
    12    48    47    1
    13    57    56    1
    14    55    56    1
    15    56    59    1
    16    45    44    2
    17    47    44   am
    18    44    43    1
    19    59    60    1
    20    59    61    1
    21    30    29    2
    22    34    33    2
    23     8     6    1
    24    43    42    1
    25    43    46    1
    26     7     6    1
    27    29    28    1
    28    33    42   am
    29    33    32    1
    30    16    14    1
    31     6     5    1
    32    31    32    1
    33    32    35    1
    34     5     2    1
    35    28    27    1
    36     2     1    1
    37     2     3    1
    38    14    15    1
    39    14    13    1
    40    35    36    1
    41    13    10    1
    42    36    38   ar
    43    36    37   ar
    44    38    40   ar
    45    37    39   ar
    46     3     4    2
    47    40    41   ar
    48    39    41   ar
    49    10    11    1
    50    10     9    1
    51    11    17   am
    52    11    12    2
    53    17    18    1
    54    26    23    1
    55    21    18    1
    56    18    19    1
    57    23    22    1
    58    23    24    1
    59    19    20    2
    60    24    25    2
