@<TRIPOS>MOLECULE
tmp/6ffvA03.pdb
 81 74 0 0 0
SMALL
GASTEIGER

@<TRIPOS>ATOM
      1  N         26.1010   33.2940    2.8300 N.3    16  VAL16      -0.1231
      2  CA        24.6480   33.4090    2.7330 C.3    16  VAL16       0.1692
      3  C         24.0530   33.9690    4.0320 C.2    16  VAL16       0.2591
      4  O         23.1330   34.7940    3.9940 O.2    16  VAL16      -0.2718
      5  CB        24.0180   32.0620    2.3500 C.3    16  VAL16       0.0266
      6  CG1       22.4820   32.1520    2.4030 C.3    16  VAL16       0.0020
      7  CG2       24.4850   31.6240    0.9440 C.3    16  VAL16       0.0020
      8  N         24.5960   33.5840    5.1940 N.am   17  LEU17      -0.1980
      9  CA        24.0070   34.0630    6.4460 C.3    17  LEU17       0.1596
     10  C         24.2550   35.5590    6.6420 C.2    17  LEU17       0.2287
     11  O         23.3610   36.2850    7.0820 O.2    17  LEU17      -0.2864
     12  CB        24.5300   33.2400    7.6390 C.3    17  LEU17       0.0297
     13  CG        24.1110   31.7420    7.6930 C.3    17  LEU17       0.0022
     14  CD1       24.6620   31.0300    8.9410 C.3    17  LEU17       0.0001
     15  CD2       22.6030   31.5290    7.6030 C.3    17  LEU17       0.0001
     16  N         21.7690   37.2500    4.3220 N.3    20  MET20      -0.1245
     17  CA        20.4250   37.1440    4.8800 C.3    20  MET20       0.1570
     18  C         20.2470   38.0990    6.0630 C.2    20  MET20       0.2261
     19  O         19.1680   38.6720    6.2530 O.2    20  MET20      -0.2867
     20  CB        20.1380   35.6960    5.2920 C.3    20  MET20       0.0387
     21  CG        19.6910   34.8170    4.1000 C.3    20  MET20       0.0595
     22  SD        18.2310   35.5150    3.2390 S.3    20  MET20      -0.1393
     23  CE        16.9620   35.2090    4.4750 C.3    20  MET20       0.0692
     24  N         16.0400   37.4930   10.3210 N.3    38  ALA38      -0.1245
     25  CA        16.6160   36.1520   10.3710 C.3    38  ALA38       0.1562
     26  C         17.7450   36.0150   11.3960 C.2    38  ALA38       0.2260
     27  O         18.3140   34.9250   11.5330 O.2    38  ALA38      -0.2867
     28  CB        17.1260   35.7630    8.9710 C.3    38  ALA38       0.0290
     29  N         17.6850   32.8800   14.0300 N.3    41  ALA41      -0.1231
     30  CA        17.9320   31.6410   13.2980 C.3    41  ALA41       0.1694
     31  C         19.3530   31.5920   12.7500 C.2    41  ALA41       0.2591
     32  O         19.9560   30.5180   12.6890 O.2    41  ALA41      -0.2718
     33  CB        16.9230   31.4980   12.1650 C.3    41  ALA41       0.0304
     34  N         19.9140   32.7460   12.3840 N.am   42  ILE42      -0.1980
     35  CA        21.2710   32.7660   11.8610 C.3    42  ILE42       0.1595
     36  C         22.2630   32.2930   12.9150 C.2    42  ILE42       0.2287
     37  O         23.0750   31.3920   12.6620 O.2    42  ILE42      -0.2864
     38  CB        21.6070   34.1630   11.3090 C.3    42  ILE42       0.0276
     39  CG1       20.9910   34.3190    9.8980 C.3    42  ILE42       0.0022
     40  CG2       23.1350   34.3920   11.2630 C.3    42  ILE42       0.0022
     41  CD1       20.9540   35.7960    9.4050 C.3    42  ILE42       0.0001
     42  N         21.9250   28.6290   13.3080 N.3    45  LEU45      -0.1245
     43  CA        22.4470   27.8560   12.1890 C.3    45  LEU45       0.1561
     44  C         23.9790   27.8720   12.1620 C.2    45  LEU45       0.2260
     45  O         24.5950   26.8610   11.8050 O.2    45  LEU45      -0.2867
     46  CB        21.8390   28.3780   10.8770 C.3    45  LEU45       0.0270
     47  CG        20.3300   28.0940   10.7190 C.3    45  LEU45       0.0019
     48  CD1       19.7070   28.8990    9.6080 C.3    45  LEU45       0.0001
     49  CD2       20.0690   26.6060   10.4790 C.3    45  LEU45       0.0001
     50  N         12.6960   30.0660    9.4270 N.3   168  TYR168     -0.1241
     51  CA        14.0330   30.1410    8.8470 C.3   168  TYR168      0.1605
     52  C         14.8320   28.8530    9.0640 C.2   168  TYR168      0.2264
     53  O         15.5630   28.4160    8.1640 O.2   168  TYR168     -0.2867
     54  CB        14.7850   31.3530    9.4110 C.3   168  TYR168      0.0534
     55  CG        14.4100   32.6660    8.7270 C.ar  168  TYR168     -0.0201
     56  CD1       14.4940   32.7990    7.3470 C.ar  168  TYR168     -0.0009
     57  CD2       13.9580   33.7630    9.4680 C.ar  168  TYR168     -0.0009
     58  CE1       14.1380   33.9930    6.7110 C.ar  168  TYR168      0.0417
     59  CE2       13.6090   34.9580    8.8460 C.ar  168  TYR168      0.0417
     60  CZ        13.7040   35.0600    7.4680 C.ar  168  TYR168      0.1957
     61  OH        13.3640   36.2290    6.8550 O.3   168  TYR168     -0.2866
     62  N         13.4440   26.2310    6.6920 N.3   171  LEU171     -0.1231
     63  CA        13.8890   26.4210    5.3110 C.3   171  LEU171      0.1693
     64  C         15.3200   25.9490    5.1180 C.2   171  LEU171      0.2591
     65  O         15.6440   25.3460    4.0850 O.2   171  LEU171     -0.2718
     66  CB        13.7790   27.8850    4.8910 C.3   171  LEU171      0.0284
     67  CG        12.3790   28.3750    4.5140 C.3   171  LEU171      0.0019
     68  CD1       12.3740   29.8840    4.2670 C.3   171  LEU171      0.0001
     69  CD2       11.8570   27.6040    3.2960 C.3   171  LEU171      0.0001
     70  N         16.1980   26.2340    6.0850 N.am  172  ALA172     -0.1980
     71  CA        17.5590   25.7230    5.9970 C.3   172  ALA172      0.1597
     72  C         17.5530   24.2000    5.9400 C.2   172  ALA172      0.2287
     73  O         18.2670   23.5980    5.1360 O.2   172  ALA172     -0.2864
     74  CB        18.3950   26.2210    7.1800 C.3   172  ALA172      0.0319
     75  N         16.4180   23.0740    2.4190 N.3   175  VAL175     -0.1245
     76  CA        17.4560   23.2200    1.4040 C.3   175  VAL175      0.1561
     77  C         18.5020   22.1280    1.5640 C.2   175  VAL175      0.2260
     78  O         18.9510   21.5220    0.5790 O.2   175  VAL175     -0.2867
     79  CB        18.0790   24.6280    1.4940 C.3   175  VAL175      0.0252
     80  CG1       19.3370   24.7240    0.6550 C.3   175  VAL175      0.0019
     81  CG2       17.0600   25.6820    1.0790 C.3   175  VAL175      0.0019
@<TRIPOS>BOND
     1    78    77    2
     2    80    79    1
     3     7     5    1
     4    81    79    1
     5    76    79    1
     6    76    77    1
     7    76    75    1
     8     5     6    1
     9     5     2    1
    10     2     1    1
    11     2     3    1
    12    22    21    1
    13    22    23    1
    14    69    67    1
    15     4     3    2
    16     3     8   am
    17    65    64    2
    18    21    20    1
    19    68    67    1
    20    16    17    1
    21    67    66    1
    22    17    20    1
    23    17    18    1
    24    66    63    1
    25    64    63    1
    26    64    70   am
    27    73    72    2
    28     8     9    1
    29    63    62    1
    30    72    71    1
    31    71    70    1
    32    71    74    1
    33    18    19    2
    34     9    10    1
    35     9    12    1
    36    10    11    2
    37    58    56   ar
    38    58    60   ar
    39    61    60    1
    40    56    55   ar
    41    60    59   ar
    42    15    13    1
    43    12    13    1
    44    13    14    1
    45    53    52    2
    46    55    54    1
    47    55    57   ar
    48    59    57   ar
    49    51    52    1
    50    51    54    1
    51    51    50    1
    52    28    25    1
    53    41    39    1
    54    48    47    1
    55    39    38    1
    56    24    25    1
    57    25    26    1
    58    49    47    1
    59    47    46    1
    60    46    43    1
    61    40    38    1
    62    38    35    1
    63    26    27    2
    64    45    44    2
    65    35    34    1
    66    35    36    1
    67    44    43    1
    68    33    30    1
    69    43    42    1
    70    34    31   am
    71    37    36    2
    72    32    31    2
    73    31    30    1
    74    30    29    1
