@<TRIPOS>MOLECULE
tmp/6ffwA01.pdb
 92 87 0 0 0
SMALL
GASTEIGER

@<TRIPOS>ATOM
      1  N        -46.3500   -9.5430   11.9630 N.3   170  HIS170     -0.1226
      2  CA       -44.9580   -9.5230   11.5570 C.3   170  HIS170      0.1752
      3  C        -44.3980  -10.9240   11.7570 C.2   170  HIS170      0.2596
      4  O        -44.5880  -11.5160   12.8250 O.2   170  HIS170     -0.2718
      5  CB       -44.2280   -8.5220   12.4540 C.3   170  HIS170      0.0759
      6  CG       -42.7370   -8.5770   12.3570 C.ar  170  HIS170      0.0818
      7  ND1      -41.9890   -7.5490   11.8260 N.ar  170  HIS170     -0.2268
      8  CD2      -41.8510   -9.5050   12.7930 C.ar  170  HIS170      0.1154
      9  CE1      -40.7050   -7.8720   11.8890 C.ar  170  HIS170      0.1986
     10  NE2      -40.5960   -9.0440   12.4850 N.ar  170  HIS170     -0.2212
     11  N        -43.7120  -11.4540   10.7410 N.am  171  THR171     -0.1953
     12  CA       -43.0450  -12.7500   10.8270 C.3   171  THR171      0.1897
     13  C        -41.5750  -12.6260   10.4590 C.2   171  THR171      0.2313
     14  O        -41.1620  -11.7080    9.7500 O.2   171  THR171     -0.2863
     15  CB       -43.6400  -13.7990    9.8550 C.3   171  THR171      0.1794
     16  OG1      -43.4260  -13.3960    8.4910 O.3   171  THR171     -0.2208
     17  CG2      -45.1180  -14.0180   10.0880 C.3   171  THR171      0.0378
     18  N        -45.1060   -9.8940    6.1810 N.3   199  HIS199     -0.1241
     19  CA       -43.7170  -10.0710    5.7230 C.3   199  HIS199      0.1621
     20  C        -43.5100  -11.3990    4.9990 C.2   199  HIS199      0.2264
     21  O        -42.4070  -11.9540    4.9880 O.2   199  HIS199     -0.2867
     22  CB       -42.7030   -9.8840    6.8530 C.3   199  HIS199      0.0745
     23  CG       -42.8420   -8.5770    7.5670 C.ar  199  HIS199      0.0817
     24  ND1      -43.3490   -7.4520    6.9540 N.ar  199  HIS199     -0.2268
     25  CD2      -42.5560   -8.2160    8.8400 C.ar  199  HIS199      0.1154
     26  CE1      -43.3630   -6.4540    7.8170 C.ar  199  HIS199      0.1986
     27  NE2      -42.8740   -6.8870    8.9630 N.ar  199  HIS199     -0.2212
     28  N        -40.7250  -12.0000    2.4110 N.3   202  ASP202     -0.1239
     29  CA       -39.3320  -12.1420    2.8330 C.3   202  ASP202      0.1674
     30  C        -38.7850  -13.5460    2.6010 C.2   202  ASP202      0.2266
     31  O        -37.5960  -13.7700    2.8460 O.2   202  ASP202     -0.2867
     32  CB       -39.1860  -11.8270    4.3290 C.3   202  ASP202      0.1410
     33  CG       -39.2440  -10.3420    4.6340 C.2   202  ASP202      0.3668
     34  OD1      -39.2830   -9.5160    3.7000 O.co2 202  ASP202     -0.2456
     35  OD2      -39.2370   -9.9960    5.8340 O.co2 202  ASP202     -0.2456
     36  N        -45.7950   -7.5850    1.6530 N.3   222  ASP222     -0.1225
     37  CA       -45.9350   -6.2150    2.1240 C.3   222  ASP222      0.1805
     38  C        -44.6560   -5.4050    2.1580 C.2   222  ASP222      0.2598
     39  O        -44.6980   -4.2620    2.6250 O.2   222  ASP222     -0.2718
     40  CB       -46.5920   -6.1820    3.5140 C.3   222  ASP222      0.1424
     41  CG       -45.8580   -7.0400    4.5450 C.2   222  ASP222      0.3668
     42  OD1      -44.6140   -7.1230    4.4820 O.co2 222  ASP222     -0.2456
     43  OD2      -46.5270   -7.6310    5.4190 O.co2 222  ASP222     -0.2456
     44  N        -43.5300   -5.9550    1.7200 N.am  223  GLY223     -0.1957
     45  CA       -42.2840   -5.2070    1.7000 C.3   223  GLY223      0.1869
     46  C        -41.6540   -5.1680    0.3240 C.2   223  GLY223      0.2309
     47  O        -40.4320   -5.2570    0.2040 O.2   223  GLY223     -0.2863
     48  N        -38.3510   -3.3090   -0.5080 N.3   226  HIS226     -0.1241
     49  CA       -37.2500   -3.4700    0.4330 C.3   226  HIS226      0.1621
     50  C        -36.1590   -4.2940   -0.2280 C.2   226  HIS226      0.2264
     51  O        -36.3070   -5.5070   -0.4070 O.2   226  HIS226     -0.2867
     52  CB       -37.7260   -4.1300    1.7210 C.3   226  HIS226      0.0745
     53  CG       -38.5450   -3.2280    2.5890 C.ar  226  HIS226      0.0817
     54  ND1      -38.2580   -3.0100    3.9200 N.ar  226  HIS226     -0.2268
     55  CD2      -39.6540   -2.5000    2.3190 C.ar  226  HIS226      0.1154
     56  CE1      -39.1540   -2.1810    4.4290 C.ar  226  HIS226      0.1986
     57  NE2      -40.0160   -1.8640    3.4810 N.ar  226  HIS226     -0.2212
     58  N        -30.9900   -5.0230    7.0800 N.3   240  LEU240     -0.1231
     59  CA       -32.4110   -4.7350    7.2420 C.3   240  LEU240      0.1693
     60  C        -33.2080   -5.0400    5.9810 C.2   240  LEU240      0.2591
     61  O        -34.2920   -5.6270    6.0590 O.2   240  LEU240     -0.2718
     62  CB       -32.6080   -3.2710    7.6160 C.3   240  LEU240      0.0284
     63  CG       -34.0640   -2.8940    7.9000 C.3   240  LEU240      0.0019
     64  CD1      -34.5010   -3.4240    9.2590 C.3   240  LEU240      0.0001
     65  CD2      -34.2510   -1.3990    7.8250 C.3   240  LEU240      0.0001
     66  N        -32.6970   -4.6430    4.8170 N.am  241  LEU241     -0.1980
     67  CA       -33.4780   -4.6850    3.5890 C.3   241  LEU241      0.1596
     68  C        -33.3360   -5.9890    2.8240 C.2   241  LEU241      0.2287
     69  O        -34.2120   -6.3040    2.0100 O.2   241  LEU241     -0.2864
     70  CB       -33.1060   -3.5060    2.6830 C.3   241  LEU241      0.0297
     71  CG       -33.3170   -2.1100    3.2780 C.3   241  LEU241      0.0022
     72  CD1      -32.7000   -1.0290    2.4020 C.3   241  LEU241      0.0001
     73  CD2      -34.8000   -1.8260    3.5110 C.3   241  LEU241      0.0001
     74  N        -39.5050  -10.2080   -5.0810 N.3   249  ARG249     -0.1245
     75  CA       -40.6510  -10.1140   -4.1830 C.3   249  ARG249      0.1563
     76  C        -41.9530   -9.9910   -4.9630 C.2   249  ARG249      0.2260
     77  O        -42.9520  -10.6480   -4.6410 O.2   249  ARG249     -0.2867
     78  CB       -40.4760   -8.9060   -3.2660 C.3   249  ARG249      0.0307
     79  CG       -39.3180   -9.0030   -2.2970 C.3   249  ARG249      0.0489
     80  CD       -39.2230   -7.7000   -1.5140 C.3   249  ARG249      0.2205
     81  NE       -38.1420   -7.6740   -0.5330 N.pl3 249  ARG249     -0.0865
     82  CZ       -38.2600   -8.0900    0.7240 C.cat 249  ARG249      0.5346
     83  NH1      -39.4130   -8.5910    1.1520 N.pl3 249  ARG249      0.1354
     84  NH2      -37.2250   -8.0000    1.5510 N.pl3 249  ARG249      0.1354
     85  N        -44.6070   -1.4300    3.1740 N.3   270  ASP270     -0.1239
     86  CA       -43.9640   -1.3360    4.4860 C.3   270  ASP270      0.1674
     87  C        -42.9940   -0.1620    4.4940 C.2   270  ASP270      0.2266
     88  O        -41.8370   -0.2790    4.8960 O.2   270  ASP270     -0.2867
     89  CB       -43.2770   -2.6500    4.8670 C.3   270  ASP270      0.1410
     90  CG       -42.9650   -2.7480    6.3390 C.2   270  ASP270      0.3668
     91  OD1      -43.5510   -2.0170    7.1590 O.co2 270  ASP270     -0.2456
     92  OD2      -42.1380   -3.6070    6.6690 O.co2 270  ASP270     -0.2456
@<TRIPOS>BOND
     1    74    75    1
     2    76    77    2
     3    76    75    1
     4    75    78    1
     5    78    79    1
     6    79    80    1
     7    80    81    1
     8    81    82    2
     9    48    49    1
    10    51    50    2
    11    50    49    1
    12    47    46    2
    13    46    45    1
    14    49    52    1
    15    82    83    1
    16    82    84    1
    17    36    37    1
    18    45    44    1
    19    44    38   am
    20    52    53    1
    21    69    68    2
    22    37    38    1
    23    37    40    1
    24    38    39    2
    25    55    53   ar
    26    55    57   ar
    27    72    71    1
    28    28    29    1
    29    53    54   ar
    30    30    29    1
    31    30    31    2
    32    70    71    1
    33    70    67    1
    34    68    67    1
    35    29    32    1
    36    85    86    1
    37    71    73    1
    38    57    56   ar
    39    40    41    1
    40    67    66    1
    41    34    33   ar
    42    54    56   ar
    43    32    33    1
    44    42    41   ar
    45    86    87    1
    46    86    89    1
    47    87    88    2
    48    41    43   ar
    49    33    35   ar
    50    66    60   am
    51    89    90    1
    52    21    20    2
    53    20    19    1
    54    19    18    1
    55    19    22    1
    56    60    61    2
    57    60    59    1
    58    90    92   ar
    59    90    91   ar
    60    22    23    1
    61    24    23   ar
    62    24    26   ar
    63    58    59    1
    64    59    62    1
    65    23    25   ar
    66    62    63    1
    67    26    27   ar
    68    65    63    1
    69    63    64    1
    70    16    15    1
    71    25    27   ar
    72    14    13    2
    73    15    17    1
    74    15    12    1
    75    13    12    1
    76    11    12    1
    77    11     3   am
    78     2     3    1
    79     2     1    1
    80     2     5    1
    81     3     4    2
    82     7     9   ar
    83     7     6   ar
    84     9    10   ar
    85     6     5    1
    86     6     8   ar
    87    10     8   ar
