@<TRIPOS>MOLECULE
tmp/6fg6A00.pdb
 106 103 0 0 0
SMALL
GASTEIGER

@<TRIPOS>ATOM
      1  N         38.9210  -36.0000   36.5650 N.3    21  TRP21      -0.1228
      2  CA        39.8410  -36.4070   35.5070 C.3    21  TRP21       0.1722
      3  C         39.1940  -36.7050   34.1510 C.2    21  TRP21       0.2437
      4  O         39.8840  -36.4970   33.1350 O.2    21  TRP21      -0.2733
      5  CB        40.6670  -37.6130   35.9870 C.3    21  TRP21       0.0563
      6  CG        39.8440  -38.8010   36.3320 C.ar   21  TRP21       0.0003
      7  CD1       39.3720  -39.1410   37.5650 C.ar   21  TRP21       0.0946
      8  CD2       39.3850  -39.8130   35.4300 C.ar   21  TRP21       0.0152
      9  NE1       38.6440  -40.3030   37.4860 N.ar   21  TRP21      -0.2442
     10  CE2       38.6330  -40.7310   36.1870 C.ar   21  TRP21       0.0810
     11  CE3       39.5250  -40.0230   34.0560 C.ar   21  TRP21       0.0012
     12  CZ2       38.0240  -41.8430   35.6130 C.ar   21  TRP21       0.0191
     13  CZ3       38.9250  -41.1300   33.4900 C.ar   21  TRP21       0.0001
     14  CH2       38.1830  -42.0260   34.2670 C.ar   21  TRP21       0.0015
     15  N         37.9430  -37.1760   34.0280 N.am   22  PRO22      -0.2718
     16  CA        37.3970  -37.4170   32.6810 C.3    22  PRO22       0.1535
     17  C         36.8890  -36.1730   31.9760 C.2    22  PRO22       0.2598
     18  O         36.5550  -36.2530   30.7840 O.2    22  PRO22      -0.2715
     19  CB        36.2350  -38.3980   32.9310 C.3    22  PRO22       0.0310
     20  CG        36.3200  -38.7840   34.3820 C.3    22  PRO22       0.0237
     21  CD        36.9970  -37.6470   35.0580 C.3    22  PRO22       0.0939
     22  N         36.8280  -35.0300   32.6540 N.am   23  PHE23      -0.1974
     23  CA        36.1630  -33.8530   32.1120 C.3    23  PHE23       0.1639
     24  C         37.0820  -32.6430   32.0270 C.2    23  PHE23       0.2290
     25  O         36.6090  -31.5390   31.7300 O.2    23  PHE23      -0.2864
     26  CB        34.9330  -33.5120   32.9560 C.3    23  PHE23       0.0560
     27  CG        34.1160  -34.7140   33.3420 C.ar   23  PHE23      -0.0200
     28  CD1       33.3210  -35.3580   32.4070 C.ar   23  PHE23      -0.0042
     29  CD2       34.1480  -35.2030   34.6370 C.ar   23  PHE23      -0.0042
     30  CE1       32.5710  -36.4650   32.7560 C.ar   23  PHE23      -0.0003
     31  CE2       33.3990  -36.3090   34.9940 C.ar   23  PHE23      -0.0003
     32  CZ        32.6110  -36.9400   34.0510 C.ar   23  PHE23      -0.0000
     33  N         39.5200  -32.1410   29.8600 N.3    25  GLU25      -0.1245
     34  CA        39.8490  -31.8460   28.4770 C.3    25  GLU25       0.1567
     35  C         38.7720  -32.4300   27.5760 C.2    25  GLU25       0.2260
     36  O         38.1000  -33.4110   27.9370 O.2    25  GLU25      -0.2867
     37  CB        41.2250  -32.4210   28.1000 C.3    25  GLU25       0.0388
     38  CG        42.4130  -31.8120   28.8480 C.3    25  GLU25       0.1160
     39  CD        42.5970  -30.3220   28.5970 C.2    25  GLU25       0.3649
     40  OE1       42.4180  -29.8980   27.4440 O.co2  25  GLU25      -0.2457
     41  OE2       42.9080  -29.5820   29.5550 O.co2  25  GLU25      -0.2457
     42  N         36.8940  -34.6880   25.0050 N.3    27  VAL27      -0.1245
     43  CA        37.0780  -36.0600   24.5570 C.3    27  VAL27       0.1561
     44  C         37.7390  -36.0560   23.1880 C.2    27  VAL27       0.2260
     45  O         37.3900  -35.2560   22.3150 O.2    27  VAL27      -0.2867
     46  CB        35.7250  -36.7940   24.5290 C.3    27  VAL27       0.0252
     47  CG1       35.8480  -38.1180   23.7850 C.3    27  VAL27       0.0019
     48  CG2       35.2020  -37.0010   25.9490 C.3    27  VAL27       0.0019
     49  N         38.2960  -42.3840   21.3620 N.3    32  VAL32      -0.1245
     50  CA        37.0740  -42.9090   21.9570 C.3    32  VAL32       0.1561
     51  C         36.1540  -43.3150   20.8110 C.2    32  VAL32       0.2260
     52  O         35.5540  -42.4640   20.1470 O.2    32  VAL32      -0.2867
     53  CB        36.4120  -41.8830   22.8820 C.3    32  VAL32       0.0252
     54  CG1       35.2240  -42.4930   23.5710 C.3    32  VAL32       0.0019
     55  CG2       37.4220  -41.3750   23.9050 C.3    32  VAL32       0.0019
     56  N         32.2410  -41.8340   19.7940 N.3    35  TYR35      -0.1241
     57  CA        31.8750  -40.6230   20.5210 C.3    35  TYR35       0.1605
     58  C         31.3600  -39.5490   19.5740 C.2    35  TYR35       0.2264
     59  O         30.3770  -38.8610   19.8750 O.2    35  TYR35      -0.2867
     60  CB        33.0700  -40.1010   21.3170 C.3    35  TYR35       0.0534
     61  CG        32.6700  -39.1150   22.3860 C.ar   35  TYR35      -0.0201
     62  CD1       32.2160  -39.5580   23.6180 C.ar   35  TYR35      -0.0009
     63  CD2       32.7320  -37.7440   22.1620 C.ar   35  TYR35      -0.0009
     64  CE1       31.8400  -38.6680   24.6050 C.ar   35  TYR35       0.0417
     65  CE2       32.3570  -36.8420   23.1460 C.ar   35  TYR35       0.0417
     66  CZ        31.9110  -37.3130   24.3660 C.ar   35  TYR35       0.1957
     67  OH        31.5340  -36.4290   25.3520 O.3    35  TYR35      -0.2866
     68  N         27.8660  -31.4430   30.3160 N.3    70  VAL70      -0.1245
     69  CA        29.0110  -32.3240   30.5440 C.3    70  VAL70       0.1561
     70  C         28.5420  -33.6720   31.0700 C.2    70  VAL70       0.2260
     71  O         28.9920  -34.7330   30.6170 O.2    70  VAL70      -0.2867
     72  CB        30.0100  -31.6690   31.5180 C.3    70  VAL70       0.0252
     73  CG1       31.1530  -32.6160   31.8240 C.3    70  VAL70       0.0019
     74  CG2       30.5450  -30.3720   30.9510 C.3    70  VAL70       0.0019
     75  N         28.0250  -37.4240   29.5570 N.3    74  CYS74      -0.1235
     76  CA        28.6550  -38.5450   30.2460 C.3    74  CYS74       0.1677
     77  C         27.6790  -39.7040   30.4110 C.2    74  CYS74       0.2270
     78  O         28.0080  -40.8580   30.1100 O.2    74  CYS74      -0.2867
     79  CB        29.1920  -38.0850   31.6020 C.3    74  CYS74       0.0956
     80  SG        30.0860  -39.3560   32.5150 S.3    74  CYS74      -0.0801
     81  N         26.8920  -41.4440   27.0080 N.3    77  PHE77      -0.1227
     82  CA        27.9210  -42.2650   26.3840 C.3    77  PHE77       0.1736
     83  C         28.4330  -43.3950   27.2680 C.2    77  PHE77       0.2595
     84  O         28.8740  -44.4240   26.7420 O.2    77  PHE77      -0.2718
     85  CB        29.1100  -41.4000   25.9610 C.3    77  PHE77       0.0547
     86  CG        30.1450  -42.1570   25.1920 C.ar   77  PHE77      -0.0202
     87  CD1       29.9600  -42.4190   23.8450 C.ar   77  PHE77      -0.0042
     88  CD2       31.2880  -42.6300   25.8150 C.ar   77  PHE77      -0.0042
     89  CE1       30.8990  -43.1210   23.1320 C.ar   77  PHE77      -0.0003
     90  CE2       32.2300  -43.3370   25.1030 C.ar   77  PHE77      -0.0003
     91  CZ        32.0330  -43.5840   23.7580 C.ar   77  PHE77      -0.0000
     92  N         28.4080  -43.2390   28.5880 N.am   78  ASN78      -0.1974
     93  CA        29.0830  -44.1710   29.4800 C.3    78  ASN78       0.1688
     94  C         28.0840  -44.9010   30.3670 C.2    78  ASN78       0.2292
     95  O         27.1260  -44.3020   30.8670 O.2    78  ASN78      -0.2864
     96  CB        30.1120  -43.4420   30.3400 C.3    78  ASN78       0.1181
     97  CG        31.1040  -42.6570   29.5090 C.2    78  ASN78       0.2629
     98  OD1       32.1550  -43.1750   29.1220 O.2    78  ASN78      -0.2716
     99  ND2       30.7720  -41.4020   29.2190 N.am   78  ASN78      -0.0877
    100  N         34.4340  -43.9460   33.8790 N.3    84  VAL84      -0.1245
    101  CA        34.0310  -42.5930   33.5080 C.3    84  VAL84       0.1561
    102  C         32.6390  -42.2920   34.0450 C.2    84  VAL84       0.2260
    103  O         32.3780  -41.2000   34.5650 O.2    84  VAL84      -0.2867
    104  CB        34.0970  -42.4110   31.9780 C.3    84  VAL84       0.0252
    105  CG1       33.3970  -41.1260   31.5580 C.3    84  VAL84       0.0019
    106  CG2       35.5420  -42.4020   31.4980 C.3    84  VAL84       0.0019
@<TRIPOS>BOND
     1    58    59    2
     2    58    57    1
     3    56    57    1
     4    52    51    2
     5    57    60    1
     6    51    50    1
     7    60    61    1
     8    49    50    1
     9    50    53    1
    10    63    61   ar
    11    63    65   ar
    12    45    44    2
    13    61    62   ar
    14    53    54    1
    15    53    55    1
    16    89    91   ar
    17    89    87   ar
    18    65    66   ar
    19    44    43    1
    20    62    64   ar
    21    91    90   ar
    22    47    46    1
    23    87    86   ar
    24    66    64   ar
    25    66    67    1
    26    46    43    1
    27    46    48    1
    28    43    42    1
    29    90    88   ar
    30    86    88   ar
    31    86    85    1
    32    85    82    1
    33    82    81    1
    34    82    83    1
    35    84    83    2
    36    83    92   am
    37    40    39   ar
    38    35    36    2
    39    35    34    1
    40    37    34    1
    41    37    38    1
    42    34    33    1
    43    92    93    1
    44    39    38    1
    45    39    41   ar
    46    98    97    2
    47    99    97   am
    48    93    96    1
    49    93    94    1
    50    97    96    1
    51    75    76    1
    52    78    77    2
    53    76    77    1
    54    76    79    1
    55    68    69    1
    56    94    95    2
    57    69    70    1
    58    69    72    1
    59    71    70    2
    60    18    17    2
    61    74    72    1
    62   106   104    1
    63    72    73    1
    64   105   104    1
    65    79    80    1
    66    25    24    2
    67    17    22   am
    68    17    16    1
    69   104   101    1
    70    24    23    1
    71    23    22    1
    72    23    26    1
    73    28    30   ar
    74    28    27   ar
    75    16    19    1
    76    16    15    1
    77    30    32   ar
    78    19    20    1
    79    26    27    1
    80     4     3    2
    81    27    29   ar
    82    13    11   ar
    83    13    14   ar
    84   101   100    1
    85   101   102    1
    86    15     3   am
    87    15    21    1
    88   102   103    2
    89    32    31   ar
    90    11     8   ar
    91     3     2    1
    92    14    12   ar
    93    20    21    1
    94    29    31   ar
    95     8    10   ar
    96     8     6   ar
    97     2     5    1
    98     2     1    1
    99    12    10   ar
   100     5     6    1
   101    10     9   ar
   102     6     7   ar
   103     9     7   ar
