@<TRIPOS>MOLECULE
tmp/6fg9B00.pdb
 96 93 0 0 0
SMALL
GASTEIGER

@<TRIPOS>ATOM
      1  N        -26.7180  -33.0670   51.7040 N.3   736  ALA736     -0.1231
      2  CA       -25.2850  -33.0150   51.9620 C.3   736  ALA736      0.1694
      3  C        -25.0390  -32.4460   53.3510 C.2   736  ALA736      0.2592
      4  O        -25.8920  -31.7660   53.9270 O.2   736  ALA736     -0.2718
      5  CB       -24.5530  -32.1800   50.9060 C.3   736  ALA736      0.0304
      6  N        -23.8520  -32.7420   53.8780 N.am  737  LEU737     -0.1966
      7  CA       -23.4100  -32.2710   55.1820 C.3   737  LEU737      0.1728
      8  C        -21.9900  -31.7320   55.0590 C.2   737  LEU737      0.2616
      9  O        -21.3310  -31.8820   54.0260 O.2   737  LEU737     -0.2715
     10  CB       -23.4750  -33.3860   56.2360 C.3   737  LEU737      0.0311
     11  CG       -22.2610  -34.3020   56.4200 C.3   737  LEU737      0.0022
     12  CD1      -22.4790  -35.2240   57.6110 C.3   737  LEU737      0.0001
     13  CD2      -21.9610  -35.1090   55.1630 C.3   737  LEU737      0.0001
     14  N        -21.5130  -31.1070   56.1330 N.am  738  TYR738     -0.1974
     15  CA       -20.1590  -30.5720   56.1500 C.3   738  TYR738      0.1639
     16  C        -19.6430  -30.5200   57.5810 C.2   738  TYR738      0.2290
     17  O        -20.3690  -30.1340   58.5030 O.2   738  TYR738     -0.2864
     18  CB       -20.1000  -29.1780   55.5180 C.3   738  TYR738      0.0560
     19  CG       -18.7010  -28.6170   55.4180 C.ar  738  TYR738     -0.0198
     20  CD1      -17.8290  -29.0540   54.4300 C.ar  738  TYR738     -0.0009
     21  CD2      -18.2500  -27.6540   56.3110 C.ar  738  TYR738     -0.0009
     22  CE1      -16.5470  -28.5490   54.3310 C.ar  738  TYR738      0.0417
     23  CE2      -16.9680  -27.1410   56.2210 C.ar  738  TYR738      0.0417
     24  CZ       -16.1210  -27.5930   55.2280 C.ar  738  TYR738      0.1957
     25  OH       -14.8440  -27.0890   55.1300 O.3   738  TYR738     -0.2866
     26  N        -17.3840  -28.6280   59.9730 N.3   740  GLU740     -0.1245
     27  CA       -16.6950  -27.3630   60.1880 C.3   740  GLU740      0.1567
     28  C        -15.7080  -27.5290   61.3380 C.2   740  GLU740      0.2260
     29  O        -16.0990  -27.8820   62.4610 O.2   740  GLU740     -0.2867
     30  CB       -17.6970  -26.2470   60.4800 C.3   740  GLU740      0.0388
     31  CG       -17.1650  -24.8520   60.2130 C.3   740  GLU740      0.1160
     32  CD       -18.2540  -23.8000   60.2710 C.2   740  GLU740      0.3649
     33  OE1      -19.1710  -23.9370   61.1090 O.co2 740  GLU740     -0.2457
     34  OE2      -18.1980  -22.8410   59.4720 O.co2 740  GLU740     -0.2457
     35  N        -22.5410  -29.0560   60.1230 N.3   756  VAL756     -0.1231
     36  CA       -23.5510  -28.3070   59.3880 C.3   756  VAL756      0.1692
     37  C        -24.2890  -29.2690   58.4660 C.2   756  VAL756      0.2592
     38  O        -23.6660  -30.0740   57.7650 O.2   756  VAL756     -0.2718
     39  CB       -22.9130  -27.1530   58.5960 C.3   756  VAL756      0.0266
     40  CG1      -23.9340  -26.5070   57.6760 C.3   756  VAL756      0.0020
     41  CG2      -22.3160  -26.1270   59.5440 C.3   756  VAL756      0.0020
     42  N        -25.6150  -29.1930   58.4740 N.am  757  LEU757     -0.1966
     43  CA       -26.4720  -30.0350   57.6530 C.3   757  LEU757      0.1728
     44  C        -27.2430  -29.1730   56.6630 C.2   757  LEU757      0.2616
     45  O        -27.2700  -27.9440   56.7620 O.2   757  LEU757     -0.2715
     46  CB       -27.4460  -30.8440   58.5220 C.3   757  LEU757      0.0311
     47  CG       -26.8530  -31.9660   59.3720 C.3   757  LEU757      0.0022
     48  CD1      -27.9140  -32.5640   60.2790 C.3   757  LEU757      0.0001
     49  CD2      -26.2490  -33.0380   58.4840 C.3   757  LEU757      0.0001
     50  N        -27.8650  -29.8350   55.6860 N.am  758  LEU758     -0.1977
     51  CA       -28.6630  -29.1050   54.7030 C.3   758  LEU758      0.1596
     52  C        -29.8370  -28.3810   55.3530 C.2   758  LEU758      0.2287
     53  O        -30.0110  -27.1790   55.0890 O.2   758  LEU758     -0.2864
     54  CB       -29.1230  -30.0510   53.5890 C.3   758  LEU758      0.0297
     55  CG       -30.2870  -29.5090   52.7590 C.3   758  LEU758      0.0022
     56  CD1      -29.8250  -29.1190   51.3630 C.3   758  LEU758      0.0001
     57  CD2      -31.4310  -30.5120   52.7080 C.3   758  LEU758      0.0001
     58  N        -31.3680  -26.3250   58.4100 N.3   760  LEU760     -0.1245
     59  CA       -30.6970  -25.5650   59.4600 C.3   760  LEU760      0.1561
     60  C        -31.0140  -26.1230   60.8420 C.2   760  LEU760      0.2260
     61  O        -30.1350  -26.1760   61.7100 O.2   760  LEU760     -0.2867
     62  CB       -31.0820  -24.0890   59.3690 C.3   760  LEU760      0.0270
     63  CG       -30.6340  -23.3570   58.1010 C.3   760  LEU760      0.0019
     64  CD1      -31.1340  -21.9200   58.1000 C.3   760  LEU760      0.0001
     65  CD2      -29.1190  -23.4000   57.9620 C.3   760  LEU760      0.0001
     66  N        -19.4210  -16.4980   56.0880 N.3   837  ASN837     -0.1225
     67  CA       -18.8090  -17.5980   56.8240 C.3   837  ASN837      0.1785
     68  C        -18.2710  -18.7000   55.9160 C.2   837  ASN837      0.2598
     69  O        -17.9310  -19.7780   56.4170 O.2   837  ASN837     -0.2718
     70  CB       -19.8100  -18.1900   57.8200 C.3   837  ASN837      0.1169
     71  CG       -20.1890  -17.2120   58.9140 C.2   837  ASN837      0.2627
     72  OD1      -19.5650  -16.1620   59.0680 O.2   837  ASN837     -0.2716
     73  ND2      -21.2190  -17.5530   59.6810 N.am  837  ASN837     -0.0877
     74  N        -18.2000  -18.4610   54.6100 N.am  838  THR838     -0.1939
     75  CA       -17.6560  -19.4480   53.6870 C.3   838  THR838      0.2013
     76  C        -16.2070  -19.7680   54.0470 C.2   838  THR838      0.2484
     77  O        -15.3840  -18.8480   54.1590 O.2   838  THR838     -0.2729
     78  CB       -17.7400  -18.9350   52.2500 C.3   838  THR838      0.1807
     79  OG1      -19.0990  -18.6050   51.9390 O.3   838  THR838     -0.2208
     80  CG2      -17.2430  -19.9920   51.2730 C.3   838  THR838      0.0379
     81  N        -15.8560  -21.0440   54.2380 N.am  839  PRO839     -0.2715
     82  CA       -14.4780  -21.3660   54.6430 C.3   839  PRO839      0.1536
     83  C        -13.4450  -21.0640   53.5730 C.2   839  PRO839      0.2598
     84  O        -12.2800  -20.8190   53.9100 O.2   839  PRO839     -0.2715
     85  CB       -14.5500  -22.8670   54.9500 C.3   839  PRO839      0.0310
     86  CG       -15.6650  -23.3600   54.0860 C.3   839  PRO839      0.0237
     87  CD       -16.6850  -22.2520   54.0960 C.3   839  PRO839      0.0939
     88  N        -13.8290  -21.0810   52.2940 N.am  840  GLU840     -0.1978
     89  CA       -12.8760  -20.7720   51.2330 C.3   840  GLU840      0.1602
     90  C        -12.4330  -19.3150   51.2980 C.2   840  GLU840      0.2287
     91  O        -11.2490  -19.0090   51.1070 O.2   840  GLU840     -0.2864
     92  CB       -13.4930  -21.0920   49.8720 C.3   840  GLU840      0.0415
     93  CG       -13.9230  -22.5420   49.7160 C.3   840  GLU840      0.1163
     94  CD       -15.3170  -22.6760   49.1350 C.2   840  GLU840      0.3649
     95  OE1      -15.6590  -21.8980   48.2200 O.co2 840  GLU840     -0.2457
     96  OE2      -16.0710  -23.5610   49.5930 O.co2 840  GLU840     -0.2457
@<TRIPOS>BOND
     1    95    94   ar
     2    94    96   ar
     3    94    93    1
     4    93    92    1
     5    92    89    1
     6     5     2    1
     7    91    90    2
     8    89    90    1
     9    89    88    1
    10    80    78    1
    11    56    55    1
    12     1     2    1
    13    79    78    1
    14     2     3    1
    15    78    75    1
    16    88    83   am
    17    57    55    1
    18    55    54    1
    19     3     6   am
    20     3     4    2
    21    83    84    2
    22    83    82    1
    23    54    51    1
    24    75    76    1
    25    75    74    1
    26     6     7    1
    27     9     8    2
    28    76    77    2
    29    76    81   am
    30    86    87    1
    31    86    85    1
    32    87    81    1
    33    81    82    1
    34    22    20   ar
    35    22    24   ar
    36    20    19   ar
    37    74    68   am
    38    82    85    1
    39    51    52    1
    40    51    50    1
    41     8     7    1
    42     8    14   am
    43    53    52    2
    44    25    24    1
    45    13    11    1
    46     7    10    1
    47    24    23   ar
    48    19    18    1
    49    19    21   ar
    50    18    15    1
    51    50    44   am
    52    68    69    2
    53    68    67    1
    54    66    67    1
    55    14    15    1
    56    15    16    1
    57    23    21   ar
    58    10    11    1
    59    11    12    1
    60    44    45    2
    61    44    43    1
    62    67    70    1
    63    16    17    2
    64    43    42    1
    65    43    46    1
    66    40    39    1
    67    38    37    2
    68    70    71    1
    69    65    63    1
    70    64    63    1
    71    63    62    1
    72    58    59    1
    73    37    42   am
    74    37    36    1
    75    49    47    1
    76    46    47    1
    77    39    36    1
    78    39    41    1
    79    71    72    2
    80    71    73   am
    81    62    59    1
    82    47    48    1
    83    36    35    1
    84    59    60    1
    85    34    32   ar
    86    26    27    1
    87    27    30    1
    88    27    28    1
    89    31    32    1
    90    31    30    1
    91    32    33   ar
    92    60    61    2
    93    28    29    2
