@<TRIPOS>MOLECULE
tmp/6fgcA03.pdb
 114 108 0 0 0
SMALL
GASTEIGER

@<TRIPOS>ATOM
      1  N        -18.8940   18.2110   73.0310 N.3     8  MET8       -0.1230
      2  CA       -18.0320   18.8920   72.0640 C.3     8  MET8        0.1702
      3  C        -18.6910   18.9360   70.6970 C.2     8  MET8        0.2592
      4  O        -18.6750   19.9760   70.0250 O.2     8  MET8       -0.2718
      5  CB       -16.6600   18.2210   71.9490 C.3     8  MET8        0.0401
      6  CG       -15.8390   18.6540   70.6970 C.3     8  MET8        0.0596
      7  SD       -15.4420   20.4350   70.5420 S.3     8  MET8       -0.1393
      8  CE       -14.3070   20.6350   71.9000 C.3     8  MET8        0.0692
      9  N        -19.2660   17.8220   70.2580 N.am    9  ASP9       -0.1974
     10  CA       -19.8610   17.8130   68.9260 C.3     9  ASP9        0.1709
     11  C        -21.0000   18.8180   68.8400 C.2     9  ASP9        0.2293
     12  O        -21.1200   19.5520   67.8520 O.2     9  ASP9       -0.2864
     13  CB       -20.3480   16.4130   68.5640 C.3     9  ASP9        0.1436
     14  CG       -19.2080   15.4440   68.2940 C.2     9  ASP9        0.3671
     15  OD1      -18.0280   15.8680   68.2550 O.co2   9  ASP9       -0.2456
     16  OD2      -19.5060   14.2470   68.1240 O.co2   9  ASP9       -0.2456
     17  N        -19.5390   22.4760   68.8190 N.3    12  PHE12      -0.1227
     18  CA       -18.9360   22.8480   67.5410 C.3    12  PHE12       0.1736
     19  C        -19.9970   23.0610   66.4640 C.2    12  PHE12       0.2595
     20  O        -19.9690   24.0600   65.7290 O.2    12  PHE12      -0.2718
     21  CB       -17.9410   21.7580   67.1460 C.3    12  PHE12       0.0547
     22  CG       -17.1660   22.0650   65.9050 C.ar   12  PHE12      -0.0202
     23  CD1      -17.6970   21.7940   64.6520 C.ar   12  PHE12      -0.0042
     24  CD2      -15.9110   22.6530   65.9830 C.ar   12  PHE12      -0.0042
     25  CE1      -16.9900   22.0830   63.5230 C.ar   12  PHE12      -0.0003
     26  CE2      -15.1970   22.9300   64.8410 C.ar   12  PHE12      -0.0003
     27  CZ       -15.7360   22.6550   63.6190 C.ar   12  PHE12      -0.0000
     28  N        -20.9430   22.1260   66.3480 N.am   13  ILE13      -0.1980
     29  CA       -21.9840   22.2760   65.3370 C.3    13  ILE13       0.1595
     30  C        -22.7890   23.5400   65.5880 C.2    13  ILE13       0.2287
     31  O        -23.1980   24.2270   64.6480 O.2    13  ILE13      -0.2864
     32  CB       -22.8750   21.0190   65.3120 C.3    13  ILE13       0.0276
     33  CG1      -22.0550   19.8330   64.7700 C.3    13  ILE13       0.0022
     34  CG2      -24.1240   21.2750   64.5080 C.3    13  ILE13       0.0022
     35  CD1      -22.6980   18.4830   64.9630 C.3    13  ILE13       0.0001
     36  N        -20.9570   26.6060   64.2550 N.3    16  LEU16      -0.1231
     37  CA       -21.0250   26.7830   62.8080 C.3    16  LEU16       0.1693
     38  C        -22.4360   27.1170   62.3350 C.2    16  LEU16       0.2591
     39  O        -22.6160   27.9520   61.4320 O.2    16  LEU16      -0.2718
     40  CB       -20.5230   25.5420   62.0940 C.3    16  LEU16       0.0284
     41  CG       -19.0220   25.3070   62.1260 C.3    16  LEU16       0.0019
     42  CD1      -18.7170   24.1560   61.1590 C.3    16  LEU16       0.0001
     43  CD2      -18.1950   26.5610   61.7690 C.3    16  LEU16       0.0001
     44  N        -23.4540   26.4840   62.9160 N.am   17  GLU17      -0.1979
     45  CA       -24.8220   26.7380   62.4690 C.3    17  GLU17       0.1602
     46  C        -25.2610   28.1580   62.7890 C.2    17  GLU17       0.2287
     47  O        -26.0250   28.7620   62.0240 O.2    17  GLU17      -0.2864
     48  CB       -25.7860   25.7410   63.1120 C.3    17  GLU17       0.0415
     49  CG       -25.6830   24.3420   62.5420 C.3    17  GLU17       0.1163
     50  CD       -26.7700   23.4260   63.0550 C.2    17  GLU17       0.3649
     51  OE1      -27.5870   23.8640   63.9000 O.co2  17  GLU17      -0.2457
     52  OE2      -26.8140   22.2650   62.6120 O.co2  17  GLU17      -0.2457
     53  N        -10.1010   25.6020   68.3830 N.3   319  LEU319     -0.1245
     54  CA       -11.1990   24.6660   68.1310 C.3   319  LEU319      0.1561
     55  C        -12.4740   25.3550   67.6510 C.2   319  LEU319      0.2260
     56  O        -13.1600   24.8260   66.7680 O.2   319  LEU319     -0.2867
     57  CB       -11.5000   23.8560   69.3950 C.3   319  LEU319      0.0270
     58  CG       -10.4690   22.7900   69.7110 C.3   319  LEU319      0.0019
     59  CD1      -10.6290   22.3380   71.1780 C.3   319  LEU319      0.0001
     60  CD2      -10.6420   21.6120   68.7600 C.3   319  LEU319      0.0001
     61  N        -14.3190   23.8300   58.1890 N.3   335  ARG335     -0.1231
     62  CA       -13.8760   22.9680   59.2500 C.3   335  ARG335      0.1679
     63  C        -12.3930   22.6900   59.1390 C.2   335  ARG335      0.2434
     64  O        -11.7990   22.8140   58.0630 O.2   335  ARG335     -0.2733
     65  CB       -14.6640   21.6730   59.2070 C.3   335  ARG335      0.0321
     66  CG       -16.1300   21.9500   59.5010 C.3   335  ARG335      0.0489
     67  CD       -16.9060   20.6820   59.4670 C.3   335  ARG335      0.2205
     68  NE       -16.8100   20.1110   58.1290 N.pl3 335  ARG335     -0.0865
     69  CZ       -16.9550   18.8300   57.8370 C.cat 335  ARG335      0.5346
     70  NH1      -17.2330   17.9400   58.7900 N.pl3 335  ARG335      0.1354
     71  NH2      -16.8090   18.4500   56.5810 N.pl3 335  ARG335      0.1354
     72  N        -11.7720   22.3240   60.2540 N.am  336  PRO336     -0.2729
     73  CA       -10.3330   22.0930   60.2540 C.3   336  PRO336      0.1401
     74  C         -9.9380   20.8360   59.5010 C.2   336  PRO336      0.2269
     75  O        -10.7250   19.9130   59.2720 O.2   336  PRO336     -0.2865
     76  CB        -9.9870   21.9670   61.7340 C.3   336  PRO336      0.0296
     77  CG       -11.2260   21.6880   62.4110 C.3   336  PRO336      0.0237
     78  CD       -12.3540   22.2170   61.5950 C.3   336  PRO336      0.0939
     79  N         -7.9000   17.4980   59.6010 N.3   338  ILE338     -0.1245
     80  CA        -7.5080   16.4860   60.5700 C.3   338  ILE338      0.1561
     81  C         -6.5850   15.4980   59.8830 C.2   338  ILE338      0.2260
     82  O         -6.9340   14.9370   58.8330 O.2   338  ILE338     -0.2867
     83  CB        -8.7300   15.7430   61.1310 C.3   338  ILE338      0.0252
     84  CG1       -9.7570   16.7340   61.7020 C.3   338  ILE338      0.0019
     85  CG2       -8.2900   14.6910   62.1650 C.3   338  ILE338      0.0019
     86  CD1       -9.2420   17.5950   62.8120 C.3   338  ILE338      0.0001
     87  N         -7.6280   17.7340   74.5410 N.3   355  TYR355     -0.1241
     88  CA        -6.9560   18.4220   73.4340 C.3   355  TYR355      0.1605
     89  C         -5.6220   18.9650   73.9120 C.2   355  TYR355      0.2264
     90  O         -5.5620   19.5820   74.9800 O.2   355  TYR355     -0.2867
     91  CB        -7.8410   19.5570   72.8770 C.3   355  TYR355      0.0534
     92  CG        -9.1540   19.0050   72.4210 C.ar  355  TYR355     -0.0201
     93  CD1       -9.3050   18.5150   71.1340 C.ar  355  TYR355     -0.0009
     94  CD2      -10.2360   18.9340   73.2870 C.ar  355  TYR355     -0.0009
     95  CE1      -10.5090   17.9530   70.7230 C.ar  355  TYR355      0.0417
     96  CE2      -11.4250   18.3800   72.8900 C.ar  355  TYR355      0.0417
     97  CZ       -11.5600   17.9040   71.6040 C.ar  355  TYR355      0.1957
     98  OH       -12.7490   17.3560   71.2020 O.3   355  TYR355     -0.2866
     99  N         -6.1820   15.3240   69.3900 N.3   387  MET387     -0.1245
    100  CA        -7.5980   15.1520   69.7020 C.3   387  MET387      0.1570
    101  C         -7.7720   13.7530   70.2670 C.2   387  MET387      0.2261
    102  O         -7.9260   12.7830   69.5210 O.2   387  MET387     -0.2867
    103  CB        -8.4530   15.3620   68.4730 C.3   387  MET387      0.0387
    104  CG        -8.1860   16.6780   67.8290 C.3   387  MET387      0.0595
    105  SD        -8.9200   16.6850   66.2210 S.3   387  MET387     -0.1393
    106  CE       -10.6340   16.8340   66.6770 C.3   387  MET387      0.0692
    107  N         -5.5120   17.9090   64.7370 N.3   407  MET407     -0.1245
    108  CA        -6.0110   19.0560   64.0040 C.3   407  MET407      0.1570
    109  C         -4.8510   19.9680   63.6310 C.2   407  MET407      0.2261
    110  O         -4.0300   20.3150   64.4800 O.2   407  MET407     -0.2867
    111  CB        -7.0260   19.8050   64.8610 C.3   407  MET407      0.0387
    112  CG        -7.5820   21.0370   64.2060 C.3   407  MET407      0.0595
    113  SD        -8.7160   21.9100   65.2920 S.3   407  MET407     -0.1393
    114  CE        -9.9910   20.6690   65.4960 C.3   407  MET407      0.0692
@<TRIPOS>BOND
     1    71    69    1
     2    69    68    2
     3    69    70    1
     4    64    63    2
     5    68    67    1
     6    61    62    1
     7    82    81    2
     8    63    62    1
     9    63    72   am
    10    65    62    1
    11    65    66    1
    12    75    74    2
    13    67    66    1
    14    74    73    1
    15    79    80    1
    16    81    80    1
    17    72    73    1
    18    72    78    1
    19    73    76    1
    20    80    83    1
    21    83    84    1
    22    83    85    1
    23    42    41    1
    24    39    38    2
    25    78    77    1
    26    84    86    1
    27    76    77    1
    28    43    41    1
    29    47    46    2
    30    40    41    1
    31    40    37    1
    32    38    37    1
    33    38    44   am
    34    45    46    1
    35    45    44    1
    36    45    48    1
    37    49    50    1
    38    49    48    1
    39    52    50   ar
    40    37    36    1
    41    50    51   ar
    42    25    27   ar
    43    25    23   ar
    44    27    26   ar
    45   109   108    1
    46   109   110    2
    47   108   107    1
    48   108   111    1
    49   112   111    1
    50   112   113    1
    51    34    32    1
    52    31    30    2
    53    23    22   ar
    54    33    35    1
    55    33    32    1
    56    26    24   ar
    57   113   114    1
    58    32    29    1
    59    29    30    1
    60    29    28    1
    61    20    19    2
    62    22    24   ar
    63    22    21    1
    64   105   106    1
    65   105   104    1
    66    28    19   am
    67    19    18    1
    68    56    55    2
    69    21    18    1
    70    18    17    1
    71    55    54    1
    72   104   103    1
    73    12    11    2
    74    16    14   ar
    75    54    53    1
    76    54    57    1
    77    15    14   ar
    78    14    13    1
    79   103   100    1
    80    13    10    1
    81    60    58    1
    82    11    10    1
    83    10     9    1
    84    99   100    1
    85    57    58    1
    86   102   101    2
    87   100   101    1
    88    58    59    1
    89     4     3    2
    90     9     3   am
    91     7     6    1
    92     7     8    1
    93     6     5    1
    94     3     2    1
    95    95    93   ar
    96    95    97   ar
    97    93    92   ar
    98    98    97    1
    99    97    96   ar
   100     5     2    1
   101     2     1    1
   102    92    91    1
   103    92    94   ar
   104    91    88    1
   105    96    94   ar
   106    88    89    1
   107    88    87    1
   108    89    90    2
