@<TRIPOS>MOLECULE
tmp/6fgcA00.pdb
 160 154 0 0 0
SMALL
GASTEIGER

@<TRIPOS>ATOM
      1  N         -9.1410   41.0020   77.5190 N.3   187  SER187     -0.1202
      2  CA        -8.8360   40.1490   78.6540 C.3   187  SER187      0.2020
      3  C         -9.5810   40.6730   79.8730 C.2   187  SER187      0.2619
      4  O         -9.9630   41.8440   79.9230 O.2   187  SER187     -0.2717
      5  CB        -7.3380   40.1310   78.9380 C.3   187  SER187      0.2103
      6  OG        -6.6420   39.4180   77.9540 O.3   187  SER187     -0.2182
      7  N         -9.8110   39.7980   80.8510 N.am  188  THR188     -0.1952
      8  CA       -10.5450   40.1940   82.0490 C.3   188  THR188      0.1897
      9  C         -9.8110   39.7310   83.2980 C.2   188  THR188      0.2313
     10  O         -9.2550   38.6220   83.3420 O.2   188  THR188     -0.2863
     11  CB       -12.0050   39.6380   82.0720 C.3   188  THR188      0.1794
     12  OG1      -12.0270   38.2230   82.3490 O.3   188  THR188     -0.2208
     13  CG2      -12.7230   39.9160   80.7470 C.3   188  THR188      0.0378
     14  N         -6.4100   41.0310   88.4410 N.3   191  GLU191     -0.1231
     15  CA        -5.0100   40.7080   88.6510 C.3   191  GLU191      0.1699
     16  C         -4.1250   41.0140   87.4580 C.2   191  GLU191      0.2592
     17  O         -2.9070   40.8830   87.5850 O.2   191  GLU191     -0.2718
     18  CB        -4.8290   39.2220   89.0340 C.3   191  GLU191      0.0402
     19  CG        -4.9740   38.1740   87.8910 C.3   191  GLU191      0.1161
     20  CD        -6.3910   37.7860   87.5620 C.2   191  GLU191      0.3649
     21  OE1       -7.3350   38.5570   87.8160 O.co2 191  GLU191     -0.2457
     22  OE2       -6.5460   36.6970   86.9980 O.co2 191  GLU191     -0.2457
     23  N         -4.6890   41.4120   86.3150 N.am  192  LEU192     -0.1980
     24  CA        -3.9280   41.5210   85.0760 C.3   192  LEU192      0.1596
     25  C         -3.3000   42.8910   84.8970 C.2   192  LEU192      0.2287
     26  O         -3.9420   43.9260   85.1030 O.2   192  LEU192     -0.2864
     27  CB        -4.8070   41.2310   83.8630 C.3   192  LEU192      0.0297
     28  CG        -5.4700   39.8640   83.8430 C.3   192  LEU192      0.0022
     29  CD1       -6.2670   39.7920   82.5790 C.3   192  LEU192      0.0001
     30  CD2       -4.4510   38.7360   83.9240 C.3   192  LEU192      0.0001
     31  N         -0.2460   39.6490   87.7740 N.3   204  ILE204     -0.1231
     32  CA         0.4640   38.9280   86.7200 C.3   204  ILE204      0.1692
     33  C          0.2660   39.6980   85.4220 C.2   204  ILE204      0.2592
     34  O         -0.6380   40.5290   85.3090 O.2   204  ILE204     -0.2718
     35  CB        -0.0450   37.4860   86.5460 C.3   204  ILE204      0.0266
     36  CG1       -1.5330   37.4770   86.1580 C.3   204  ILE204      0.0019
     37  CG2        0.1840   36.6770   87.8390 C.3   204  ILE204      0.0020
     38  CD1       -2.0940   36.1060   85.8070 C.3   204  ILE204      0.0001
     39  N          1.0760   39.3740   84.4110 N.am  205  ARG205     -0.1966
     40  CA         0.8720   39.9610   83.0930 C.3   205  ARG205      0.1729
     41  C         -0.1870   39.2230   82.2800 C.2   205  ARG205      0.2616
     42  O         -0.2860   38.0000   82.3030 O.2   205  ARG205     -0.2715
     43  CB         2.1850   40.0110   82.3070 C.3   205  ARG205      0.0348
     44  CG         3.2080   40.9520   82.9570 C.3   205  ARG205      0.0492
     45  CD         4.4870   41.0600   82.1610 C.3   205  ARG205      0.2205
     46  NE         5.5140   41.7510   82.9260 N.pl3 205  ARG205     -0.0865
     47  CZ         6.3530   41.1630   83.7700 C.cat 205  ARG205      0.5346
     48  NH1        6.3380   39.8480   83.9400 N.pl3 205  ARG205      0.1354
     49  NH2        7.2190   41.9030   84.4440 N.pl3 205  ARG205      0.1354
     50  N         -0.9870   40.0030   81.5510 N.am  206  ASP206     -0.1957
     51  CA        -1.9530   39.5130   80.5710 C.3   206  ASP206      0.1840
     52  C         -1.2150   38.9040   79.4030 C.2   206  ASP206      0.2623
     53  O         -0.5720   39.6300   78.6440 O.2   206  ASP206     -0.2715
     54  CB        -2.7920   40.7100   80.1390 C.3   206  ASP206      0.1450
     55  CG        -3.7540   40.4400   79.0320 C.2   206  ASP206      0.3671
     56  OD1       -3.9930   39.2850   78.6290 O.co2 206  ASP206     -0.2456
     57  OD2       -4.3290   41.4530   78.5760 O.co2 206  ASP206     -0.2456
     58  N         -1.3220   37.5820   79.2430 N.am  207  SER207     -0.1936
     59  CA        -0.7840   36.9340   78.0540 C.3   207  SER207      0.2055
     60  C         -1.8510   36.5590   77.0270 C.2   207  SER207      0.2643
     61  O         -1.5630   36.5510   75.8290 O.2   207  SER207     -0.2714
     62  CB        -0.0090   35.6780   78.4400 C.3   207  SER207      0.2130
     63  OG        -0.8890   34.7230   78.9860 O.3   207  SER207     -0.2179
     64  N         -3.0750   36.2760   77.4550 N.am  208  ASN208     -0.1971
     65  CA        -4.0860   35.7810   76.5250 C.3   208  ASN208      0.1688
     66  C         -4.3670   36.7630   75.3940 C.2   208  ASN208      0.2292
     67  O         -4.6090   36.3480   74.2580 O.2   208  ASN208     -0.2864
     68  CB        -5.3930   35.5010   77.2420 C.3   208  ASN208      0.1181
     69  CG        -5.3070   34.3490   78.1880 C.2   208  ASN208      0.2629
     70  OD1       -4.3300   33.6030   78.1860 O.2   208  ASN208     -0.2716
     71  ND2       -6.3270   34.1870   79.0090 N.am  208  ASN208     -0.0877
     72  N        -12.9350   43.0120   86.9160 N.3   231  ASP231     -0.1239
     73  CA       -14.0190   42.1130   87.3130 C.3   231  ASP231      0.1674
     74  C        -15.1640   42.9330   87.9020 C.2   231  ASP231      0.2266
     75  O        -15.4110   42.9420   89.1080 O.2   231  ASP231     -0.2867
     76  CB       -13.5360   41.0850   88.3340 C.3   231  ASP231      0.1410
     77  CG       -12.4640   40.1520   87.7860 C.2   231  ASP231      0.3668
     78  OD1      -12.7200   39.5010   86.7280 O.co2 231  ASP231     -0.2456
     79  OD2      -11.4010   40.0320   88.4620 O.co2 231  ASP231     -0.2456
     80  N        -11.5170   36.5380   77.3600 N.3   253  SER253     -0.1202
     81  CA       -11.0560   35.3960   78.1390 C.3   253  SER253      0.2020
     82  C        -11.1780   35.7190   79.6200 C.2   253  SER253      0.2619
     83  O        -11.1680   36.8810   80.0170 O.2   253  SER253     -0.2717
     84  CB        -9.6180   34.9560   77.8060 C.3   253  SER253      0.2103
     85  OG        -8.6490   35.8980   78.2160 O.3   253  SER253     -0.2182
     86  N        -11.3280   34.6670   80.4190 N.am  254  GLY254     -0.1942
     87  CA       -11.4600   34.7850   81.8520 C.3   254  GLY254      0.2014
     88  C        -12.8880   35.0440   82.3050 C.2   254  GLY254      0.2639
     89  O        -13.7640   35.4390   81.5410 O.2   254  GLY254     -0.2714
     90  N        -13.1090   34.8450   83.6030 N.am  255  GLY255     -0.1939
     91  CA       -14.3610   35.2370   84.2170 C.3   255  GLY255      0.2014
     92  C        -15.5990   34.4690   83.8080 C.2   255  GLY255      0.2639
     93  O        -16.6990   35.0110   83.9280 O.2   255  GLY255     -0.2714
     94  N        -15.4600   33.2200   83.3570 N.am  256  VAL256     -0.1963
     95  CA       -16.5850   32.4170   82.8780 C.3   256  VAL256      0.1727
     96  C        -16.8420   31.1840   83.7220 C.2   256  VAL256      0.2616
     97  O        -17.7310   30.3880   83.3880 O.2   256  VAL256     -0.2715
     98  CB       -16.4190   32.0020   81.4000 C.3   256  VAL256      0.0290
     99  CG1      -16.8240   33.1170   80.4960 C.3   256  VAL256      0.0023
    100  CG2      -15.0170   31.5210   81.1150 C.3   256  VAL256      0.0023
    101  N        -16.1290   31.0070   84.8090 N.am  257  SER257     -0.1950
    102  CA       -16.4780   29.9490   85.7420 C.3   257  SER257      0.1924
    103  C        -17.5560   30.4800   86.6860 C.2   257  SER257      0.2314
    104  O        -18.1850   31.5100   86.4320 O.2   257  SER257     -0.2863
    105  CB       -15.2250   29.4630   86.4490 C.3   257  SER257      0.2116
    106  OG       -14.3480   28.9230   85.4800 O.3   257  SER257     -0.2180
    107  N        -17.1430   31.5420   89.7590 N.3   259  GLY259     -0.1225
    108  CA       -16.5210   32.2510   90.8600 C.3   259  GLY259      0.1811
    109  C        -17.3100   33.4690   91.3070 C.2   259  GLY259      0.2280
    110  O        -18.1960   33.9920   90.6320 O.2   259  GLY259     -0.2866
    111  N        -16.3800   36.4810   91.5540 N.3   261  LYS261     -0.1231
    112  CA       -16.1050   37.6770   90.7730 C.3   261  LYS261      0.1693
    113  C        -16.2480   37.4130   89.2760 C.2   261  LYS261      0.2592
    114  O        -15.6340   38.0980   88.4550 O.2   261  LYS261     -0.2718
    115  CB       -14.7090   38.2060   91.0980 C.3   261  LYS261      0.0285
    116  CG       -14.5490   38.6940   92.5380 C.3   261  LYS261      0.0035
    117  CD       -15.2620   40.0240   92.7510 C.3   261  LYS261      0.0206
    118  CE       -14.9630   40.6310   94.1160 C.3   261  LYS261      0.1093
    119  NZ       -15.4250   39.7780   95.2570 N.3   261  LYS261     -0.1314
    120  N        -17.0530   36.4250   88.9050 N.am  262  ASP262     -0.1974
    121  CA       -17.2820   36.1050   87.4990 C.3   262  ASP262      0.1709
    122  C        -18.6480   36.6420   87.0860 C.2   262  ASP262      0.2293
    123  O        -19.6830   36.1240   87.5170 O.2   262  ASP262     -0.2864
    124  CB       -17.1660   34.6030   87.2710 C.3   262  ASP262      0.1436
    125  CG       -15.7370   34.0940   87.4610 C.2   262  ASP262      0.3671
    126  OD1      -14.8070   34.9170   87.5780 O.co2 262  ASP262     -0.2456
    127  OD2      -15.5460   32.8640   87.5560 O.co2 262  ASP262     -0.2456
    128  N        -15.4570   25.8560   80.8320 N.3   288  PRO288     -0.2116
    129  CA       -16.3990   26.9880   80.9250 C.3   288  PRO288      0.1372
    130  C        -16.5910   27.7720   79.6350 C.2   288  PRO288      0.2244
    131  O        -17.2170   28.8340   79.6710 O.2   288  PRO288     -0.2868
    132  CB       -15.7580   27.8750   81.9950 C.3   288  PRO288      0.0268
    133  CG       -14.2930   27.6720   81.7810 C.3   288  PRO288      0.0207
    134  CD       -14.1370   26.1950   81.3960 C.3   288  PRO288      0.0892
    135  N        -12.1800   30.4810   78.3640 N.3   307  PRO307     -0.2102
    136  CA       -11.6040   30.3650   79.7040 C.3   307  PRO307      0.1504
    137  C        -10.3550   31.2290   79.8550 C.2   307  PRO307      0.2576
    138  O         -9.6450   31.5260   78.8910 O.2   307  PRO307     -0.2718
    139  CB       -11.2540   28.8810   79.8110 C.3   307  PRO307      0.0282
    140  CG       -11.9480   28.2210   78.6490 C.3   307  PRO307      0.0208
    141  CD       -12.0730   29.2320   77.6030 C.3   307  PRO307      0.0893
    142  N        -10.0670   31.5990   81.1060 N.am  308  GLY308     -0.1943
    143  CA        -8.9130   32.4320   81.3780 C.3   308  GLY308      0.2014
    144  C         -7.5800   31.7100   81.4260 C.2   308  GLY308      0.2639
    145  O         -6.5410   32.3270   81.1550 O.2   308  GLY308     -0.2714
    146  N         -7.5670   30.4260   81.7740 N.am  309  ASN309     -0.1958
    147  CA        -6.3020   29.7170   81.8170 C.3   309  ASN309      0.1804
    148  C         -5.6410   29.8380   80.4470 C.2   309  ASN309      0.2463
    149  O         -6.2920   29.5590   79.4400 O.2   309  ASN309     -0.2730
    150  CB        -6.4950   28.2480   82.1620 C.3   309  ASN309      0.1195
    151  CG        -5.2120   27.4750   82.0270 C.2   309  ASN309      0.2630
    152  OD1       -4.8380   27.0520   80.9370 O.2   309  ASN309     -0.2716
    153  ND2       -4.4910   27.3520   83.1080 N.am  309  ASN309     -0.0877
    154  N         -4.3720   30.2700   80.3610 N.am  310  PRO310     -0.2727
    155  CA        -3.7980   30.5490   79.0280 C.3   310  PRO310      0.1402
    156  C         -3.8250   29.3740   78.0570 C.2   310  PRO310      0.2269
    157  O         -4.0740   29.5690   76.8590 O.2   310  PRO310     -0.2865
    158  CB        -2.3740   31.0000   79.3720 C.3   310  PRO310      0.0296
    159  CG        -2.5290   31.6970   80.6950 C.3   310  PRO310      0.0237
    160  CD        -3.5760   30.8920   81.4380 C.3   310  PRO310      0.0939
@<TRIPOS>BOND
     1    67    66    2
     2    66    65    1
     3    61    60    2
     4    65    68    1
     5    65    64    1
     6   157   156    2
     7    60    64   am
     8    60    59    1
     9    68    69    1
    10    80    81    1
    11     1     2    1
    12   141   135    1
    13   141   140    1
    14    84    81    1
    15    84    85    1
    16     6     5    1
    17    59    62    1
    18    59    58    1
    19   156   155    1
    20    81    82    1
    21    70    69    2
    22    69    71   am
    23   135   136    1
    24    62    63    1
    25    57    55   ar
    26    56    55   ar
    27    53    52    2
    28   140   139    1
    29     2     5    1
    30     2     3    1
    31   138   137    2
    32   155   158    1
    33   155   154    1
    34    55    54    1
    35    58    52   am
    36   158   159    1
    37    52    51    1
    38   149   148    2
    39    82    83    2
    40    82    86   am
    41   130   131    2
    42   130   129    1
    43   136   139    1
    44   136   137    1
    45   137   142   am
    46     3     4    2
    47     3     7   am
    48    54    51    1
    49   154   148   am
    50   154   160    1
    51    86    87    1
    52   148   147    1
    53    99    98    1
    54    51    50    1
    55   159   160    1
    56    13    11    1
    57   128   129    1
    58   128   134    1
    59     7     8    1
    60   129   132    1
    61   152   151    2
    62   142   143    1
    63   100    98    1
    64   145   144    2
    65   143   144    1
    66   134   133    1
    67    98    95    1
    68   144   146   am
    69    89    88    2
    70    50    41   am
    71   146   147    1
    72   133   132    1
    73   147   150    1
    74    87    88    1
    75   151   150    1
    76   151   153   am
    77     8    11    1
    78     8     9    1
    79    11    12    1
    80    45    46    1
    81    45    44    1
    82    41    42    2
    83    41    40    1
    84    88    90   am
    85    43    44    1
    86    43    40    1
    87    29    28    1
    88    95    94    1
    89    95    96    1
    90    46    47    2
    91    40    39    1
    92     9    10    2
    93    94    92   am
    94    97    96    2
    95    90    91    1
    96    96   101   am
    97    47    48    1
    98    47    49    1
    99    92    93    2
   100    92    91    1
   101    28    27    1
   102    28    30    1
   103    27    24    1
   104    39    33   am
   105   101   102    1
   106    25    24    1
   107    25    26    2
   108    24    23    1
   109    34    33    2
   110    33    32    1
   111   106   105    1
   112   102   105    1
   113   102   103    1
   114    38    36    1
   115    36    35    1
   116    23    16   am
   117   104   103    2
   118    35    32    1
   119    35    37    1
   120    32    31    1
   121    78    77   ar
   122    72    73    1
   123    22    20   ar
   124   122   121    1
   125   122   123    2
   126   124   125    1
   127   124   121    1
   128    73    74    1
   129    73    76    1
   130    16    17    2
   131    16    15    1
   132   125   127   ar
   133   125   126   ar
   134   121   120    1
   135    20    21   ar
   136    20    19    1
   137    77    76    1
   138    77    79   ar
   139    19    18    1
   140    74    75    2
   141    14    15    1
   142   114   113    2
   143    15    18    1
   144   120   113   am
   145   113   112    1
   146   107   108    1
   147   110   109    2
   148   112   115    1
   149   112   111    1
   150   108   109    1
   151   115   116    1
   152   116   117    1
   153   117   118    1
   154   118   119    1
