@<TRIPOS>MOLECULE
tmp/6fgdA02.pdb
 97 92 0 0 0
SMALL
GASTEIGER

@<TRIPOS>ATOM
      1  N        -19.0410   18.3020   72.1660 N.3     8  MET8       -0.1230
      2  CA       -18.1540   18.9640   71.2270 C.3     8  MET8        0.1702
      3  C        -18.7660   19.0150   69.8290 C.2     8  MET8        0.2592
      4  O        -18.7090   20.0500   69.1510 O.2     8  MET8       -0.2718
      5  CB       -16.8290   18.2160   71.2190 C.3     8  MET8        0.0401
      6  CG       -15.7720   18.9270   70.5280 C.3     8  MET8        0.0596
      7  SD       -15.2650   20.4200   71.4060 S.3     8  MET8       -0.1393
      8  CE       -14.3720   21.1450   70.0320 C.3     8  MET8        0.0692
      9  N        -19.3550   17.9000   69.3820 N.am    9  ASP9       -0.1974
     10  CA       -19.9930   17.8640   68.0680 C.3     9  ASP9        0.1709
     11  C        -21.0840   18.9130   67.9630 C.2     9  ASP9        0.2293
     12  O        -21.1610   19.6530   66.9750 O.2     9  ASP9       -0.2864
     13  CB       -20.5860   16.4790   67.8090 C.3     9  ASP9        0.1436
     14  CG       -19.5380   15.4470   67.4890 C.2     9  ASP9        0.3671
     15  OD1      -18.7160   15.7120   66.6020 O.co2   9  ASP9       -0.2456
     16  OD2      -19.5410   14.3640   68.1110 O.co2   9  ASP9       -0.2456
     17  N        -19.6440   22.5330   67.9420 N.3    12  PHE12      -0.1227
     18  CA       -19.0010   22.9250   66.6910 C.3    12  PHE12       0.1736
     19  C        -20.0350   23.1630   65.5980 C.2    12  PHE12       0.2595
     20  O        -19.9460   24.1530   64.8590 O.2    12  PHE12      -0.2718
     21  CB       -17.9880   21.8610   66.2730 C.3    12  PHE12       0.0547
     22  CG       -17.2530   22.2020   65.0250 C.ar   12  PHE12      -0.0202
     23  CD1      -16.1970   23.0880   65.0580 C.ar   12  PHE12      -0.0042
     24  CD2      -17.6170   21.6480   63.8250 C.ar   12  PHE12      -0.0042
     25  CE1      -15.5210   23.4280   63.9130 C.ar   12  PHE12      -0.0003
     26  CE2      -16.9450   21.9730   62.6680 C.ar   12  PHE12      -0.0003
     27  CZ       -15.8930   22.8630   62.7070 C.ar   12  PHE12      -0.0000
     28  N        -21.0210   22.2660   65.4770 N.am   13  ILE13      -0.1980
     29  CA       -22.0650   22.4270   64.4690 C.3    13  ILE13       0.1595
     30  C        -22.8320   23.7110   64.7160 C.2    13  ILE13       0.2287
     31  O        -23.1960   24.4240   63.7700 O.2    13  ILE13      -0.2864
     32  CB       -22.9910   21.1980   64.4810 C.3    13  ILE13       0.0276
     33  CG1      -22.2100   19.9870   63.9630 C.3    13  ILE13       0.0022
     34  CG2      -24.2380   21.4680   63.6770 C.3    13  ILE13       0.0022
     35  CD1      -22.8940   18.6540   64.2210 C.3    13  ILE13       0.0001
     36  N        -10.2250   25.7790   67.6660 N.3   319  LEU319     -0.1245
     37  CA       -11.3150   24.8370   67.3970 C.3   319  LEU319      0.1561
     38  C        -12.5960   25.5220   66.9160 C.2   319  LEU319      0.2260
     39  O        -13.2810   25.0150   66.0160 O.2   319  LEU319     -0.2867
     40  CB       -11.5970   24.0310   68.6580 C.3   319  LEU319      0.0270
     41  CG       -10.5670   22.9530   68.9630 C.3   319  LEU319      0.0019
     42  CD1      -10.7240   22.4920   70.4190 C.3   319  LEU319      0.0001
     43  CD2      -10.7090   21.7520   68.0350 C.3   319  LEU319      0.0001
     44  N        -14.2600   23.9240   57.4890 N.3   335  ARG335     -0.1231
     45  CA       -13.6670   23.0390   58.4720 C.3   335  ARG335      0.1679
     46  C        -12.1540   22.9510   58.2940 C.2   335  ARG335      0.2434
     47  O        -11.6420   23.0240   57.1820 O.2   335  ARG335     -0.2733
     48  CB       -14.2790   21.6440   58.3620 C.3   335  ARG335      0.0321
     49  CG       -15.7560   21.6230   58.6870 C.3   335  ARG335      0.0489
     50  CD       -16.4060   20.2710   58.3830 C.3   335  ARG335      0.2205
     51  NE       -16.1960   19.8720   56.9980 N.pl3 335  ARG335     -0.0865
     52  CZ       -16.2530   18.6260   56.5410 C.cat 335  ARG335      0.5346
     53  NH1      -16.5020   17.6150   57.3620 N.pl3 335  ARG335      0.1354
     54  NH2      -16.0430   18.3880   55.2590 N.pl3 335  ARG335      0.1354
     55  N        -11.4180   22.7960   59.3790 N.am  336  PRO336     -0.2729
     56  CA        -9.9690   22.6390   59.2710 C.3   336  PRO336      0.1401
     57  C         -9.6220   21.2980   58.6690 C.2   336  PRO336      0.2269
     58  O        -10.4230   20.3670   58.6400 O.2   336  PRO336     -0.2865
     59  CB        -9.4910   22.7100   60.7190 C.3   336  PRO336      0.0296
     60  CG       -10.6340   22.0730   61.4840 C.3   336  PRO336      0.0237
     61  CD       -11.9020   22.5660   60.7510 C.3   336  PRO336      0.0939
     62  N         -7.9060   17.8150   58.8130 N.3   338  ILE338     -0.1245
     63  CA        -7.5870   16.8090   59.8140 C.3   338  ILE338      0.1561
     64  C         -6.7070   15.7600   59.1530 C.2   338  ILE338      0.2260
     65  O         -7.0650   15.2030   58.1020 O.2   338  ILE338     -0.2867
     66  CB        -8.8460   16.1390   60.3920 C.3   338  ILE338      0.0252
     67  CG1       -9.8760   17.1690   60.8560 C.3   338  ILE338      0.0019
     68  CG2       -8.4700   15.1630   61.5130 C.3   338  ILE338      0.0019
     69  CD1       -9.3470   18.1940   61.7660 C.3   338  ILE338      0.0001
     70  N         -7.6820   17.8960   73.7540 N.3   355  TYR355     -0.1241
     71  CA        -7.0110   18.6050   72.6720 C.3   355  TYR355      0.1605
     72  C         -5.6840   19.1450   73.1800 C.2   355  TYR355      0.2264
     73  O         -5.6320   19.7510   74.2550 O.2   355  TYR355     -0.2867
     74  CB        -7.9130   19.7310   72.1520 C.3   355  TYR355      0.0534
     75  CG        -9.2140   19.1850   71.6560 C.ar  355  TYR355     -0.0201
     76  CD1       -9.3250   18.6770   70.3720 C.ar  355  TYR355     -0.0009
     77  CD2      -10.3270   19.1270   72.4840 C.ar  355  TYR355     -0.0009
     78  CE1      -10.5170   18.1340   69.9190 C.ar  355  TYR355      0.0417
     79  CE2      -11.5170   18.5930   72.0410 C.ar  355  TYR355      0.0417
     80  CZ       -11.6080   18.0990   70.7530 C.ar  355  TYR355      0.1957
     81  OH       -12.7950   17.5640   70.3240 O.3   355  TYR355     -0.2866
     82  N         -6.2030   15.4670   68.6860 N.3   388  MET388     -0.1245
     83  CA        -7.6190   15.2910   69.0080 C.3   388  MET388      0.1570
     84  C         -7.7970   13.8920   69.5810 C.2   388  MET388      0.2261
     85  O         -7.9190   12.9210   68.8260 O.2   388  MET388     -0.2867
     86  CB        -8.4920   15.4850   67.7690 C.3   388  MET388      0.0387
     87  CG        -8.1380   16.7250   66.9630 C.3   388  MET388      0.0595
     88  SD        -8.9940   16.7950   65.3760 S.3   388  MET388     -0.1393
     89  CE       -10.4700   17.6480   65.8900 C.3   388  MET388      0.0692
     90  N         -5.6260   18.1110   63.9980 N.3   408  MET408     -0.1245
     91  CA        -6.0810   19.2750   63.2600 C.3   408  MET408      0.1570
     92  C         -4.8860   20.1530   62.9090 C.2   408  MET408      0.2261
     93  O         -4.0600   20.4560   63.7670 O.2   408  MET408     -0.2867
     94  CB        -7.0900   20.0400   64.1120 C.3   408  MET408      0.0387
     95  CG        -7.8990   21.0540   63.3850 C.3   408  MET408      0.0595
     96  SD        -9.0370   21.7930   64.5740 S.3   408  MET408     -0.1393
     97  CE        -8.1030   23.1960   65.1620 C.3   408  MET408      0.0692
@<TRIPOS>BOND
     1    54    52    1
     2    52    51    2
     3    52    53    1
     4    51    50    1
     5    47    46    2
     6    44    45    1
     7    65    64    2
     8    46    45    1
     9    46    55   am
    10    48    45    1
    11    48    49    1
    12    50    49    1
    13    58    57    2
    14    57    56    1
    15    62    63    1
    16    64    63    1
    17    56    55    1
    18    56    59    1
    19    55    61    1
    20    63    66    1
    21    66    67    1
    22    66    68    1
    23    59    60    1
    24    61    60    1
    25    67    69    1
    26    26    27   ar
    27    26    24   ar
    28    27    25   ar
    29    92    91    1
    30    92    93    2
    31    91    90    1
    32    91    94    1
    33    95    94    1
    34    95    96    1
    35    34    32    1
    36    31    30    2
    37    24    22   ar
    38    25    23   ar
    39    33    35    1
    40    33    32    1
    41    29    32    1
    42    29    30    1
    43    29    28    1
    44    96    97    1
    45    20    19    2
    46    22    23   ar
    47    22    21    1
    48    88    89    1
    49    88    87    1
    50    28    19   am
    51    19    18    1
    52    39    38    2
    53    21    18    1
    54    15    14   ar
    55    18    17    1
    56    38    37    1
    57    87    86    1
    58    12    11    2
    59    37    36    1
    60    37    40    1
    61    14    13    1
    62    14    16   ar
    63    86    83    1
    64    13    10    1
    65    11    10    1
    66    43    41    1
    67    10     9    1
    68    40    41    1
    69    82    83    1
    70    85    84    2
    71    41    42    1
    72    83    84    1
    73     4     3    2
    74     9     3   am
    75     3     2    1
    76    78    76   ar
    77    78    80   ar
    78     8     7    1
    79    81    80    1
    80    76    75   ar
    81     6     5    1
    82     6     7    1
    83    80    79   ar
    84     5     2    1
    85     2     1    1
    86    75    74    1
    87    75    77   ar
    88    79    77   ar
    89    74    71    1
    90    71    72    1
    91    71    70    1
    92    72    73    2
