@<TRIPOS>MOLECULE
tmp/6fgfA00.pdb
 129 126 0 0 0
SMALL
GASTEIGER

@<TRIPOS>ATOM
      1  N        -39.1130   36.2180  -12.8050 N.3    21  TRP21      -0.1228
      2  CA       -39.9880   36.5400  -13.9280 C.3    21  TRP21       0.1722
      3  C        -39.2770   36.8260  -15.2550 C.2    21  TRP21       0.2437
      4  O        -39.8510   36.4740  -16.2990 O.2    21  TRP21      -0.2733
      5  CB       -40.9110   37.7090  -13.5450 C.3    21  TRP21       0.0563
      6  CG       -40.2220   38.9420  -13.0540 C.ar   21  TRP21       0.0003
      7  CD1      -39.8730   39.2330  -11.7650 C.ar   21  TRP21       0.0946
      8  CD2      -39.8210   40.0690  -13.8420 C.ar   21  TRP21       0.0152
      9  NE1      -39.2690   40.4670  -11.7060 N.ar   21  TRP21      -0.2442
     10  CE2      -39.2230   41.0000  -12.9670 C.ar   21  TRP21       0.0810
     11  CE3      -39.8970   40.3750  -15.2050 C.ar   21  TRP21       0.0012
     12  CZ2      -38.7090   42.2170  -13.4100 C.ar   21  TRP21       0.0191
     13  CZ3      -39.3860   41.5830  -15.6420 C.ar   21  TRP21       0.0001
     14  CH2      -38.8000   42.4890  -14.7480 C.ar   21  TRP21       0.0015
     15  N        -38.0790   37.4260  -15.3140 N.am   22  PRO22      -0.2718
     16  CA       -37.4780   37.6810  -16.6330 C.3    22  PRO22       0.1535
     17  C        -36.9100   36.4460  -17.3090 C.2    22  PRO22       0.2598
     18  O        -36.4180   36.5550  -18.4380 O.2    22  PRO22      -0.2715
     19  CB       -36.3590   38.6930  -16.3240 C.3    22  PRO22       0.0310
     20  CG       -36.6420   39.1940  -14.9450 C.3    22  PRO22       0.0237
     21  CD       -37.2650   38.0370  -14.2480 C.3    22  PRO22       0.0939
     22  N        -36.9600   35.2730  -16.6730 N.am   23  PHE23      -0.1974
     23  CA       -36.2860   34.0950  -17.2080 C.3    23  PHE23       0.1639
     24  C        -37.1970   32.8730  -17.2450 C.2    23  PHE23       0.2290
     25  O        -36.7060   31.7470  -17.3780 O.2    23  PHE23      -0.2864
     26  CB       -35.0240   33.7970  -16.3930 C.3    23  PHE23       0.0560
     27  CG       -34.3060   35.0310  -15.9310 C.ar   23  PHE23      -0.0200
     28  CD1      -33.5290   35.7690  -16.8100 C.ar   23  PHE23      -0.0042
     29  CD2      -34.4230   35.4650  -14.6230 C.ar   23  PHE23      -0.0042
     30  CE1      -32.8770   36.9130  -16.3910 C.ar   23  PHE23      -0.0003
     31  CE2      -33.7730   36.6090  -14.1990 C.ar   23  PHE23      -0.0003
     32  CZ       -33.0030   37.3330  -15.0850 C.ar   23  PHE23      -0.0000
     33  N        -37.0910   34.9040  -24.1800 N.3    27  VAL27      -0.1231
     34  CA       -37.2480   36.2910  -24.5940 C.3    27  VAL27       0.1692
     35  C        -37.9100   36.3390  -25.9630 C.2    27  VAL27       0.2592
     36  O        -37.4750   35.6670  -26.9070 O.2    27  VAL27      -0.2718
     37  CB       -35.8850   36.9990  -24.6050 C.3    27  VAL27       0.0266
     38  CG1      -36.0100   38.3910  -25.2030 C.3    27  VAL27       0.0020
     39  CG2      -35.3070   37.0670  -23.2010 C.3    27  VAL27       0.0020
     40  N        -38.9800   37.1240  -26.0720 N.am   28  ASN28      -0.1974
     41  CA       -39.6650   37.3180  -27.3420 C.3    28  ASN28       0.1688
     42  C        -38.9410   38.3950  -28.1370 C.2    28  ASN28       0.2292
     43  O        -39.0660   39.5860  -27.8220 O.2    28  ASN28      -0.2864
     44  CB       -41.1270   37.7070  -27.1150 C.3    28  ASN28       0.1181
     45  CG       -41.9590   37.6310  -28.3800 C.2    28  ASN28       0.2629
     46  OD1      -41.4300   37.5990  -29.4920 O.2    28  ASN28      -0.2716
     47  ND2      -43.2760   37.6080  -28.2140 N.am   28  ASN28      -0.0877
     48  N        -40.5480   41.6040  -29.2900 N.3    31  LEU31      -0.1231
     49  CA       -40.8600   42.5890  -28.2640 C.3    31  LEU31       0.1693
     50  C        -39.6070   43.2950  -27.7700 C.2    31  LEU31       0.2591
     51  O        -39.6510   44.5010  -27.5100 O.2    31  LEU31      -0.2718
     52  CB       -41.6390   41.9220  -27.1270 C.3    31  LEU31       0.0284
     53  CG       -43.0100   41.3870  -27.5250 C.3    31  LEU31       0.0019
     54  CD1      -43.6180   40.5460  -26.4130 C.3    31  LEU31       0.0001
     55  CD2      -43.9240   42.5440  -27.8990 C.3    31  LEU31       0.0001
     56  N        -38.4960   42.5790  -27.6450 N.am   32  VAL32      -0.1980
     57  CA       -37.2560   43.1330  -27.1200 C.3    32  VAL32       0.1595
     58  C        -36.3520   43.5440  -28.2780 C.2    32  VAL32       0.2287
     59  O        -35.7330   42.7000  -28.9330 O.2    32  VAL32      -0.2864
     60  CB       -36.5890   42.1100  -26.1990 C.3    32  VAL32       0.0276
     61  CG1      -35.3690   42.7110  -25.5440 C.3    32  VAL32       0.0022
     62  CG2      -37.5820   41.6460  -25.1490 C.3    32  VAL32       0.0022
     63  N        -32.4940   42.1290  -29.1260 N.3    35  TYR35      -0.1241
     64  CA       -32.1280   40.9100  -28.4110 C.3    35  TYR35       0.1605
     65  C        -31.6510   39.8250  -29.3660 C.2    35  TYR35       0.2264
     66  O        -30.7290   39.0670  -29.0410 O.2    35  TYR35      -0.2867
     67  CB       -33.3060   40.4100  -27.5800 C.3    35  TYR35       0.0534
     68  CG       -32.9070   39.3530  -26.5760 C.ar   35  TYR35      -0.0201
     69  CD1      -32.2770   39.7020  -25.3890 C.ar   35  TYR35      -0.0009
     70  CD2      -33.1420   38.0070  -26.8240 C.ar   35  TYR35      -0.0009
     71  CE1      -31.9010   38.7390  -24.4720 C.ar   35  TYR35       0.0417
     72  CE2      -32.7680   37.0380  -25.9160 C.ar   35  TYR35       0.0417
     73  CZ       -32.1480   37.4090  -24.7430 C.ar   35  TYR35       0.1957
     74  OH       -31.7760   36.4440  -23.8360 O.3    35  TYR35      -0.2866
     75  N        -31.2410   31.3730  -23.5240 N.3    43  MET43      -0.1245
     76  CA       -31.5680   30.2870  -22.6120 C.3    43  MET43       0.1570
     77  C        -32.4370   30.8400  -21.4920 C.2    43  MET43       0.2261
     78  O        -32.2370   31.9730  -21.0480 O.2    43  MET43      -0.2867
     79  CB       -30.3000   29.6350  -22.0460 C.3    43  MET43       0.0387
     80  CG       -30.5450   28.4260  -21.1550 C.3    43  MET43       0.0595
     81  SD       -31.3250   27.0460  -22.0130 S.3    43  MET43      -0.1393
     82  CE       -30.0860   26.6410  -23.2410 C.3    43  MET43       0.0692
     83  N        -27.9690   31.5650  -18.9440 N.3    70  VAL70      -0.1245
     84  CA       -29.0580   32.4980  -18.6520 C.3    70  VAL70       0.1561
     85  C        -28.4970   33.8030  -18.1040 C.2    70  VAL70       0.2260
     86  O        -28.7760   34.8940  -18.6190 O.2    70  VAL70      -0.2867
     87  CB       -30.0660   31.8720  -17.6680 C.3    70  VAL70       0.0252
     88  CG1      -31.0700   32.9140  -17.1970 C.3    70  VAL70       0.0019
     89  CG2      -30.7920   30.6970  -18.2980 C.3    70  VAL70       0.0019
     90  N        -26.2500   35.8830  -20.4850 N.3    73  ASN73      -0.1225
     91  CA       -27.0840   36.6190  -21.4280 C.3    73  ASN73       0.1785
     92  C        -27.7160   37.8350  -20.7620 C.2    73  ASN73       0.2597
     93  O        -27.7240   38.9360  -21.3370 O.2    73  ASN73      -0.2718
     94  CB       -28.1630   35.7000  -22.0050 C.3    73  ASN73       0.1169
     95  CG       -27.6000   34.6600  -22.9540 C.2    73  ASN73       0.2627
     96  OD1      -26.5480   34.8600  -23.5600 O.2    73  ASN73      -0.2716
     97  ND2      -28.3050   33.5440  -23.0930 N.am   73  ASN73      -0.0877
     98  N        -28.2390   37.6570  -19.5430 N.am   74  CYS74      -0.1970
     99  CA       -28.8420   38.7730  -18.8220 C.3    74  CYS74       0.1712
    100  C        -27.8550   39.9230  -18.6610 C.2    74  CYS74       0.2296
    101  O        -28.1900   41.0880  -18.9130 O.2    74  CYS74      -0.2864
    102  CB       -29.3480   38.3050  -17.4580 C.3    74  CYS74       0.0983
    103  SG       -30.3140   39.5450  -16.5600 S.3    74  CYS74      -0.0798
    104  N        -27.0710   41.7060  -22.1750 N.3    77  PHE77      -0.1227
    105  CA       -28.0730   42.5470  -22.8210 C.3    77  PHE77       0.1736
    106  C        -28.5840   43.6940  -21.9520 C.2    77  PHE77       0.2595
    107  O        -28.9390   44.7480  -22.4910 O.2    77  PHE77      -0.2718
    108  CB       -29.2650   41.6980  -23.2710 C.3    77  PHE77       0.0547
    109  CG       -30.2970   42.4730  -24.0340 C.ar   77  PHE77      -0.0202
    110  CD1      -30.1550   42.6800  -25.3980 C.ar   77  PHE77      -0.0042
    111  CD2      -31.4010   43.0110  -23.3870 C.ar   77  PHE77      -0.0042
    112  CE1      -31.0940   43.4010  -26.1060 C.ar   77  PHE77      -0.0003
    113  CE2      -32.3420   43.7330  -24.0880 C.ar   77  PHE77      -0.0003
    114  CZ       -32.1890   43.9280  -25.4530 C.ar   77  PHE77      -0.0000
    115  N        -28.6500   43.5280  -20.6340 N.am   78  ASN78      -0.1974
    116  CA       -29.3190   44.4880  -19.7660 C.3    78  ASN78       0.1688
    117  C        -28.3250   45.2230  -18.8770 C.2    78  ASN78       0.2292
    118  O        -27.3390   44.6410  -18.4130 O.2    78  ASN78      -0.2864
    119  CB       -30.3630   43.7970  -18.8910 C.3    78  ASN78       0.1181
    120  CG       -31.4870   43.1990  -19.6980 C.2    78  ASN78       0.2629
    121  OD1      -32.5430   43.8120  -19.8580 O.2    78  ASN78      -0.2716
    122  ND2      -31.2670   41.9960  -20.2210 N.am   78  ASN78      -0.0877
    123  N        -34.5800   44.1240  -15.3210 N.3    84  VAL84      -0.1245
    124  CA       -34.0860   42.8010  -15.6930 C.3    84  VAL84       0.1561
    125  C        -32.6820   42.5860  -15.1520 C.2    84  VAL84       0.2260
    126  O        -32.3240   41.4710  -14.7610 O.2    84  VAL84      -0.2867
    127  CB       -34.1320   42.6260  -17.2260 C.3    84  VAL84       0.0252
    128  CG1      -33.4920   41.3080  -17.6380 C.3    84  VAL84       0.0019
    129  CG2      -35.5640   42.7060  -17.7300 C.3    84  VAL84       0.0019
@<TRIPOS>BOND
     1    46    45    2
     2    65    66    2
     3    65    64    1
     4    48    49    1
     5    63    64    1
     6    59    58    2
     7    64    67    1
     8    45    47   am
     9    45    44    1
    10    58    57    1
    11    49    50    1
    12    49    52    1
    13    42    43    2
    14    42    41    1
    15    55    53    1
    16    50    56   am
    17    50    51    2
    18    56    57    1
    19    67    68    1
    20    53    52    1
    21    53    54    1
    22    41    44    1
    23    41    40    1
    24    57    60    1
    25    36    35    2
    26    70    68   ar
    27    70    72   ar
    28    68    69   ar
    29    60    61    1
    30    60    62    1
    31   112   114   ar
    32   112   110   ar
    33    40    35   am
    34    35    34    1
    35    72    73   ar
    36   114   113   ar
    37   110   109   ar
    38    69    71   ar
    39    38    37    1
    40    73    71   ar
    41    73    74    1
    42    37    34    1
    43    37    39    1
    44    34    33    1
    45   113   111   ar
    46   109   111   ar
    47   109   108    1
    48    96    95    2
    49    75    76    1
    50   108   105    1
    51    82    81    1
    52    97    95   am
    53    95    94    1
    54   105   104    1
    55   105   106    1
    56    76    79    1
    57    76    77    1
    58   107   106    2
    59    79    80    1
    60    81    80    1
    61    94    91    1
    62   106   115   am
    63    77    78    2
    64    91    92    1
    65    91    90    1
    66    93    92    2
    67    92    98   am
    68   115   116    1
    69   122   120   am
    70   121   120    2
    71   116   119    1
    72   116   117    1
    73   120   119    1
    74    98    99    1
    75    83    84    1
    76   101   100    2
    77   117   118    2
    78    99   100    1
    79    99   102    1
    80    84    85    1
    81    84    87    1
    82    86    85    2
    83    18    17    2
    84    89    87    1
    85   129   127    1
    86    87    88    1
    87   128   127    1
    88   102   103    1
    89    25    24    2
    90    17    22   am
    91    17    16    1
    92    24    23    1
    93   127   124    1
    94    23    22    1
    95    23    26    1
    96    28    30   ar
    97    28    27   ar
    98    16    19    1
    99    16    15    1
   100    26    27    1
   101    30    32   ar
   102    19    20    1
   103     4     3    2
   104    27    29   ar
   105   124   123    1
   106   124   125    1
   107    13    11   ar
   108    13    14   ar
   109    15     3   am
   110    15    21    1
   111     3     2    1
   112    11     8   ar
   113   125   126    2
   114    32    31   ar
   115    20    21    1
   116    14    12   ar
   117    29    31   ar
   118     2     5    1
   119     2     1    1
   120     8     6   ar
   121     8    10   ar
   122     5     6    1
   123    12    10   ar
   124     6     7   ar
   125    10     9   ar
   126     7     9   ar
