@<TRIPOS>MOLECULE
tmp/6fggA00.pdb
 99 98 0 0 0
SMALL
GASTEIGER

@<TRIPOS>ATOM
      1  N        -24.1470  -11.0200   -8.1110 N.3    18  TRP18      -0.1228
      2  CA       -24.7620  -11.2300   -9.4150 C.3    18  TRP18       0.1722
      3  C        -23.9980  -10.6350  -10.5950 C.2    18  TRP18       0.2437
      4  O        -24.0760  -11.2300  -11.6760 O.2    18  TRP18      -0.2733
      5  CB       -26.2290  -10.7690   -9.4120 C.3    18  TRP18       0.0563
      6  CG       -26.4010   -9.3430   -9.0840 C.ar   18  TRP18       0.0003
      7  CD1      -26.5740   -8.8120   -7.8390 C.ar   18  TRP18       0.0946
      8  CD2      -26.3880   -8.2450   -9.9940 C.ar   18  TRP18       0.0152
      9  NE1      -26.6580   -7.4520   -7.9150 N.ar   18  TRP18      -0.2442
     10  CE2      -26.5590   -7.0790   -9.2290 C.ar   18  TRP18       0.0810
     11  CE3      -26.2550   -8.1290  -11.3800 C.ar   18  TRP18       0.0012
     12  CZ2      -26.5980   -5.8160   -9.8040 C.ar   18  TRP18       0.0191
     13  CZ3      -26.3010   -6.8720  -11.9420 C.ar   18  TRP18       0.0001
     14  CH2      -26.4650   -5.7370  -11.1580 C.ar   18  TRP18       0.0015
     15  N        -23.2610   -9.5170  -10.4800 N.am   19  PRO19      -0.2718
     16  CA       -22.5320   -9.0330  -11.6680 C.3    19  PRO19       0.1535
     17  C        -21.3380   -9.8830  -12.0240 C.2    19  PRO19       0.2598
     18  O        -20.8420   -9.7380  -13.1540 O.2    19  PRO19      -0.2715
     19  CB       -22.1160   -7.6010  -11.2910 C.3    19  PRO19       0.0310
     20  CG       -22.9540   -7.2350  -10.0960 C.3    19  PRO19       0.0237
     21  CD       -23.1590   -8.5450   -9.3740 C.3    19  PRO19       0.0939
     22  N        -20.8490  -10.7130  -11.0940 N.am   20  PHE20      -0.1974
     23  CA       -19.5280  -11.3210  -11.1670 C.3    20  PHE20       0.1639
     24  C        -19.5400  -12.8270  -11.3450 C.2    20  PHE20       0.2290
     25  O        -18.4740  -13.4440  -11.3380 O.2    20  PHE20      -0.2864
     26  CB       -18.7670  -10.9630   -9.8730 C.3    20  PHE20       0.0560
     27  CG       -18.8380   -9.4960   -9.5500 C.ar   20  PHE20      -0.0200
     28  CD1      -18.2910   -8.5600  -10.4060 C.ar   20  PHE20      -0.0042
     29  CD2      -19.5260   -9.0480   -8.4430 C.ar   20  PHE20      -0.0042
     30  CE1      -18.4020   -7.2010  -10.1410 C.ar   20  PHE20      -0.0003
     31  CE2      -19.6390   -7.6940   -8.1660 C.ar   20  PHE20      -0.0003
     32  CZ       -19.0860   -6.7700   -9.0220 C.ar   20  PHE20      -0.0000
     33  N        -18.3950  -11.2390  -18.3360 N.3    24  VAL24      -0.1245
     34  CA       -19.1390  -10.2230  -19.0680 C.3    24  VAL24       0.1561
     35  C        -19.1070  -10.5940  -20.5400 C.2    24  VAL24       0.2260
     36  O        -18.0450  -10.9340  -21.0790 O.2    24  VAL24      -0.2867
     37  CB       -18.5100   -8.8380  -18.8430 C.3    24  VAL24       0.0252
     38  CG1      -19.1770   -7.8020  -19.7370 C.3    24  VAL24       0.0019
     39  CG2      -18.5980   -8.4230  -17.3770 C.3    24  VAL24       0.0019
     40  N        -22.2040   -5.1140  -23.4720 N.3    29  VAL29      -0.1245
     41  CA       -21.7430   -4.0500  -22.5810 C.3    29  VAL29       0.1561
     42  C        -20.7750   -3.1800  -23.3830 C.2    29  VAL29       0.2260
     43  O        -19.5920   -3.5130  -23.5120 O.2    29  VAL29      -0.2867
     44  CB       -21.0840   -4.6090  -21.3110 C.3    29  VAL29       0.0252
     45  CG1      -20.6800   -3.4730  -20.3890 C.3    29  VAL29       0.0019
     46  CG2      -22.0290   -5.5600  -20.5910 C.3    29  VAL29       0.0019
     47  N        -16.6710   -2.5640  -23.0530 N.3    32  TYR32      -0.1241
     48  CA       -16.0510   -3.4080  -22.0380 C.3    32  TYR32       0.1605
     49  C        -14.7140   -3.9450  -22.5060 C.2    32  TYR32       0.2264
     50  O        -13.7230   -3.9050  -21.7650 O.2    32  TYR32      -0.2867
     51  CB       -16.9780   -4.5510  -21.6120 C.3    32  TYR32       0.0534
     52  CG       -16.5020   -5.1300  -20.2970 C.ar   32  TYR32      -0.0201
     53  CD1      -16.7840   -4.4800  -19.1040 C.ar   32  TYR32      -0.0009
     54  CD2      -15.7180   -6.2740  -20.2450 C.ar   32  TYR32      -0.0009
     55  CE1      -16.3070   -4.9410  -17.9090 C.ar   32  TYR32       0.0417
     56  CE2      -15.2310   -6.7560  -19.0430 C.ar   32  TYR32       0.0417
     57  CZ       -15.5330   -6.0870  -17.8740 C.ar   32  TYR32       0.1957
     58  OH       -15.0280   -6.5500  -16.6910 O.3    32  TYR32      -0.2866
     59  N        -14.1070   -3.9560  -12.0490 N.3    71  CYS71      -0.1235
     60  CA       -15.4100   -3.3610  -11.7900 C.3    71  CYS71       0.1677
     61  C        -15.2830   -1.8780  -11.4670 C.2    71  CYS71       0.2270
     62  O        -16.0740   -1.0550  -11.9500 O.2    71  CYS71      -0.2867
     63  CB       -16.0710   -4.1260  -10.6490 C.3    71  CYS71       0.0956
     64  SG       -17.7410   -3.5600  -10.2500 S.3    71  CYS71      -0.0801
     65  N        -14.4080    0.1380  -14.6370 N.3    74  PHE74      -0.1227
     66  CA       -15.4110    0.2320  -15.6860 C.3    74  PHE74       0.1736
     67  C        -16.6500    1.0070  -15.2530 C.2    74  PHE74       0.2595
     68  O        -17.2510    1.7010  -16.0830 O.2    74  PHE74      -0.2718
     69  CB       -15.8090   -1.1600  -16.1860 C.3    74  PHE74       0.0547
     70  CG       -16.6310   -1.0970  -17.4320 C.ar   74  PHE74      -0.0202
     71  CD1      -16.0330   -0.7830  -18.6370 C.ar   74  PHE74      -0.0042
     72  CD2      -18.0000   -1.2780  -17.3960 C.ar   74  PHE74      -0.0042
     73  CE1      -16.7810   -0.6720  -19.7900 C.ar   74  PHE74      -0.0003
     74  CE2      -18.7560   -1.1630  -18.5560 C.ar   74  PHE74      -0.0003
     75  CZ       -18.1390   -0.8510  -19.7450 C.ar   74  PHE74      -0.0000
     76  N        -17.0830    0.8410  -13.9940 N.am   75  ASN75      -0.1974
     77  CA       -18.3910    1.2960  -13.5310 C.3    75  ASN75       0.1688
     78  C        -18.2630    2.4430  -12.5400 C.2    75  ASN75       0.2292
     79  O        -17.3020    2.5120  -11.7740 O.2    75  ASN75      -0.2864
     80  CB       -19.1380    0.1550  -12.8440 C.3    75  ASN75       0.1181
     81  CG       -19.3140   -1.0390  -13.7480 C.2    75  ASN75       0.2629
     82  OD1      -20.2250   -1.0770  -14.5810 O.2    75  ASN75      -0.2716
     83  ND2      -18.4300   -2.0200  -13.6040 N.am   75  ASN75      -0.0877
     84  N        -25.2990    0.3990   -9.8830 N.3    80  GLU80      -0.1231
     85  CA       -25.6030   -0.8440   -9.1790 C.3    80  GLU80       0.1699
     86  C        -24.4330   -1.8230   -9.2380 C.2    80  GLU80       0.2592
     87  O        -24.0920   -2.4530   -8.2280 O.2    80  GLU80      -0.2718
     88  CB       -26.8800   -1.4780   -9.7280 C.3    80  GLU80       0.0402
     89  CG       -28.1330   -0.6910   -9.3590 C.3    80  GLU80       0.1161
     90  CD       -28.2210   -0.3950   -7.8640 C.2    80  GLU80       0.3649
     91  OE1      -28.1820   -1.3430   -7.0450 O.co2  80  GLU80      -0.2457
     92  OE2      -28.2900    0.7960   -7.5070 O.co2  80  GLU80      -0.2457
     93  N        -23.8080   -1.9810  -10.4050 N.am   81  VAL81      -0.1980
     94  CA       -22.6700   -2.8850  -10.4980 C.3    81  VAL81       0.1595
     95  C        -21.4920   -2.3410   -9.6960 C.2    81  VAL81       0.2287
     96  O        -20.7990   -3.0900   -8.9990 O.2    81  VAL81      -0.2864
     97  CB       -22.3230   -3.1470  -11.9770 C.3    81  VAL81       0.0276
     98  CG1      -21.0180   -3.9290  -12.0910 C.3    81  VAL81       0.0022
     99  CG2      -23.4570   -3.9030  -12.6590 C.3    81  VAL81       0.0022
@<TRIPOS>BOND
     1    43    42    2
     2    40    41    1
     3    42    41    1
     4    47    48    1
     5    41    44    1
     6    49    48    1
     7    49    50    2
     8    48    51    1
     9    51    52    1
    10    44    46    1
    11    44    45    1
    12    36    35    2
    13    35    34    1
    14    52    54   ar
    15    52    53   ar
    16    54    56   ar
    17    73    75   ar
    18    73    71   ar
    19    75    74   ar
    20    38    37    1
    21    53    55   ar
    22    34    37    1
    23    34    33    1
    24    56    57   ar
    25    37    39    1
    26    71    70   ar
    27    74    72   ar
    28    55    57   ar
    29    57    58    1
    30    70    72   ar
    31    70    69    1
    32    69    66    1
    33    68    67    2
    34    66    67    1
    35    66    65    1
    36    67    76   am
    37    82    81    2
    38    76    77    1
    39    81    83   am
    40    81    80    1
    41    77    80    1
    42    77    78    1
    43    18    17    2
    44    99    97    1
    45    78    79    2
    46    98    97    1
    47    59    60    1
    48    17    16    1
    49    17    22   am
    50    97    94    1
    51    62    61    2
    52    13    11   ar
    53    13    14   ar
    54    60    61    1
    55    60    63    1
    56     4     3    2
    57    16    19    1
    58    16    15    1
    59    11     8   ar
    60    24    25    2
    61    24    23    1
    62    19    20    1
    63    23    22    1
    64    23    26    1
    65    14    12   ar
    66    63    64    1
    67     3    15   am
    68     3     2    1
    69    94    93    1
    70    94    95    1
    71    15    21    1
    72    28    30   ar
    73    28    27   ar
    74    93    86   am
    75    30    32   ar
    76    20    21    1
    77     8    10   ar
    78     8     6   ar
    79    84    85    1
    80    26    27    1
    81    12    10   ar
    82    88    89    1
    83    88    85    1
    84    95    96    2
    85    27    29   ar
    86     2     5    1
    87     2     1    1
    88     5     6    1
    89    89    90    1
    90    86    85    1
    91    86    87    2
    92    10     9   ar
    93     6     7   ar
    94    32    31   ar
    95    29    31   ar
    96     9     7   ar
    97    90    92   ar
    98    90    91   ar
