@<TRIPOS>MOLECULE
tmp/6fghA00.pdb
 122 122 0 0 0
SMALL
GASTEIGER

@<TRIPOS>ATOM
      1  N        -39.0560   36.0710  -12.7700 N.3    21  TRP21      -0.1228
      2  CA       -39.9920   36.4930  -13.8100 C.3    21  TRP21       0.1722
      3  C        -39.3260   36.8400  -15.1510 C.2    21  TRP21       0.2437
      4  O        -39.9390   36.5760  -16.1910 O.2    21  TRP21      -0.2733
      5  CB       -40.8450   37.6680  -13.3000 C.3    21  TRP21       0.0563
      6  CG       -40.0410   38.8580  -12.8980 C.ar   21  TRP21       0.0003
      7  CD1      -39.5340   39.1330  -11.6610 C.ar   21  TRP21       0.0946
      8  CD2      -39.6200   39.9260  -13.7530 C.ar   21  TRP21       0.0152
      9  NE1      -38.8250   40.3150  -11.6920 N.ar   21  TRP21      -0.2442
     10  CE2      -38.8500   40.8140  -12.9670 C.ar   21  TRP21       0.0810
     11  CE3      -39.8100   40.2130  -15.1130 C.ar   21  TRP21       0.0012
     12  CZ2      -38.2820   41.9810  -13.4920 C.ar   21  TRP21       0.0191
     13  CZ3      -39.2350   41.3670  -15.6390 C.ar   21  TRP21       0.0001
     14  CH2      -38.4860   42.2390  -14.8300 C.ar   21  TRP21       0.0015
     15  N        -38.0960   37.3910  -15.2180 N.am   22  PRO22      -0.2718
     16  CA       -37.4970   37.6140  -16.5510 C.3    22  PRO22       0.1535
     17  C        -37.1400   36.3410  -17.2820 C.2    22  PRO22       0.2598
     18  O        -36.9870   36.3790  -18.5150 O.2    22  PRO22      -0.2715
     19  CB       -36.2290   38.4300  -16.2540 C.3    22  PRO22       0.0310
     20  CG       -36.3840   38.9280  -14.8540 C.3    22  PRO22       0.0237
     21  CD       -37.1800   37.8650  -14.1610 C.3    22  PRO22       0.0939
     22  N        -36.9850   35.2240  -16.5750 N.am   23  PHE23      -0.1974
     23  CA       -36.2780   34.0670  -17.1200 C.3    23  PHE23       0.1639
     24  C        -37.1740   32.8530  -17.2840 C.2    23  PHE23       0.2290
     25  O        -36.6800   31.7740  -17.6300 O.2    23  PHE23      -0.2864
     26  CB       -35.0750   33.7310  -16.2330 C.3    23  PHE23       0.0560
     27  CG       -34.2860   34.9350  -15.8570 C.ar   23  PHE23      -0.0200
     28  CD1      -33.5470   35.6120  -16.8200 C.ar   23  PHE23      -0.0042
     29  CD2      -34.3360   35.4430  -14.5590 C.ar   23  PHE23      -0.0042
     30  CE1      -32.8400   36.7450  -16.5020 C.ar   23  PHE23      -0.0003
     31  CE2      -33.6240   36.5830  -14.2190 C.ar   23  PHE23      -0.0003
     32  CZ       -32.8740   37.2400  -15.2010 C.ar   23  PHE23      -0.0000
     33  N        -39.6560   32.2910  -19.4920 N.3    25  GLU25      -0.1231
     34  CA       -39.9650   32.0060  -20.8880 C.3    25  GLU25       0.1684
     35  C        -38.8120   32.4960  -21.7480 C.2    25  GLU25       0.2434
     36  O        -37.9760   33.2770  -21.2780 O.2    25  GLU25      -0.2733
     37  CB       -41.3170   32.6130  -21.3030 C.3    25  GLU25       0.0402
     38  CG       -42.5350   31.9410  -20.6770 C.3    25  GLU25       0.1161
     39  CD       -42.6170   30.4560  -21.0020 C.2    25  GLU25       0.3649
     40  OE1      -42.3710   30.0870  -22.1760 O.co2  25  GLU25      -0.2457
     41  OE2      -42.9240   29.6600  -20.0830 O.co2  25  GLU25      -0.2457
     42  N        -38.7400   32.0540  -23.0100 N.am   26  PRO26      -0.2718
     43  CA       -37.7040   32.5650  -23.9160 C.3    26  PRO26       0.1535
     44  C        -37.9870   34.0350  -24.1740 C.2    26  PRO26       0.2598
     45  O        -39.1410   34.4590  -24.2520 O.2    26  PRO26      -0.2715
     46  CB       -37.9100   31.7290  -25.1880 C.3    26  PRO26       0.0310
     47  CG       -38.4550   30.4330  -24.6980 C.3    26  PRO26       0.0237
     48  CD       -39.3040   30.7710  -23.4920 C.3    26  PRO26       0.0939
     49  N        -36.9190   34.8250  -24.2800 N.am   27  VAL27      -0.1964
     50  CA       -37.0780   36.1940  -24.7440 C.3    27  VAL27       0.1727
     51  C        -37.7110   36.1760  -26.1280 C.2    27  VAL27       0.2616
     52  O        -37.3610   35.3480  -26.9790 O.2    27  VAL27      -0.2715
     53  CB       -35.7230   36.9170  -24.7720 C.3    27  VAL27       0.0290
     54  CG1      -35.8800   38.2890  -25.4210 C.3    27  VAL27       0.0023
     55  CG2      -35.1490   37.0130  -23.3610 C.3    27  VAL27       0.0023
     56  N        -38.6720   37.0770  -26.3470 N.am   28  ASN28      -0.1972
     57  CA       -39.3260   37.2110  -27.6400 C.3    28  ASN28       0.1688
     58  C        -38.5550   38.2100  -28.4920 C.2    28  ASN28       0.2292
     59  O        -38.6640   39.4270  -28.2540 O.2    28  ASN28      -0.2864
     60  CB       -40.7640   37.6670  -27.4610 C.3    28  ASN28       0.1181
     61  CG       -41.5470   37.6010  -28.7510 C.2    28  ASN28       0.2629
     62  OD1      -40.9620   37.5390  -29.8250 O.2    28  ASN28      -0.2716
     63  ND2      -42.8720   37.6280  -28.6550 N.am   28  ASN28      -0.0877
     64  N        -40.2100   41.3860  -29.6470 N.3    31  LEU31      -0.1231
     65  CA       -40.4830   42.4260  -28.6630 C.3    31  LEU31       0.1693
     66  C        -39.2260   43.1110  -28.1540 C.2    31  LEU31       0.2591
     67  O        -39.2900   44.2550  -27.6980 O.2    31  LEU31      -0.2718
     68  CB       -41.2450   41.8410  -27.4710 C.3    31  LEU31       0.0284
     69  CG       -42.5760   41.1890  -27.8600 C.3    31  LEU31       0.0019
     70  CD1      -43.1800   40.4090  -26.6940 C.3    31  LEU31       0.0001
     71  CD2      -43.5440   42.2310  -28.3830 C.3    31  LEU31       0.0001
     72  N        -38.0870   42.4500  -28.2330 N.am   32  VAL32      -0.1980
     73  CA       -36.8610   42.9630  -27.6560 C.3    32  VAL32       0.1595
     74  C        -35.9200   43.2740  -28.8090 C.2    32  VAL32       0.2287
     75  O        -35.2070   42.3980  -29.3150 O.2    32  VAL32      -0.2864
     76  CB       -36.2590   41.9860  -26.6450 C.3    32  VAL32       0.0276
     77  CG1      -35.0610   42.6020  -25.9930 C.3    32  VAL32       0.0022
     78  CG2      -37.3160   41.6520  -25.5760 C.3    32  VAL32       0.0022
     79  N        -32.1570   41.7960  -29.6220 N.3    35  TYR35      -0.1241
     80  CA       -31.8400   40.5910  -28.8580 C.3    35  TYR35       0.1605
     81  C        -31.2590   39.5020  -29.7550 C.2    35  TYR35       0.2264
     82  O        -30.2600   38.8600  -29.4010 O.2    35  TYR35      -0.2867
     83  CB       -33.0790   40.0760  -28.1170 C.3    35  TYR35       0.0534
     84  CG       -32.6860   39.1580  -26.9820 C.ar   35  TYR35      -0.0201
     85  CD1      -32.1730   39.6820  -25.8000 C.ar   35  TYR35      -0.0009
     86  CD2      -32.7740   37.7740  -27.1060 C.ar   35  TYR35      -0.0009
     87  CE1      -31.7730   38.8600  -24.7590 C.ar   35  TYR35       0.0417
     88  CE2      -32.3710   36.9400  -26.0730 C.ar   35  TYR35       0.0417
     89  CZ       -31.8740   37.4920  -24.9010 C.ar   35  TYR35       0.1957
     90  OH       -31.4740   36.6850  -23.8630 O.3    35  TYR35      -0.2866
     91  N        -28.1970   37.4360  -19.7050 N.3    74  CYS74      -0.1235
     92  CA       -28.8130   38.5580  -19.0060 C.3    74  CYS74       0.1677
     93  C        -27.8350   39.7190  -18.8460 C.2    74  CYS74       0.2270
     94  O        -28.1690   40.8760  -19.1320 O.2    74  CYS74      -0.2867
     95  CB       -29.3320   38.0960  -17.6400 C.3    74  CYS74       0.0956
     96  SG       -30.0820   39.4390  -16.7400 S.3    74  CYS74      -0.0801
     97  N        -26.9630   41.4770  -22.3090 N.3    77  PHE77      -0.1227
     98  CA       -27.9710   42.3360  -22.9200 C.3    77  PHE77       0.1736
     99  C        -28.4680   43.4620  -22.0240 C.2    77  PHE77       0.2595
    100  O        -28.8370   44.5270  -22.5410 O.2    77  PHE77      -0.2718
    101  CB       -29.1830   41.5230  -23.3760 C.3    77  PHE77       0.0547
    102  CG       -30.1260   42.3120  -24.2410 C.ar   77  PHE77      -0.0202
    103  CD1      -29.8740   42.4630  -25.5970 C.ar   77  PHE77      -0.0042
    104  CD2      -31.2360   42.9330  -23.6930 C.ar   77  PHE77      -0.0042
    105  CE1      -30.7200   43.2120  -26.3990 C.ar   77  PHE77      -0.0003
    106  CE2      -32.0840   43.6800  -24.4790 C.ar   77  PHE77      -0.0003
    107  CZ       -31.8290   43.8130  -25.8380 C.ar   77  PHE77      -0.0000
    108  N        -28.5190   43.2640  -20.7080 N.am   78  ASN78      -0.1974
    109  CA       -29.2060   44.1900  -19.8170 C.3    78  ASN78       0.1688
    110  C        -28.2090   44.9320  -18.9450 C.2    78  ASN78       0.2292
    111  O        -27.2350   44.3440  -18.4640 O.2    78  ASN78      -0.2864
    112  CB       -30.2170   43.4540  -18.9330 C.3    78  ASN78       0.1181
    113  CG       -31.1790   42.5980  -19.7440 C.2    78  ASN78       0.2629
    114  OD1      -32.1980   43.0900  -20.2260 O.2    78  ASN78      -0.2716
    115  ND2      -30.8670   41.3090  -19.8820 N.am   78  ASN78      -0.0877
    116  N        -34.4590   44.0430  -15.3610 N.3    84  VAL84      -0.1245
    117  CA       -34.0780   42.6730  -15.6960 C.3    84  VAL84       0.1561
    118  C        -32.6880   42.3550  -15.1410 C.2    84  VAL84       0.2260
    119  O        -32.4470   41.2710  -14.5960 O.2    84  VAL84      -0.2867
    120  CB       -34.1400   42.4590  -17.2210 C.3    84  VAL84       0.0252
    121  CG1      -33.4450   41.1700  -17.5920 C.3    84  VAL84       0.0019
    122  CG2      -35.5970   42.4530  -17.6920 C.3    84  VAL84       0.0019
@<TRIPOS>BOND
     1    62    61    2
     2    81    82    2
     3    81    80    1
     4    64    65    1
     5    79    80    1
     6    75    74    2
     7    80    83    1
     8    74    73    1
     9    61    63   am
    10    61    60    1
    11    65    66    1
    12    65    68    1
    13    58    59    2
    14    58    57    1
    15    71    69    1
    16    72    66   am
    17    72    73    1
    18    66    67    2
    19    83    84    1
    20    69    68    1
    21    69    70    1
    22    73    76    1
    23    57    60    1
    24    57    56    1
    25    86    84   ar
    26    86    88   ar
    27    84    85   ar
    28    52    51    2
    29    76    77    1
    30    76    78    1
    31   105   107   ar
    32   105   103   ar
    33    56    51   am
    34    51    50    1
    35    88    89   ar
    36   107   106   ar
    37    85    87   ar
    38   103   102   ar
    39    54    53    1
    40    46    47    1
    41    46    43    1
    42    89    87   ar
    43    89    90    1
    44    53    50    1
    45    53    55    1
    46    50    49    1
    47    47    48    1
    48   106   104   ar
    49    49    44   am
    50    45    44    2
    51   102   104   ar
    52   102   101    1
    53    44    43    1
    54    43    42    1
    55    48    42    1
    56   101    98    1
    57    42    35   am
    58    98    97    1
    59    98    99    1
    60   100    99    2
    61    40    39   ar
    62    99   108   am
    63    35    36    2
    64    35    34    1
    65    37    34    1
    66    37    38    1
    67    39    38    1
    68    39    41   ar
    69    34    33    1
    70   108   109    1
    71   114   113    2
    72   115   113   am
    73   109   110    1
    74   109   112    1
    75   113   112    1
    76    91    92    1
    77    94    93    2
    78    92    93    1
    79    92    95    1
    80   110   111    2
    81    18    17    2
    82   122   120    1
    83    95    96    1
    84    25    24    2
    85   121   120    1
    86    24    23    1
    87    17    22   am
    88    17    16    1
    89   120   117    1
    90    23    22    1
    91    23    26    1
    92    28    30   ar
    93    28    27   ar
    94    16    19    1
    95    16    15    1
    96    30    32   ar
    97    19    20    1
    98    26    27    1
    99     4     3    2
   100    27    29   ar
   101   117   116    1
   102   117   118    1
   103    13    11   ar
   104    13    14   ar
   105    15     3   am
   106    15    21    1
   107    32    31   ar
   108     3     2    1
   109   118   119    2
   110    11     8   ar
   111    20    21    1
   112    14    12   ar
   113    29    31   ar
   114     2     5    1
   115     2     1    1
   116     8    10   ar
   117     8     6   ar
   118    12    10   ar
   119     5     6    1
   120    10     9   ar
   121     6     7   ar
   122     9     7   ar
