@<TRIPOS>MOLECULE
tmp/6fgiA00.pdb
 122 122 0 0 0
SMALL
GASTEIGER

@<TRIPOS>ATOM
      1  N        -39.0420   35.9490  -12.6700 N.3    21  TRP21      -0.1228
      2  CA       -39.9700   36.3150  -13.7340 C.3    21  TRP21       0.1722
      3  C        -39.3100   36.6090  -15.0870 C.2    21  TRP21       0.2437
      4  O        -39.9200   36.2930  -16.1150 O.2    21  TRP21      -0.2733
      5  CB       -40.8300   37.5010  -13.2890 C.3    21  TRP21       0.0563
      6  CG       -40.0470   38.7060  -12.9270 C.ar   21  TRP21       0.0003
      7  CD1      -39.5570   39.0290  -11.6980 C.ar   21  TRP21       0.0946
      8  CD2      -39.6470   39.7570  -13.8110 C.ar   21  TRP21       0.0152
      9  NE1      -38.8720   40.2190  -11.7610 N.ar   21  TRP21      -0.2442
     10  CE2      -38.9080   40.6830  -13.0500 C.ar   21  TRP21       0.0810
     11  CE3      -39.8250   39.9940  -15.1780 C.ar   21  TRP21       0.0012
     12  CZ2      -38.3570   41.8350  -13.6070 C.ar   21  TRP21       0.0191
     13  CZ3      -39.2810   41.1390  -15.7290 C.ar   21  TRP21       0.0001
     14  CH2      -38.5600   42.0480  -14.9430 C.ar   21  TRP21       0.0015
     15  N        -38.0960   37.1840  -15.1730 N.am   22  PRO22      -0.2718
     16  CA       -37.5240   37.4090  -16.5120 C.3    22  PRO22       0.1535
     17  C        -37.1210   36.1140  -17.1880 C.2    22  PRO22       0.2598
     18  O        -37.1260   36.0580  -18.4240 O.2    22  PRO22      -0.2715
     19  CB       -36.3430   38.3560  -16.2480 C.3    22  PRO22       0.0310
     20  CG       -36.5530   38.8810  -14.8680 C.3    22  PRO22       0.0237
     21  CD       -37.2030   37.7510  -14.1430 C.3    22  PRO22       0.0939
     22  N        -36.8020   35.0650  -16.4330 N.am   23  PHE23      -0.1974
     23  CA       -36.2020   33.8630  -17.0020 C.3    23  PHE23       0.1639
     24  C        -37.1180   32.6490  -17.0740 C.2    23  PHE23       0.2290
     25  O        -36.6300   31.5330  -17.2880 O.2    23  PHE23      -0.2864
     26  CB       -34.9540   33.5480  -16.1740 C.3    23  PHE23       0.0560
     27  CG       -34.1840   34.7710  -15.7950 C.ar   23  PHE23      -0.0200
     28  CD1      -33.4820   35.4790  -16.7550 C.ar   23  PHE23      -0.0042
     29  CD2      -34.2050   35.2470  -14.4970 C.ar   23  PHE23      -0.0042
     30  CE1      -32.7900   36.6250  -16.4260 C.ar   23  PHE23      -0.0003
     31  CE2      -33.5120   36.3940  -14.1570 C.ar   23  PHE23      -0.0003
     32  CZ       -32.8030   37.0830  -15.1250 C.ar   23  PHE23      -0.0000
     33  N        -39.7860   32.0560  -19.3050 N.3    25  GLU25      -0.1231
     34  CA       -40.0060   31.7010  -20.6980 C.3    25  GLU25       0.1684
     35  C        -38.8880   32.2590  -21.5720 C.2    25  GLU25       0.2434
     36  O        -38.1830   33.1920  -21.1730 O.2    25  GLU25      -0.2733
     37  CB       -41.3630   32.2330  -21.1860 C.3    25  GLU25       0.0402
     38  CG       -42.5650   31.5990  -20.4960 C.3    25  GLU25       0.1161
     39  CD       -42.5850   30.0830  -20.6240 C.2    25  GLU25       0.3649
     40  OE1      -42.2170   29.5660  -21.7030 O.co2  25  GLU25      -0.2457
     41  OE2      -42.9650   29.4090  -19.6430 O.co2  25  GLU25      -0.2457
     42  N        -38.6890   31.6970  -22.7680 N.am   26  PRO26      -0.2718
     43  CA       -37.6740   32.2500  -23.6730 C.3    26  PRO26       0.1535
     44  C        -37.9660   33.6990  -24.0230 C.2    26  PRO26       0.2598
     45  O        -39.1200   34.1200  -24.1270 O.2    26  PRO26      -0.2715
     46  CB       -37.7730   31.3470  -24.9100 C.3    26  PRO26       0.0310
     47  CG       -38.3030   30.0630  -24.3940 C.3    26  PRO26       0.0237
     48  CD       -39.2620   30.4450  -23.2920 C.3    26  PRO26       0.0939
     49  N        -36.8920   34.4700  -24.1930 N.am   27  VAL27      -0.1964
     50  CA       -37.0330   35.8610  -24.5960 C.3    27  VAL27       0.1727
     51  C        -37.7130   35.9270  -25.9550 C.2    27  VAL27       0.2616
     52  O        -37.3790   35.1680  -26.8740 O.2    27  VAL27      -0.2715
     53  CB       -35.6600   36.5480  -24.6170 C.3    27  VAL27       0.0290
     54  CG1      -35.7720   37.9490  -25.1860 C.3    27  VAL27       0.0023
     55  CG2      -35.0660   36.5790  -23.2150 C.3    27  VAL27       0.0023
     56  N        -38.6820   36.8290  -26.0810 N.am   28  ASN28      -0.1972
     57  CA       -39.4080   37.0540  -27.3240 C.3    28  ASN28       0.1688
     58  C        -38.7200   38.1490  -28.1300 C.2    28  ASN28       0.2292
     59  O        -38.8610   39.3370  -27.8110 O.2    28  ASN28      -0.2864
     60  CB       -40.8610   37.4350  -27.0230 C.3    28  ASN28       0.1181
     61  CG       -41.7560   37.3710  -28.2500 C.2    28  ASN28       0.2629
     62  OD1      -41.2890   37.4570  -29.3860 O.2    28  ASN28      -0.2716
     63  ND2      -43.0580   37.2270  -28.0210 N.am   28  ASN28      -0.0877
     64  N        -40.4940   41.3140  -29.1160 N.3    31  LEU31      -0.1231
     65  CA       -40.7440   42.3140  -28.0870 C.3    31  LEU31       0.1693
     66  C        -39.4760   42.9790  -27.5780 C.2    31  LEU31       0.2591
     67  O        -39.5160   44.1510  -27.1870 O.2    31  LEU31      -0.2718
     68  CB       -41.4890   41.6760  -26.9110 C.3    31  LEU31       0.0284
     69  CG       -42.8260   41.0350  -27.2960 C.3    31  LEU31       0.0019
     70  CD1      -43.2850   40.0360  -26.2460 C.3    31  LEU31       0.0001
     71  CD2      -43.8750   42.1120  -27.5160 C.3    31  LEU31       0.0001
     72  N        -38.3550   42.2670  -27.5830 N.am   32  VAL32      -0.1980
     73  CA       -37.0900   42.7840  -27.0790 C.3    32  VAL32       0.1595
     74  C        -36.2430   43.1530  -28.2910 C.2    32  VAL32       0.2287
     75  O        -35.6320   42.2910  -28.9290 O.2    32  VAL32      -0.2864
     76  CB       -36.3870   41.7720  -26.1730 C.3    32  VAL32       0.0276
     77  CG1      -35.1210   42.3730  -25.5980 C.3    32  VAL32       0.0022
     78  CG2      -37.3250   41.3310  -25.0590 C.3    32  VAL32       0.0022
     79  N        -32.3880   41.7100  -29.2170 N.3    35  TYR35      -0.1241
     80  CA       -31.9770   40.5020  -28.5080 C.3    35  TYR35       0.1605
     81  C        -31.4650   39.4410  -29.4710 C.2    35  TYR35       0.2264
     82  O        -30.4580   38.7770  -29.1930 O.2    35  TYR35      -0.2867
     83  CB       -33.1300   39.9470  -27.6710 C.3    35  TYR35       0.0534
     84  CG       -32.6540   38.9870  -26.6020 C.ar   35  TYR35      -0.0201
     85  CD1      -32.2280   39.4520  -25.3660 C.ar   35  TYR35      -0.0009
     86  CD2      -32.6030   37.6210  -26.8410 C.ar   35  TYR35      -0.0009
     87  CE1      -31.7800   38.5820  -24.3920 C.ar   35  TYR35       0.0417
     88  CE2      -32.1580   36.7410  -25.8730 C.ar   35  TYR35       0.0417
     89  CZ       -31.7460   37.2270  -24.6510 C.ar   35  TYR35       0.1957
     90  OH       -31.2980   36.3550  -23.6830 O.3    35  TYR35      -0.2866
     91  N        -28.1100   37.4810  -19.5970 N.3    74  CYS74      -0.1235
     92  CA       -28.7470   38.5910  -18.8940 C.3    74  CYS74       0.1677
     93  C        -27.7870   39.7650  -18.7380 C.2    74  CYS74       0.2270
     94  O        -28.1060   40.9010  -19.1130 O.2    74  CYS74      -0.2867
     95  CB       -29.2520   38.1180  -17.5290 C.3    74  CYS74       0.0956
     96  SG       -30.2230   39.3310  -16.6130 S.3    74  CYS74      -0.0801
     97  N        -26.9610   41.5100  -22.1080 N.3    77  PHE77      -0.1227
     98  CA       -27.9670   42.3540  -22.7400 C.3    77  PHE77       0.1736
     99  C        -28.4720   43.4740  -21.8390 C.2    77  PHE77       0.2595
    100  O        -28.7890   44.5620  -22.3320 O.2    77  PHE77      -0.2718
    101  CB       -29.1580   41.5110  -23.2100 C.3    77  PHE77       0.0547
    102  CG       -30.1460   42.2860  -24.0310 C.ar   77  PHE77      -0.0202
    103  CD1      -29.9740   42.4160  -25.3990 C.ar   77  PHE77      -0.0042
    104  CD2      -31.2280   42.9130  -23.4330 C.ar   77  PHE77      -0.0042
    105  CE1      -30.8680   43.1400  -26.1550 C.ar   77  PHE77      -0.0003
    106  CE2      -32.1260   43.6450  -24.1880 C.ar   77  PHE77      -0.0003
    107  CZ       -31.9450   43.7570  -25.5490 C.ar   77  PHE77      -0.0000
    108  N        -28.5850   43.2380  -20.5360 N.am   78  ASN78      -0.1974
    109  CA       -29.1950   44.2020  -19.6340 C.3    78  ASN78       0.1688
    110  C        -28.1360   44.8910  -18.7860 C.2    78  ASN78       0.2292
    111  O        -27.2090   44.2470  -18.2850 O.2    78  ASN78      -0.2864
    112  CB       -30.2260   43.5300  -18.7260 C.3    78  ASN78       0.1181
    113  CG       -31.3290   42.8540  -19.5080 C.2    78  ASN78       0.2629
    114  OD1      -32.2410   43.5120  -20.0100 O.2    78  ASN78      -0.2716
    115  ND2      -31.2520   41.5330  -19.6200 N.am   78  ASN78      -0.0877
    116  N        -34.5250   43.9450  -15.2850 N.3    84  VAL84      -0.1245
    117  CA       -34.1360   42.5710  -15.5970 C.3    84  VAL84       0.1561
    118  C        -32.7320   42.2870  -15.0770 C.2    84  VAL84       0.2260
    119  O        -32.4540   41.2040  -14.5420 O.2    84  VAL84      -0.2867
    120  CB       -34.2470   42.3130  -17.1120 C.3    84  VAL84       0.0252
    121  CG1      -33.5890   40.9990  -17.4960 C.3    84  VAL84       0.0019
    122  CG2      -35.7080   42.3380  -17.5390 C.3    84  VAL84       0.0019
@<TRIPOS>BOND
     1    81    82    2
     2    81    80    1
     3    62    61    2
     4    79    80    1
     5    64    65    1
     6    75    74    2
     7    80    83    1
     8    74    73    1
     9    61    63   am
    10    61    60    1
    11    58    59    2
    12    58    57    1
    13    65    66    1
    14    65    68    1
    15    83    84    1
    16    72    66   am
    17    72    73    1
    18    66    67    2
    19    71    69    1
    20    57    60    1
    21    57    56    1
    22    69    68    1
    23    69    70    1
    24    73    76    1
    25    52    51    2
    26    86    84   ar
    27    86    88   ar
    28    84    85   ar
    29    76    77    1
    30    76    78    1
    31   105   107   ar
    32   105   103   ar
    33    56    51   am
    34    51    50    1
    35    88    89   ar
    36   107   106   ar
    37   103   102   ar
    38    85    87   ar
    39    54    53    1
    40    46    47    1
    41    46    43    1
    42    89    87   ar
    43    89    90    1
    44    53    50    1
    45    53    55    1
    46    50    49    1
    47    47    48    1
    48    49    44   am
    49   106   104   ar
    50    45    44    2
    51   102   104   ar
    52   102   101    1
    53    44    43    1
    54    43    42    1
    55    48    42    1
    56   101    98    1
    57    42    35   am
    58    98    97    1
    59    98    99    1
    60   100    99    2
    61    99   108   am
    62    40    39   ar
    63    35    36    2
    64    35    34    1
    65    37    34    1
    66    37    38    1
    67    34    33    1
    68    39    38    1
    69    39    41   ar
    70   108   109    1
    71   114   113    2
    72   109   110    1
    73   109   112    1
    74   115   113   am
    75    91    92    1
    76   113   112    1
    77    94    93    2
    78    92    93    1
    79    92    95    1
    80   110   111    2
    81    18    17    2
    82   122   120    1
    83    95    96    1
    84   121   120    1
    85    25    24    2
    86    17    16    1
    87    17    22   am
    88   120   117    1
    89    24    23    1
    90    23    22    1
    91    23    26    1
    92    28    30   ar
    93    28    27   ar
    94    16    19    1
    95    16    15    1
    96    30    32   ar
    97    19    20    1
    98    26    27    1
    99     4     3    2
   100    27    29   ar
   101    13    11   ar
   102    13    14   ar
   103   117   116    1
   104   117   118    1
   105    11     8   ar
   106    15     3   am
   107    15    21    1
   108    32    31   ar
   109     3     2    1
   110   118   119    2
   111    14    12   ar
   112    20    21    1
   113    29    31   ar
   114     8    10   ar
   115     8     6   ar
   116     2     5    1
   117     2     1    1
   118    12    10   ar
   119     5     6    1
   120    10     9   ar
   121     6     7   ar
   122     9     7   ar
