@<TRIPOS>MOLECULE
tmp/6fglA00.pdb
 153 152 0 0 0
SMALL
GASTEIGER

@<TRIPOS>ATOM
      1  N        -38.8600   36.1160  -12.8410 N.3    21  TRP21      -0.1228
      2  CA       -39.7800   36.5360  -13.8940 C.3    21  TRP21       0.1722
      3  C        -39.1430   36.8980  -15.2430 C.2    21  TRP21       0.2437
      4  O        -39.8610   36.7910  -16.2520 O.2    21  TRP21      -0.2733
      5  CB       -40.6270   37.7100  -13.3870 C.3    21  TRP21       0.0563
      6  CG       -39.8100   38.8470  -12.8740 C.ar   21  TRP21       0.0003
      7  CD1      -39.3320   39.0100  -11.6060 C.ar   21  TRP21       0.0946
      8  CD2      -39.3650   39.9810  -13.6190 C.ar   21  TRP21       0.0152
      9  NE1      -38.6150   40.1840  -11.5160 N.ar   21  TRP21      -0.2442
     10  CE2      -38.6180   40.7920  -12.7430 C.ar   21  TRP21       0.0810
     11  CE3      -39.5140   40.3810  -14.9460 C.ar   21  TRP21       0.0012
     12  CZ2      -38.0320   41.9840  -13.1500 C.ar   21  TRP21       0.0191
     13  CZ3      -38.9350   41.5540  -15.3450 C.ar   21  TRP21       0.0001
     14  CH2      -38.1980   42.3450  -14.4530 C.ar   21  TRP21       0.0015
     15  N        -37.8780   37.3380  -15.3600 N.am   22  PRO22      -0.2718
     16  CA       -37.3300   37.5590  -16.7150 C.3    22  PRO22       0.1535
     17  C        -36.9290   36.2860  -17.4350 C.2    22  PRO22       0.2599
     18  O        -36.6810   36.3290  -18.6540 O.2    22  PRO22      -0.2715
     19  CB       -36.0950   38.4500  -16.4690 C.3    22  PRO22       0.0310
     20  CG       -36.2150   38.9520  -15.0490 C.3    22  PRO22       0.0237
     21  CD       -36.9460   37.8410  -14.3320 C.3    22  PRO22       0.0939
     22  N        -36.8850   35.1560  -16.7410 N.am   23  PHE23      -0.1960
     23  CA       -36.2010   33.9690  -17.2400 C.3    23  PHE23       0.1771
     24  C        -37.1250   32.7780  -17.3890 C.2    23  PHE23       0.2619
     25  O        -36.6550   31.6860  -17.7220 O.2    23  PHE23      -0.2715
     26  CB       -35.0210   33.6130  -16.3100 C.3    23  PHE23       0.0574
     27  CG       -34.2130   34.8150  -15.9070 C.ar   23  PHE23      -0.0200
     28  CD1      -33.4760   35.5110  -16.8540 C.ar   23  PHE23      -0.0042
     29  CD2      -34.2430   35.2960  -14.6050 C.ar   23  PHE23      -0.0042
     30  CE1      -32.7620   36.6530  -16.5220 C.ar   23  PHE23      -0.0003
     31  CE2      -33.5080   36.4500  -14.2420 C.ar   23  PHE23      -0.0003
     32  CZ       -32.7820   37.1300  -15.2010 C.ar   23  PHE23      -0.0000
     33  N        -38.4260   32.9550  -17.1590 N.am   24  LEU24      -0.1963
     34  CA       -39.3480   31.8270  -17.2070 C.3    24  LEU24       0.1728
     35  C        -39.7010   31.4550  -18.6340 C.2    24  LEU24       0.2616
     36  O        -40.0430   30.2990  -18.8940 O.2    24  LEU24      -0.2715
     37  CB       -40.6250   32.1560  -16.4340 C.3    24  LEU24       0.0311
     38  CG       -40.4290   32.4820  -14.9580 C.3    24  LEU24       0.0022
     39  CD1      -41.7000   33.1060  -14.3710 C.3    24  LEU24       0.0001
     40  CD2      -40.0270   31.2160  -14.2070 C.3    24  LEU24       0.0001
     41  N        -39.6260   32.4220  -19.5550 N.am   25  GLU25      -0.1964
     42  CA       -39.9570   32.1920  -20.9470 C.3    25  GLU25       0.1718
     43  C        -38.8640   32.7340  -21.8550 C.2    25  GLU25       0.2458
     44  O        -38.1370   33.6730  -21.4980 O.2    25  GLU25      -0.2730
     45  CB       -41.3040   32.8420  -21.3000 C.3    25  GLU25       0.0428
     46  CG       -42.5030   32.1380  -20.6710 C.3    25  GLU25       0.1163
     47  CD       -42.5900   30.6770  -21.0660 C.2    25  GLU25       0.3649
     48  OE1      -42.3410   30.3730  -22.2510 O.co2  25  GLU25      -0.2457
     49  OE2      -42.9080   29.8350  -20.1970 O.co2  25  GLU25      -0.2457
     50  N        -38.7020   32.1200  -23.0370 N.am   26  PRO26      -0.2716
     51  CA       -37.7260   32.6420  -24.0010 C.3    26  PRO26       0.1536
     52  C        -38.0160   34.0880  -24.3580 C.2    26  PRO26       0.2598
     53  O        -39.1650   34.4890  -24.5440 O.2    26  PRO26      -0.2715
     54  CB       -37.9320   31.7620  -25.2400 C.3    26  PRO26       0.0310
     55  CG       -38.4480   30.4810  -24.6990 C.3    26  PRO26       0.0237
     56  CD       -39.3060   30.8580  -23.4960 C.3    26  PRO26       0.0939
     57  N        -36.9630   34.8920  -24.4140 N.am   27  VAL27      -0.1964
     58  CA       -37.1270   36.2510  -24.9030 C.3    27  VAL27       0.1727
     59  C        -37.7690   36.2530  -26.2880 C.2    27  VAL27       0.2616
     60  O        -37.4190   35.4480  -27.1590 O.2    27  VAL27      -0.2715
     61  CB       -35.7700   36.9720  -24.9000 C.3    27  VAL27       0.0290
     62  CG1      -35.9100   38.3720  -25.4400 C.3    27  VAL27       0.0023
     63  CG2      -35.1740   36.9630  -23.4730 C.3    27  VAL27       0.0023
     64  N        -38.7330   37.1470  -26.4930 N.am   28  ASN28      -0.1972
     65  CA       -39.3820   37.2760  -27.7890 C.3    28  ASN28       0.1688
     66  C        -38.5770   38.2600  -28.6180 C.2    28  ASN28       0.2292
     67  O        -38.6620   39.4690  -28.3630 O.2    28  ASN28      -0.2864
     68  CB       -40.8130   37.7580  -27.6330 C.3    28  ASN28       0.1181
     69  CG       -41.5890   37.7200  -28.9410 C.2    28  ASN28       0.2629
     70  OD1      -41.0020   37.7560  -30.0310 O.2    28  ASN28      -0.2716
     71  ND2      -42.9160   37.6390  -28.8410 N.am   28  ASN28      -0.0877
     72  N        -40.1980   41.4730  -29.8880 N.3    31  LEU31      -0.1231
     73  CA       -40.5230   42.5250  -28.9350 C.3    31  LEU31       0.1693
     74  C        -39.3010   43.1370  -28.2650 C.2    31  LEU31       0.2591
     75  O        -39.4240   44.1860  -27.6330 O.2    31  LEU31      -0.2718
     76  CB       -41.4570   41.9920  -27.8500 C.3    31  LEU31       0.0284
     77  CG       -42.7540   41.3820  -28.3720 C.3    31  LEU31       0.0019
     78  CD1      -43.5090   40.6560  -27.2630 C.3    31  LEU31       0.0001
     79  CD2      -43.6080   42.4550  -29.0270 C.3    31  LEU31       0.0001
     80  N        -38.1330   42.5190  -28.3720 N.am   32  VAL32      -0.1980
     81  CA       -36.9460   43.0160  -27.6970 C.3    32  VAL32       0.1595
     82  C        -35.9260   43.3670  -28.7700 C.2    32  VAL32       0.2287
     83  O        -35.2160   42.4990  -29.2900 O.2    32  VAL32      -0.2864
     84  CB       -36.3980   42.0170  -26.6780 C.3    32  VAL32       0.0276
     85  CG1      -35.2460   42.6350  -25.9330 C.3    32  VAL32       0.0022
     86  CG2      -37.5180   41.6170  -25.6980 C.3    32  VAL32       0.0022
     87  N        -32.1660   41.8030  -29.7010 N.3    35  TYR35      -0.1241
     88  CA       -31.8710   40.5830  -28.9510 C.3    35  TYR35       0.1605
     89  C        -31.2790   39.5030  -29.8500 C.2    35  TYR35       0.2264
     90  O        -30.2800   38.8580  -29.4980 O.2    35  TYR35      -0.2867
     91  CB       -33.1260   40.0630  -28.2490 C.3    35  TYR35       0.0534
     92  CG       -32.7480   39.1380  -27.1270 C.ar   35  TYR35      -0.0201
     93  CD1      -32.3120   39.6560  -25.9150 C.ar   35  TYR35      -0.0009
     94  CD2      -32.7700   37.7590  -27.2890 C.ar   35  TYR35      -0.0009
     95  CE1      -31.9220   38.8300  -24.8810 C.ar   35  TYR35       0.0417
     96  CE2      -32.3800   36.9150  -26.2580 C.ar   35  TYR35       0.0417
     97  CZ       -31.9590   37.4650  -25.0510 C.ar   35  TYR35       0.1957
     98  OH       -31.5540   36.6750  -24.0070 O.3    35  TYR35      -0.2866
     99  N        -31.2460   31.1870  -23.7820 N.3    43  MET43      -0.1245
    100  CA       -31.5700   30.1370  -22.8360 C.3    43  MET43       0.1570
    101  C        -32.4970   30.7230  -21.7800 C.2    43  MET43       0.2261
    102  O        -32.4520   31.9230  -21.4880 O.2    43  MET43      -0.2867
    103  CB       -30.2910   29.5400  -22.2330 C.3    43  MET43       0.0387
    104  CG       -30.4860   28.2730  -21.4200 C.3    43  MET43       0.0595
    105  SD       -31.5020   26.9980  -22.2220 S.3    43  MET43      -0.1393
    106  CE       -30.5880   26.6640  -23.7440 C.3    43  MET43       0.0692
    107  N        -28.0470   31.4080  -19.0850 N.3    70  VAL70      -0.1245
    108  CA       -29.1280   32.3610  -18.8080 C.3    70  VAL70       0.1561
    109  C        -28.5500   33.6680  -18.2720 C.2    70  VAL70       0.2260
    110  O        -28.8860   34.7640  -18.7350 O.2    70  VAL70      -0.2867
    111  CB       -30.1440   31.7560  -17.8180 C.3    70  VAL70       0.0252
    112  CG1      -31.2400   32.7670  -17.5080 C.3    70  VAL70       0.0019
    113  CG2      -30.7450   30.4860  -18.3720 C.3    70  VAL70       0.0019
    114  N        -26.1330   35.6530  -20.7200 N.3    73  ASN73      -0.1225
    115  CA       -26.9660   36.3900  -21.6670 C.3    73  ASN73       0.1785
    116  C        -27.5950   37.5960  -21.0000 C.2    73  ASN73       0.2597
    117  O        -27.6500   38.6870  -21.5850 O.2    73  ASN73      -0.2718
    118  CB       -28.0770   35.4960  -22.2340 C.3    73  ASN73       0.1169
    119  CG       -27.5490   34.4200  -23.1540 C.2    73  ASN73       0.2627
    120  OD1      -26.4290   34.5050  -23.6410 O.2    73  ASN73      -0.2716
    121  ND2      -28.3600   33.3900  -23.3910 N.am   73  ASN73      -0.0877
    122  N        -28.1190   37.4050  -19.7810 N.am   74  CYS74      -0.1970
    123  CA       -28.7320   38.5200  -19.0660 C.3    74  CYS74       0.1712
    124  C        -27.7540   39.6810  -18.9200 C.2    74  CYS74       0.2296
    125  O        -28.0750   40.8240  -19.2680 O.2    74  CYS74      -0.2864
    126  CB       -29.2370   38.0590  -17.6960 C.3    74  CYS74       0.0983
    127  SG       -30.0940   39.3570  -16.7990 S.3    74  CYS74      -0.0798
    128  N        -26.9980   41.4130  -22.3640 N.3    77  PHE77      -0.1227
    129  CA       -28.0290   42.2430  -22.9730 C.3    77  PHE77       0.1736
    130  C        -28.5310   43.3780  -22.0860 C.2    77  PHE77       0.2595
    131  O        -28.9720   44.4140  -22.6120 O.2    77  PHE77      -0.2718
    132  CB       -29.2250   41.3830  -23.3970 C.3    77  PHE77       0.0547
    133  CG       -30.1720   42.1170  -24.2960 C.ar   77  PHE77      -0.0202
    134  CD1      -29.8780   42.2700  -25.6340 C.ar   77  PHE77      -0.0042
    135  CD2      -31.3210   42.7000  -23.7930 C.ar   77  PHE77      -0.0042
    136  CE1      -30.7230   42.9750  -26.4600 C.ar   77  PHE77      -0.0003
    137  CE2      -32.1670   43.3990  -24.6170 C.ar   77  PHE77      -0.0003
    138  CZ       -31.8670   43.5290  -25.9500 C.ar   77  PHE77      -0.0000
    139  N        -28.5000   43.2170  -20.7620 N.am   78  ASN78      -0.1974
    140  CA       -29.1360   44.1580  -19.8580 C.3    78  ASN78       0.1688
    141  C        -28.1010   44.8650  -18.9920 C.2    78  ASN78       0.2292
    142  O        -27.1220   44.2530  -18.5520 O.2    78  ASN78      -0.2864
    143  CB       -30.1580   43.4390  -18.9770 C.3    78  ASN78       0.1181
    144  CG       -31.1890   42.6910  -19.8000 C.2    78  ASN78       0.2629
    145  OD1      -32.0890   43.3020  -20.3760 O.2    78  ASN78      -0.2716
    146  ND2      -31.0540   41.3700  -19.8720 N.am   78  ASN78      -0.0877
    147  N        -34.3240   44.0970  -15.3120 N.3    84  VAL84      -0.1245
    148  CA       -33.9810   42.7220  -15.6610 C.3    84  VAL84       0.1561
    149  C        -32.5820   42.3760  -15.1610 C.2    84  VAL84       0.2260
    150  O        -32.3470   41.2780  -14.6410 O.2    84  VAL84      -0.2867
    151  CB       -34.1100   42.5060  -17.1820 C.3    84  VAL84       0.0252
    152  CG1      -33.4760   41.1880  -17.5820 C.3    84  VAL84       0.0019
    153  CG2      -35.5940   42.5450  -17.5980 C.3    84  VAL84       0.0019
@<TRIPOS>BOND
     1    70    69    2
     2    72    73    1
     3    89    90    2
     4    89    88    1
     5    87    88    1
     6    83    82    2
     7    79    77    1
     8    88    91    1
     9    69    71   am
    10    69    68    1
    11    73    74    1
    12    73    76    1
    13    82    81    1
    14    66    67    2
    15    66    65    1
    16    77    76    1
    17    77    78    1
    18    80    74   am
    19    80    81    1
    20    74    75    2
    21    91    92    1
    22    65    68    1
    23    65    64    1
    24    81    84    1
    25    94    92   ar
    26    94    96   ar
    27    60    59    2
    28    92    93   ar
    29    84    85    1
    30    84    86    1
    31    64    59   am
    32   136   138   ar
    33   136   134   ar
    34    59    58    1
    35    96    97   ar
    36   138   137   ar
    37    93    95   ar
    38   134   133   ar
    39    62    61    1
    40    54    55    1
    41    54    51    1
    42    97    95   ar
    43    97    98    1
    44    58    61    1
    45    58    57    1
    46    61    63    1
    47    55    56    1
    48   137   135   ar
    49    53    52    2
    50    57    52   am
    51    52    51    1
    52   133   135   ar
    53   133   132    1
    54    51    50    1
    55    99   100    1
    56   106   105    1
    57   120   119    2
    58    56    50    1
    59   132   129    1
    60   121   119   am
    61   119   118    1
    62    50    43   am
    63   129   128    1
    64   129   130    1
    65   100   103    1
    66   100   101    1
    67   131   130    2
    68    48    47   ar
    69   118   115    1
    70   103   104    1
    71   105   104    1
    72   130   139   am
    73    43    44    2
    74    43    42    1
    75   101   102    2
    76   115   116    1
    77   115   114    1
    78   117   116    2
    79    45    42    1
    80    45    46    1
    81    47    46    1
    82    47    49   ar
    83   116   122   am
    84    42    41    1
    85   139   140    1
    86   145   144    2
    87   146   144   am
    88   140   141    1
    89   140   143    1
    90   144   143    1
    91   122   123    1
    92    41    35   am
    93   125   124    2
    94   107   108    1
    95   123   124    1
    96   123   126    1
    97   141   142    2
    98    36    35    2
    99   108   109    1
   100   108   111    1
   101   110   109    2
   102    18    17    2
   103    35    34    1
   104   113   111    1
   105   111   112    1
   106    25    24    2
   107   126   127    1
   108   153   151    1
   109   152   151    1
   110    17    22   am
   111    17    16    1
   112    24    23    1
   113    24    33   am
   114    23    22    1
   115    23    26    1
   116    34    33    1
   117    34    37    1
   118   151   148    1
   119    28    30   ar
   120    28    27   ar
   121    16    19    1
   122    16    15    1
   123    30    32   ar
   124    19    20    1
   125    37    38    1
   126    26    27    1
   127     4     3    2
   128    27    29   ar
   129   148   147    1
   130   148   149    1
   131    15     3   am
   132    15    21    1
   133    13    11   ar
   134    13    14   ar
   135     3     2    1
   136    32    31   ar
   137   149   150    2
   138    20    21    1
   139    38    39    1
   140    38    40    1
   141    11     8   ar
   142    29    31   ar
   143    14    12   ar
   144     2     5    1
   145     2     1    1
   146     8     6   ar
   147     8    10   ar
   148     5     6    1
   149    12    10   ar
   150     6     7   ar
   151    10     9   ar
   152     7     9   ar
