@<TRIPOS>MOLECULE
tmp/6fgtA00.pdb
 106 104 0 0 0
SMALL
GASTEIGER

@<TRIPOS>ATOM
      1  N        -29.3830  -18.0160    3.1390 N.3    32  TRP32      -0.1228
      2  CA       -30.3020  -17.1700    2.3750 C.3    32  TRP32       0.1722
      3  C        -29.6930  -15.8920    1.8020 C.2    32  TRP32       0.2437
      4  O        -30.0840  -15.5190    0.6800 O.2    32  TRP32      -0.2733
      5  CB       -31.5390  -16.8290    3.2230 C.3    32  TRP32       0.0563
      6  CG       -31.2540  -16.1980    4.5430 C.ar   32  TRP32       0.0003
      7  CD1      -31.0490  -16.8410    5.7300 C.ar   32  TRP32       0.0946
      8  CD2      -31.1720  -14.7960    4.8260 C.ar   32  TRP32       0.0152
      9  NE1      -30.8270  -15.9240    6.7340 N.ar   32  TRP32      -0.2442
     10  CE2      -30.8950  -14.6620    6.2040 C.ar   32  TRP32       0.0810
     11  CE3      -31.2880  -13.6420    4.0480 C.ar   32  TRP32       0.0012
     12  CZ2      -30.7380  -13.4180    6.8170 C.ar   32  TRP32       0.0191
     13  CZ3      -31.1310  -12.4060    4.6610 C.ar   32  TRP32       0.0001
     14  CH2      -30.8590  -12.3060    6.0290 C.ar   32  TRP32       0.0015
     15  N        -28.7590  -15.1830    2.4540 N.am   33  PRO33      -0.2718
     16  CA       -28.2200  -13.9720    1.8120 C.3    33  PRO33       0.1535
     17  C        -27.3400  -14.2670    0.6110 C.2    33  PRO33       0.2598
     18  O        -27.0110  -13.3370   -0.1320 O.2    33  PRO33      -0.2715
     19  CB       -27.4030  -13.2980    2.9260 C.3    33  PRO33       0.0310
     20  CG       -27.8150  -13.9700    4.2120 C.3    33  PRO33       0.0237
     21  CD       -28.1440  -15.3790    3.7820 C.3    33  PRO33       0.0939
     22  N        -26.9410  -15.5200    0.4040 N.am   34  PHE34      -0.1974
     23  CA       -25.8890  -15.8470   -0.5490 C.3    34  PHE34       0.1639
     24  C        -26.3640  -16.7860   -1.6440 C.2    34  PHE34       0.2290
     25  O        -25.5490  -17.2390   -2.4570 O.2    34  PHE34      -0.2864
     26  CB       -24.6980  -16.4570    0.1970 C.3    34  PHE34       0.0560
     27  CG       -24.3350  -15.7040    1.4500 C.ar   34  PHE34      -0.0200
     28  CD1      -23.7090  -14.4690    1.3700 C.ar   34  PHE34      -0.0042
     29  CD2      -24.6440  -16.2140    2.7000 C.ar   34  PHE34      -0.0042
     30  CE1      -23.3900  -13.7590    2.5080 C.ar   34  PHE34      -0.0003
     31  CE2      -24.3190  -15.5090    3.8540 C.ar   34  PHE34      -0.0003
     32  CZ       -23.6930  -14.2850    3.7560 C.ar   34  PHE34      -0.0000
     33  N        -26.7700  -10.6100   -5.5410 N.3    38  VAL38      -0.1231
     34  CA       -27.3530   -9.4010   -4.9770 C.3    38  VAL38       0.1692
     35  C        -27.9750   -8.6000   -6.1070 C.2    38  VAL38       0.2592
     36  O        -27.3880   -8.4680   -7.1880 O.2    38  VAL38      -0.2718
     37  CB       -26.2860   -8.5940   -4.2230 C.3    38  VAL38       0.0266
     38  CG1      -26.8250   -7.2240   -3.8220 C.3    38  VAL38       0.0020
     39  CG2      -25.8050   -9.3670   -3.0050 C.3    38  VAL38       0.0020
     40  N        -29.1840   -8.0950   -5.8790 N.am   39  ASN39      -0.1974
     41  CA       -29.9180   -7.3700   -6.9110 C.3    39  ASN39       0.1688
     42  C        -29.2790   -5.9980   -7.0820 C.2    39  ASN39       0.2292
     43  O        -29.4940   -5.0920   -6.2730 O.2    39  ASN39      -0.2864
     44  CB       -31.3930   -7.2610   -6.5400 C.3    39  ASN39       0.1181
     45  CG       -32.2620   -6.8830   -7.7260 C.2    39  ASN39       0.2629
     46  OD1      -31.8450   -6.1220   -8.6050 O.2    39  ASN39      -0.2716
     47  ND2      -33.4740   -7.4240   -7.7650 N.am   39  ASN39      -0.0877
     48  N        -30.1970   -2.6350   -4.5380 N.3    43  VAL43      -0.1245
     49  CA       -29.3650   -2.5560   -3.3390 C.3    43  VAL43       0.1561
     50  C        -28.3760   -1.4110   -3.4870 C.2    43  VAL43       0.2260
     51  O        -27.3820   -1.5380   -4.2180 O.2    43  VAL43      -0.2867
     52  CB       -28.6340   -3.8770   -3.0580 C.3    43  VAL43       0.0252
     53  CG1      -27.8020   -3.7530   -1.7800 C.3    43  VAL43       0.0019
     54  CG2      -29.6370   -5.0200   -2.9420 C.3    43  VAL43       0.0019
     55  N        -24.0850   -1.3880   -3.8780 N.3    46  TYR46      -0.1241
     56  CA       -23.4430   -2.6860   -4.0840 C.3    46  TYR46       0.1605
     57  C        -22.5790   -2.6880   -5.3390 C.2    46  TYR46       0.2264
     58  O        -21.4070   -3.0880   -5.2990 O.2    46  TYR46      -0.2867
     59  CB       -24.4790   -3.8050   -4.1540 C.3    46  TYR46       0.0534
     60  CG       -23.8450   -5.1210   -3.7800 C.ar   46  TYR46      -0.0201
     61  CD1      -23.6940   -5.4680   -2.4520 C.ar   46  TYR46      -0.0009
     62  CD2      -23.3390   -5.9780   -4.7460 C.ar   46  TYR46      -0.0009
     63  CE1      -23.0940   -6.6410   -2.0840 C.ar   46  TYR46       0.0417
     64  CE2      -22.7350   -7.1710   -4.3900 C.ar   46  TYR46       0.0417
     65  CZ       -22.6130   -7.4930   -3.0490 C.ar   46  TYR46       0.1957
     66  OH       -22.0150   -8.6700   -2.6560 O.3    46  TYR46      -0.2866
     67  N        -17.4080  -14.7700   -1.7400 N.3    81  VAL81      -0.1245
     68  CA       -18.7680  -14.5470   -1.2470 C.3    81  VAL81       0.1561
     69  C        -18.7320  -13.9120    0.1410 C.2    81  VAL81       0.2260
     70  O        -19.4440  -12.9400    0.4170 O.2    81  VAL81      -0.2867
     71  CB       -19.5640  -15.8700   -1.2390 C.3    81  VAL81       0.0252
     72  CG1      -20.9210  -15.6780   -0.5570 C.3    81  VAL81       0.0019
     73  CG2      -19.7400  -16.4360   -2.6710 C.3    81  VAL81       0.0019
     74  N        -19.3470  -10.0420    1.6300 N.3    85  CYS85      -0.1235
     75  CA       -20.3070   -9.8470    2.7020 C.3    85  CYS85       0.1677
     76  C        -19.6980   -9.0300    3.8350 C.2    85  CYS85       0.2270
     77  O        -20.3570   -8.1430    4.3880 O.2    85  CYS85      -0.2867
     78  CB       -20.7970  -11.2020    3.1980 C.3    85  CYS85       0.0956
     79  SG       -22.0040  -11.1240    4.5180 S.3    85  CYS85      -0.0801
     80  N        -19.3820   -5.2780    2.9700 N.3    88  PHE88      -0.1227
     81  CA       -20.6060   -4.5060    2.8010 C.3    88  PHE88       0.1736
     82  C        -21.5040   -4.4800    4.0290 C.2    88  PHE88       0.2595
     83  O        -22.3940   -3.6270    4.0940 O.2    88  PHE88      -0.2718
     84  CB       -21.4100   -5.0540    1.6110 C.3    88  PHE88       0.0547
     85  CG       -22.3740   -4.0520    1.0010 C.ar   88  PHE88      -0.0202
     86  CD1      -21.9220   -3.0750    0.1300 C.ar   88  PHE88      -0.0042
     87  CD2      -23.7320   -4.1120    1.2800 C.ar   88  PHE88      -0.0042
     88  CE1      -22.8070   -2.1650   -0.4450 C.ar   88  PHE88      -0.0003
     89  CE2      -24.6190   -3.2160    0.7040 C.ar   88  PHE88      -0.0003
     90  CZ       -24.1570   -2.2370   -0.1560 C.ar   88  PHE88      -0.0000
     91  N        -21.3050   -5.3770    4.9990 N.am   89  ASN89      -0.1974
     92  CA       -22.2690   -5.5600    6.0730 C.3    89  ASN89       0.1688
     93  C        -21.5920   -5.4520    7.4350 C.2    89  ASN89       0.2292
     94  O        -20.4490   -5.8880    7.6170 O.2    89  ASN89      -0.2864
     95  CB       -22.9810   -6.9310    5.9600 C.3    89  ASN89       0.1181
     96  CG       -23.8070   -7.0680    4.6840 C.2    89  ASN89       0.2629
     97  OD1      -24.9560   -6.6310    4.6260 O.2    89  ASN89      -0.2716
     98  ND2      -23.2350   -7.7170    3.6680 N.am   89  ASN89      -0.0877
     99  N        -27.2600  -10.3210    8.0690 N.3    95  ILE95      -0.1245
    100  CA       -26.4820  -10.7670    6.9140 C.3    95  ILE95       0.1561
    101  C        -25.0090  -10.9000    7.2800 C.2    95  ILE95       0.2260
    102  O        -24.3440  -11.8700    6.8990 O.2    95  ILE95      -0.2867
    103  CB       -26.6810   -9.7980    5.7300 C.3    95  ILE95       0.0252
    104  CG1      -28.1170   -9.8730    5.2050 C.3    95  ILE95       0.0019
    105  CG2      -25.6720  -10.0790    4.6240 C.3    95  ILE95       0.0019
    106  CD1      -28.4100   -8.8960    4.0890 C.3    95  ILE95       0.0001
@<TRIPOS>BOND
     1    46    45    2
     2    47    45   am
     3    45    44    1
     4    36    35    2
     5    42    41    1
     6    42    43    2
     7    41    44    1
     8    41    40    1
     9    35    40   am
    10    35    34    1
    11    33    34    1
    12    57    58    2
    13    57    56    1
    14    34    37    1
    15    62    64   ar
    16    62    60   ar
    17    48    49    1
    18    64    65   ar
    19    37    38    1
    20    37    39    1
    21    51    50    2
    22    59    56    1
    23    59    60    1
    24    56    55    1
    25    60    61   ar
    26    50    49    1
    27    49    52    1
    28    52    54    1
    29    52    53    1
    30    65    66    1
    31    65    63   ar
    32    73    71    1
    33    25    24    2
    34    61    63   ar
    35    67    68    1
    36    24    23    1
    37    68    71    1
    38    68    69    1
    39    71    72    1
    40    23    26    1
    41    23    22    1
    42    88    90   ar
    43    88    86   ar
    44    90    89   ar
    45    18    17    2
    46    86    85   ar
    47    69    70    2
    48    26    27    1
    49    22    17   am
    50    17    16    1
    51     4     3    2
    52    89    87   ar
    53    85    87   ar
    54    85    84    1
    55    28    27   ar
    56    28    30   ar
    57    27    29   ar
    58    84    81    1
    59    74    75    1
    60     3     2    1
    61     3    15   am
    62    16    15    1
    63    16    19    1
    64     2     1    1
    65     2     5    1
    66    15    21    1
    67    30    32   ar
    68    29    31   ar
    69    75    78    1
    70    75    76    1
    71    81    80    1
    72    81    82    1
    73    19    20    1
    74    78    79    1
    75     5     6    1
    76    98    96   am
    77    32    31   ar
    78    21    20    1
    79    76    77    2
    80    82    83    2
    81    82    91   am
    82    11    13   ar
    83    11     8   ar
    84   106   104    1
    85     6     8   ar
    86     6     7   ar
    87   105   103    1
    88    97    96    2
    89    13    14   ar
    90    96    95    1
    91     8    10   ar
    92    91    92    1
    93   104   103    1
    94     7     9   ar
    95   103   100    1
    96    95    92    1
    97    14    12   ar
    98    92    93    1
    99    10     9   ar
   100    10    12   ar
   101   102   101    2
   102   100   101    1
   103   100    99    1
   104    93    94    2
