@<TRIPOS>MOLECULE
tmp/6fguA00.pdb
 114 111 0 0 0
SMALL
GASTEIGER

@<TRIPOS>ATOM
      1  N        -29.7350  -18.2230    3.2210 N.3    32  TRP32      -0.1228
      2  CA       -30.7020  -17.4260    2.4690 C.3    32  TRP32       0.1722
      3  C        -30.1740  -16.1080    1.8980 C.2    32  TRP32       0.2437
      4  O        -30.7020  -15.6850    0.8560 O.2    32  TRP32      -0.2733
      5  CB       -31.9390  -17.1600    3.3420 C.3    32  TRP32       0.0563
      6  CG       -31.6440  -16.4610    4.6280 C.ar   32  TRP32       0.0003
      7  CD1      -31.3960  -17.0440    5.8380 C.ar   32  TRP32       0.0946
      8  CD2      -31.5810  -15.0450    4.8440 C.ar   32  TRP32       0.0152
      9  NE1      -31.1660  -16.0780    6.7920 N.ar   32  TRP32      -0.2442
     10  CE2      -31.2800  -14.8430    6.2090 C.ar   32  TRP32       0.0810
     11  CE3      -31.7390  -13.9280    4.0160 C.ar   32  TRP32       0.0012
     12  CZ2      -31.1350  -13.5690    6.7650 C.ar   32  TRP32       0.0191
     13  CZ3      -31.5910  -12.6600    4.5700 C.ar   32  TRP32       0.0001
     14  CH2      -31.2940  -12.4930    5.9310 C.ar   32  TRP32       0.0015
     15  N        -29.1890  -15.4110    2.4840 N.am   33  PRO33      -0.2718
     16  CA       -28.7000  -14.1950    1.8180 C.3    33  PRO33       0.1535
     17  C        -27.8310  -14.4760    0.6080 C.2    33  PRO33       0.2598
     18  O        -27.5320  -13.5380   -0.1420 O.2    33  PRO33      -0.2715
     19  CB       -27.8860  -13.4810    2.9110 C.3    33  PRO33       0.0310
     20  CG       -28.2310  -14.1560    4.1910 C.3    33  PRO33       0.0237
     21  CD       -28.5420  -15.5710    3.7990 C.3    33  PRO33       0.0939
     22  N        -27.4040  -15.7220    0.4100 N.am   34  PHE34      -0.1974
     23  CA       -26.3470  -16.0510   -0.5350 C.3    34  PHE34       0.1639
     24  C        -26.8040  -16.9770   -1.6480 C.2    34  PHE34       0.2290
     25  O        -25.9840  -17.3770   -2.4820 O.2    34  PHE34      -0.2864
     26  CB       -25.1690  -16.6780    0.2190 C.3    34  PHE34       0.0560
     27  CG       -24.7910  -15.9110    1.4630 C.ar   34  PHE34      -0.0200
     28  CD1      -24.1700  -14.6770    1.3700 C.ar   34  PHE34      -0.0042
     29  CD2      -25.0880  -16.4110    2.7210 C.ar   34  PHE34      -0.0042
     30  CE1      -23.8450  -13.9560    2.5100 C.ar   34  PHE34      -0.0003
     31  CE2      -24.7670  -15.6930    3.8650 C.ar   34  PHE34      -0.0003
     32  CZ       -24.1390  -14.4770    3.7650 C.ar   34  PHE34      -0.0000
     33  N        -28.9910  -16.4770   -4.1630 N.3    36  LEU36      -0.1245
     34  CA       -29.1680  -15.8000   -5.4390 C.3    36  LEU36       0.1561
     35  C        -28.3190  -14.5390   -5.4820 C.2    36  LEU36       0.2260
     36  O        -27.9310  -14.0080   -4.4360 O.2    36  LEU36      -0.2867
     37  CB       -30.6420  -15.4380   -5.6660 C.3    36  LEU36       0.0270
     38  CG       -31.5890  -16.6290   -5.7850 C.3    36  LEU36       0.0019
     39  CD1      -33.0050  -16.1380   -5.9990 C.3    36  LEU36       0.0001
     40  CD2      -31.1500  -17.5240   -6.9210 C.3    36  LEU36       0.0001
     41  N        -27.2400  -10.7490   -5.4340 N.3    38  VAL38      -0.1231
     42  CA       -27.8470   -9.5550   -4.8570 C.3    38  VAL38       0.1692
     43  C        -28.4700   -8.7260   -5.9710 C.2    38  VAL38       0.2592
     44  O        -27.8520   -8.5050   -7.0190 O.2    38  VAL38      -0.2718
     45  CB       -26.8050   -8.7440   -4.0720 C.3    38  VAL38       0.0266
     46  CG1      -27.4040   -7.4210   -3.5700 C.3    38  VAL38       0.0020
     47  CG2      -26.2590   -9.5640   -2.9170 C.3    38  VAL38       0.0020
     48  N        -29.7030   -8.2730   -5.7520 N.am   39  ASN39      -0.1974
     49  CA       -30.4430   -7.5340   -6.7730 C.3    39  ASN39       0.1688
     50  C        -29.8550   -6.1350   -6.9120 C.2    39  ASN39       0.2292
     51  O        -30.0840   -5.2690   -6.0600 O.2    39  ASN39      -0.2864
     52  CB       -31.9240   -7.4740   -6.4110 C.3    39  ASN39       0.1181
     53  CG       -32.7860   -6.9730   -7.5590 C.2    39  ASN39       0.2629
     54  OD1      -32.3690   -6.1180   -8.3430 O.2    39  ASN39      -0.2716
     55  ND2      -33.9910   -7.5150   -7.6690 N.am   39  ASN39      -0.0877
     56  N        -30.8240   -2.9240   -4.3590 N.3    43  VAL43      -0.1245
     57  CA       -29.9990   -2.7510   -3.1780 C.3    43  VAL43       0.1561
     58  C        -29.0660   -1.5780   -3.4340 C.2    43  VAL43       0.2260
     59  O        -28.0960   -1.7120   -4.1990 O.2    43  VAL43      -0.2867
     60  CB       -29.2140   -4.0210   -2.8160 C.3    43  VAL43       0.0252
     61  CG1      -28.3670   -3.7670   -1.5720 C.3    43  VAL43       0.0019
     62  CG2      -30.1740   -5.1750   -2.5750 C.3    43  VAL43       0.0019
     63  N        -24.7450   -1.4330   -3.9080 N.3    46  TYR46      -0.1241
     64  CA       -24.0720   -2.7190   -4.0780 C.3    46  TYR46       0.1605
     65  C        -23.2330   -2.7470   -5.3490 C.2    46  TYR46       0.2264
     66  O        -22.0680   -3.1660   -5.3220 O.2    46  TYR46      -0.2867
     67  CB       -25.0800   -3.8670   -4.0780 C.3    46  TYR46       0.0534
     68  CG       -24.4220   -5.1740   -3.6950 C.ar   46  TYR46      -0.0201
     69  CD1      -23.9500   -6.0480   -4.6630 C.ar   46  TYR46      -0.0009
     70  CD2      -24.2360   -5.5090   -2.3540 C.ar   46  TYR46      -0.0009
     71  CE1      -23.3340   -7.2370   -4.3110 C.ar   46  TYR46       0.0417
     72  CE2      -23.6170   -6.6920   -1.9910 C.ar   46  TYR46       0.0417
     73  CZ       -23.1670   -7.5550   -2.9710 C.ar   46  TYR46       0.1957
     74  OH       -22.5520   -8.7370   -2.6080 O.3    46  TYR46      -0.2866
     75  N        -17.7880  -14.7400   -1.7100 N.3    81  VAL81      -0.1245
     76  CA       -19.1480  -14.5380   -1.2150 C.3    81  VAL81       0.1561
     77  C        -19.1220  -13.9220    0.1790 C.2    81  VAL81       0.2260
     78  O        -19.8540  -12.9650    0.4730 O.2    81  VAL81      -0.2867
     79  CB       -19.9210  -15.8710   -1.2180 C.3    81  VAL81       0.0252
     80  CG1      -21.2770  -15.6960   -0.5430 C.3    81  VAL81       0.0019
     81  CG2      -20.0730  -16.4340   -2.6550 C.3    81  VAL81       0.0019
     82  N        -19.7610  -10.1010    1.7140 N.3    85  CYS85      -0.1235
     83  CA       -20.7300   -9.9220    2.7880 C.3    85  CYS85       0.1677
     84  C        -20.1710   -9.0000    3.8620 C.2    85  CYS85       0.2270
     85  O        -20.8360   -8.0480    4.2800 O.2    85  CYS85      -0.2867
     86  CB       -21.1210  -11.2720    3.3860 C.3    85  CYS85       0.0956
     87  SG       -22.5090  -11.2050    4.5800 S.3    85  CYS85      -0.0801
     88  N        -20.0140   -5.2560    3.0400 N.3    88  PHE88      -0.1227
     89  CA       -21.2570   -4.5180    2.8590 C.3    88  PHE88       0.1736
     90  C        -22.1740   -4.5290    4.0740 C.2    88  PHE88       0.2595
     91  O        -23.0720   -3.6810    4.1520 O.2    88  PHE88      -0.2718
     92  CB       -22.0310   -5.0750    1.6500 C.3    88  PHE88       0.0547
     93  CG       -23.0190   -4.0940    1.0430 C.ar   88  PHE88      -0.0202
     94  CD1      -22.5880   -3.0970    0.1830 C.ar   88  PHE88      -0.0042
     95  CD2      -24.3740   -4.1870    1.3130 C.ar   88  PHE88      -0.0042
     96  CE1      -23.4880   -2.2060   -0.3880 C.ar   88  PHE88      -0.0003
     97  CE2      -25.2840   -3.3000    0.7410 C.ar   88  PHE88      -0.0003
     98  CZ       -24.8370   -2.3070   -0.1040 C.ar   88  PHE88      -0.0000
     99  N        -21.9790   -5.4500    5.0180 N.am   89  ASN89      -0.1974
    100  CA       -22.9400   -5.6570    6.0880 C.3    89  ASN89       0.1688
    101  C        -22.2570   -5.5500    7.4470 C.2    89  ASN89       0.2292
    102  O        -21.0890   -5.9180    7.6120 O.2    89  ASN89      -0.2864
    103  CB       -23.6300   -7.0270    5.9700 C.3    89  ASN89       0.1181
    104  CG       -24.3700   -7.2050    4.6500 C.2    89  ASN89       0.2629
    105  OD1      -25.5510   -6.8710    4.5360 O.2    89  ASN89      -0.2716
    106  ND2      -23.6830   -7.7620    3.6540 N.am   89  ASN89      -0.0877
    107  N        -27.8040  -10.4820    8.0350 N.3    95  ILE95      -0.1245
    108  CA       -27.0150  -10.9160    6.8900 C.3    95  ILE95       0.1561
    109  C        -25.5480  -11.0420    7.2730 C.2    95  ILE95       0.2260
    110  O        -24.8790  -12.0100    6.9010 O.2    95  ILE95      -0.2867
    111  CB       -27.2170   -9.9410    5.7120 C.3    95  ILE95       0.0252
    112  CG1      -28.6570  -10.0210    5.1990 C.3    95  ILE95       0.0019
    113  CG2      -26.2170  -10.2220    4.5980 C.3    95  ILE95       0.0019
    114  CD1      -28.9760   -9.0390    4.0800 C.3    95  ILE95       0.0001
@<TRIPOS>BOND
     1    54    53    2
     2    55    53   am
     3    53    52    1
     4    44    43    2
     5    40    38    1
     6    50    49    1
     7    50    51    2
     8    49    52    1
     9    49    48    1
    10    39    38    1
    11    43    48   am
    12    43    42    1
    13    38    37    1
    14    37    34    1
    15    35    34    1
    16    35    36    2
    17    34    33    1
    18    41    42    1
    19    65    66    2
    20    65    64    1
    21    42    45    1
    22    69    71   ar
    23    69    68   ar
    24    56    57    1
    25    71    73   ar
    26    59    58    2
    27    67    64    1
    28    67    68    1
    29    64    63    1
    30    45    46    1
    31    45    47    1
    32    68    70   ar
    33    58    57    1
    34    57    60    1
    35    73    74    1
    36    73    72   ar
    37    60    62    1
    38    60    61    1
    39    81    79    1
    40    25    24    2
    41    70    72   ar
    42    75    76    1
    43    24    23    1
    44    79    76    1
    45    79    80    1
    46    76    77    1
    47    23    26    1
    48    23    22    1
    49    96    98   ar
    50    96    94   ar
    51    18    17    2
    52    98    97   ar
    53    77    78    2
    54    94    93   ar
    55    26    27    1
    56    22    17   am
    57    17    16    1
    58    97    95   ar
    59     4     3    2
    60    93    95   ar
    61    93    92    1
    62    28    27   ar
    63    28    30   ar
    64    27    29   ar
    65    92    89    1
    66    82    83    1
    67    16    15    1
    68    16    19    1
    69     3     2    1
    70     3    15   am
    71     2     1    1
    72     2     5    1
    73    15    21    1
    74    30    32   ar
    75    29    31   ar
    76    83    86    1
    77    83    84    1
    78    89    88    1
    79    89    90    1
    80    19    20    1
    81     5     6    1
    82    86    87    1
    83   106   104   am
    84    32    31   ar
    85    21    20    1
    86    84    85    2
    87    11    13   ar
    88    11     8   ar
    89    90    91    2
    90    90    99   am
    91   114   112    1
    92   105   104    2
    93    13    14   ar
    94   113   111    1
    95     6     8   ar
    96     6     7   ar
    97   104   103    1
    98     8    10   ar
    99    99   100    1
   100   112   111    1
   101   111   108    1
   102     7     9   ar
   103    14    12   ar
   104   103   100    1
   105   100   101    1
   106    10    12   ar
   107    10     9   ar
   108   108   109    1
   109   108   107    1
   110   110   109    2
   111   101   102    2
