@<TRIPOS>MOLECULE
tmp/6fgvA00.pdb
 138 134 0 0 0
SMALL
GASTEIGER

@<TRIPOS>ATOM
      1  N         38.6810  -35.7980   36.4440 N.3    21  TRP21      -0.1228
      2  CA        39.6050  -36.1900   35.3920 C.3    21  TRP21       0.1722
      3  C         38.9370  -36.4860   34.0420 C.2    21  TRP21       0.2437
      4  O         39.5640  -36.2330   33.0080 O.2    21  TRP21      -0.2733
      5  CB        40.4480  -37.3820   35.8510 C.3    21  TRP21       0.0563
      6  CG        39.6740  -38.5820   36.2630 C.ar   21  TRP21       0.0003
      7  CD1       39.2280  -38.8820   37.5220 C.ar   21  TRP21       0.0946
      8  CD2       39.2690  -39.6710   35.4250 C.ar   21  TRP21       0.0152
      9  NE1       38.5610  -40.0860   37.5160 N.ar   21  TRP21      -0.2442
     10  CE2       38.5680  -40.5880   36.2400 C.ar   21  TRP21       0.0810
     11  CE3       39.4140  -39.9510   34.0620 C.ar   21  TRP21       0.0012
     12  CZ2       38.0190  -41.7730   35.7350 C.ar   21  TRP21       0.0191
     13  CZ3       38.8670  -41.1310   33.5610 C.ar   21  TRP21       0.0001
     14  CH2       38.1780  -42.0260   34.4010 C.ar   21  TRP21       0.0015
     15  N         37.6970  -36.9910   33.9630 N.am   22  PRO22      -0.2718
     16  CA        37.1130  -37.2220   32.6330 C.3    22  PRO22       0.1535
     17  C         36.6820  -35.9640   31.8960 C.2    22  PRO22       0.2598
     18  O         36.3540  -36.0590   30.7060 O.2    22  PRO22      -0.2715
     19  CB        35.8920  -38.1120   32.9330 C.3    22  PRO22       0.0310
     20  CG        36.1460  -38.6830   34.2710 C.3    22  PRO22       0.0237
     21  CD        36.8400  -37.5900   35.0030 C.3    22  PRO22       0.0939
     22  N         36.6720  -34.7970   32.5440 N.am   23  PHE23      -0.1974
     23  CA        36.0380  -33.6180   31.9690 C.3    23  PHE23       0.1639
     24  C         36.9470  -32.3940   31.9270 C.2    23  PHE23       0.2290
     25  O         36.4530  -31.2840   31.6850 O.2    23  PHE23      -0.2864
     26  CB        34.7600  -33.2750   32.7470 C.3    23  PHE23       0.0560
     27  CG        33.9870  -34.4770   33.1850 C.ar   23  PHE23      -0.0200
     28  CD1       33.2250  -35.1920   32.2810 C.ar   23  PHE23      -0.0042
     29  CD2       34.0400  -34.9060   34.4960 C.ar   23  PHE23      -0.0042
     30  CE1       32.5210  -36.3120   32.6820 C.ar   23  PHE23      -0.0003
     31  CE2       33.3410  -36.0220   34.9030 C.ar   23  PHE23      -0.0003
     32  CZ        32.5830  -36.7270   33.9900 C.ar   23  PHE23      -0.0000
     33  N         39.5070  -31.7630   29.8080 N.3    25  GLU25      -0.1245
     34  CA        39.7280  -31.3790   28.4140 C.3    25  GLU25       0.1567
     35  C         38.6750  -32.0460   27.5310 C.2    25  GLU25       0.2260
     36  O         38.0670  -33.0350   27.9390 O.2    25  GLU25      -0.2867
     37  CB        41.1320  -31.7800   27.9610 C.3    25  GLU25       0.0388
     38  CG        41.6520  -33.0560   28.6040 C.3    25  GLU25       0.1160
     39  CD        42.8830  -33.6000   27.9070 C.2    25  GLU25       0.3649
     40  OE1       43.9090  -32.8880   27.8670 O.co2  25  GLU25      -0.2457
     41  OE2       42.8260  -34.7400   27.3990 O.co2  25  GLU25      -0.2457
     42  N         36.7580  -34.3660   24.9080 N.3    27  VAL27      -0.1231
     43  CA        36.9550  -35.7270   24.4340 C.3    27  VAL27       0.1692
     44  C         37.6060  -35.6910   23.0610 C.2    27  VAL27       0.2592
     45  O         37.2830  -34.8450   22.2150 O.2    27  VAL27      -0.2718
     46  CB        35.6160  -36.4830   24.3990 C.3    27  VAL27       0.0266
     47  CG1       35.7530  -37.7900   23.6380 C.3    27  VAL27       0.0020
     48  CG2       35.1300  -36.7430   25.8210 C.3    27  VAL27       0.0020
     49  N         38.5450  -36.6010   22.8410 N.am   28  ASN28      -0.1974
     50  CA        39.2040  -36.7430   21.5560 C.3    28  ASN28       0.1688
     51  C         38.4850  -37.8390   20.7900 C.2    28  ASN28       0.2292
     52  O         38.6560  -39.0280   21.1130 O.2    28  ASN28      -0.2864
     53  CB        40.6820  -37.0870   21.7430 C.3    28  ASN28       0.1181
     54  CG        41.4630  -37.0410   20.4460 C.2    28  ASN28       0.2629
     55  OD1       40.9040  -37.2150   19.3570 O.2    28  ASN28      -0.2716
     56  ND2       42.7710  -36.8180   20.5540 N.am   28  ASN28      -0.0877
     57  N         40.1190  -40.9400   19.6280 N.3    31  LEU31      -0.1231
     58  CA        40.4970  -41.9110   20.6440 C.3    31  LEU31       0.1693
     59  C         39.3130  -42.6440   21.2560 C.2    31  LEU31       0.2591
     60  O         39.4860  -43.7720   21.7320 O.2    31  LEU31      -0.2718
     61  CB        41.2950  -41.2170   21.7520 C.3    31  LEU31       0.0284
     62  CG        42.5740  -40.5250   21.2620 C.3    31  LEU31       0.0019
     63  CD1       43.2000  -39.6660   22.3560 C.3    31  LEU31       0.0001
     64  CD2       43.5710  -41.5520   20.7530 C.3    31  LEU31       0.0001
     65  N         38.1240  -42.0500   21.2480 N.am   32  VAL32      -0.1980
     66  CA        36.9300  -42.6690   21.8170 C.3    32  VAL32       0.1595
     67  C         35.9970  -43.0290   20.6670 C.2    32  VAL32       0.2287
     68  O         35.4270  -42.1400   20.0220 O.2    32  VAL32      -0.2864
     69  CB        36.2360  -41.7430   22.8250 C.3    32  VAL32       0.0276
     70  CG1       35.1810  -42.5020   23.6040 C.3    32  VAL32       0.0022
     71  CG2       37.2550  -41.1260   23.7630 C.3    32  VAL32       0.0022
     72  N         32.0830  -41.4470   19.6300 N.3    35  TYR35      -0.1241
     73  CA        31.7280  -40.2420   20.3760 C.3    35  TYR35       0.1605
     74  C         31.1950  -39.1520   19.4570 C.2    35  TYR35       0.2264
     75  O         30.2330  -38.4550   19.8110 O.2    35  TYR35      -0.2867
     76  CB        32.9210  -39.7310   21.1890 C.3    35  TYR35       0.0534
     77  CG        32.5080  -38.7840   22.3000 C.ar   35  TYR35      -0.0201
     78  CD1       32.1480  -39.2640   23.5510 C.ar   35  TYR35      -0.0009
     79  CD2       32.4540  -37.4140   22.0870 C.ar   35  TYR35      -0.0009
     80  CE1       31.7560  -38.3960   24.5620 C.ar   35  TYR35       0.0417
     81  CE2       32.0670  -36.5390   23.0860 C.ar   35  TYR35       0.0417
     82  CZ        31.7170  -37.0320   24.3210 C.ar   35  TYR35       0.1957
     83  OH        31.3300  -36.1540   25.3150 O.3    35  TYR35      -0.2866
     84  N         30.9190  -30.8650   25.6230 N.3    43  MET43      -0.1245
     85  CA        31.2540  -29.7810   26.5360 C.3    43  MET43       0.1570
     86  C         32.1990  -30.3160   27.6000 C.2    43  MET43       0.2261
     87  O         32.1610  -31.5020   27.9390 O.2    43  MET43      -0.2867
     88  CB        29.9950  -29.1750   27.1670 C.3    43  MET43       0.0387
     89  CG        30.2480  -27.9700   28.0510 C.3    43  MET43       0.0595
     90  SD        31.2530  -26.7070   27.2540 S.3    43  MET43      -0.1393
     91  CE        30.1620  -26.1880   25.9320 C.3    43  MET43       0.0692
     92  N         27.7900  -31.1570   30.3680 N.3    70  VAL70      -0.1245
     93  CA        28.9050  -32.0740   30.5920 C.3    70  VAL70       0.1561
     94  C         28.3930  -33.4040   31.1270 C.2    70  VAL70       0.2260
     95  O         28.8540  -34.4780   30.7220 O.2    70  VAL70      -0.2867
     96  CB        29.9420  -31.4500   31.5470 C.3    70  VAL70       0.0252
     97  CG1       31.1080  -32.3840   31.7100 C.3    70  VAL70       0.0019
     98  CG2       30.4220  -30.1030   31.0230 C.3    70  VAL70       0.0019
     99  N         25.8710  -35.3110   28.6320 N.3    73  ASN73      -0.1225
    100  CA        26.7000  -36.0340   27.6770 C.3    73  ASN73       0.1785
    101  C         27.3050  -37.2750   28.3140 C.2    73  ASN73       0.2597
    102  O         27.2290  -38.3730   27.7480 O.2    73  ASN73      -0.2718
    103  CB        27.7960  -35.1170   27.1290 C.3    73  ASN73       0.1169
    104  CG        27.2620  -34.0900   26.1510 C.2    73  ASN73       0.2627
    105  OD1       26.3130  -34.3570   25.4180 O.2    73  ASN73      -0.2716
    106  ND2       27.8650  -32.9090   26.1380 N.am   73  ASN73      -0.0877
    107  N         27.9120  -37.1140   29.4960 N.am   74  CYS74      -0.1970
    108  CA        28.5090  -38.2380   30.2200 C.3    74  CYS74       0.1712
    109  C         27.5240  -39.3890   30.3790 C.2    74  CYS74       0.2296
    110  O         27.8440  -40.5450   30.0720 O.2    74  CYS74      -0.2864
    111  CB        28.9970  -37.7720   31.5960 C.3    74  CYS74       0.0983
    112  SG        29.8760  -39.0400   32.5590 S.3    74  CYS74      -0.0798
    113  N         26.6990  -41.1410   26.9730 N.3    77  PHE77      -0.1227
    114  CA        27.7340  -41.9580   26.3530 C.3    77  PHE77       0.1736
    115  C         28.2200  -43.1110   27.2240 C.2    77  PHE77       0.2595
    116  O         28.5360  -44.1830   26.6940 O.2    77  PHE77      -0.2718
    117  CB        28.9310  -41.0840   25.9730 C.3    77  PHE77       0.0547
    118  CG        29.9380  -41.7900   25.1210 C.ar   77  PHE77      -0.0202
    119  CD1       31.0590  -42.3750   25.6870 C.ar   77  PHE77      -0.0042
    120  CD2       29.7560  -41.8860   23.7500 C.ar   77  PHE77      -0.0042
    121  CE1       31.9830  -43.0350   24.8990 C.ar   77  PHE77      -0.0003
    122  CE2       30.6750  -42.5410   22.9630 C.ar   77  PHE77      -0.0003
    123  CZ        31.7880  -43.1160   23.5380 C.ar   77  PHE77      -0.0000
    124  N         28.3130  -42.9280   28.5390 N.am   78  ASN78      -0.1974
    125  CA        28.9590  -43.9030   29.4100 C.3    78  ASN78       0.1688
    126  C         27.9400  -44.6250   30.2800 C.2    78  ASN78       0.2292
    127  O         26.9780  -44.0180   30.7630 O.2    78  ASN78      -0.2864
    128  CB        30.0030  -43.2250   30.2910 C.3    78  ASN78       0.1181
    129  CG        30.9840  -42.4090   29.4880 C.2    78  ASN78       0.2629
    130  OD1       32.0480  -42.8980   29.0980 O.2    78  ASN78      -0.2716
    131  ND2       30.6380  -41.1500   29.2410 N.am   78  ASN78      -0.0877
    132  N         34.2340  -43.6760   33.8320 N.3    84  VAL84      -0.1245
    133  CA        33.8630  -42.3080   33.4730 C.3    84  VAL84       0.1561
    134  C         32.4790  -41.9770   34.0100 C.2    84  VAL84       0.2260
    135  O         32.2470  -40.8890   34.5520 O.2    84  VAL84      -0.2867
    136  CB        33.9290  -42.1150   31.9420 C.3    84  VAL84       0.0252
    137  CG1       33.3350  -40.7700   31.5400 C.3    84  VAL84       0.0019
    138  CG2       35.3680  -42.2350   31.4540 C.3    84  VAL84       0.0019
@<TRIPOS>BOND
     1    55    54    2
     2    74    75    2
     3    74    73    1
     4    57    58    1
     5    72    73    1
     6    68    67    2
     7    73    76    1
     8    54    56   am
     9    54    53    1
    10    58    59    1
    11    58    61    1
    12    67    66    1
    13    64    62    1
    14    51    52    2
    15    51    50    1
    16    76    77    1
    17    65    59   am
    18    65    66    1
    19    59    60    2
    20    62    61    1
    21    62    63    1
    22    50    53    1
    23    50    49    1
    24    66    69    1
    25    79    77   ar
    26    79    81   ar
    27    45    44    2
    28    77    78   ar
    29    69    70    1
    30    69    71    1
    31    49    44   am
    32   122   123   ar
    33   122   120   ar
    34    44    43    1
    35    81    82   ar
    36   123   121   ar
    37    78    80   ar
    38    47    46    1
    39   120   118   ar
    40    82    80   ar
    41    82    83    1
    42    46    43    1
    43    46    48    1
    44    43    42    1
    45   121   119   ar
    46   118   119   ar
    47   118   117    1
    48   105   104    2
    49    84    85    1
    50    91    90    1
    51   117   114    1
    52   106   104   am
    53   104   103    1
    54   114   113    1
    55   114   115    1
    56    85    88    1
    57    85    86    1
    58   116   115    2
    59   103   100    1
    60    88    89    1
    61   115   124   am
    62    90    89    1
    63    41    39   ar
    64    35    36    2
    65    35    34    1
    66    86    87    2
    67   100   101    1
    68   100    99    1
    69   102   101    2
    70    40    39   ar
    71    39    38    1
    72    37    34    1
    73    37    38    1
    74   101   107   am
    75    34    33    1
    76   124   125    1
    77   130   129    2
    78   131   129   am
    79   125   126    1
    80   125   128    1
    81   129   128    1
    82   107   108    1
    83   110   109    2
    84   108   109    1
    85   108   111    1
    86   126   127    2
    87    92    93    1
    88    93    94    1
    89    93    96    1
    90    18    17    2
    91    95    94    2
    92    98    96    1
    93   138   136    1
    94   137   136    1
    95    96    97    1
    96   111   112    1
    97    25    24    2
    98    17    22   am
    99    17    16    1
   100    24    23    1
   101   136   133    1
   102    23    22    1
   103    23    26    1
   104    28    30   ar
   105    28    27   ar
   106    16    19    1
   107    16    15    1
   108    30    32   ar
   109    26    27    1
   110    19    20    1
   111     4     3    2
   112    27    29   ar
   113   133   132    1
   114   133   134    1
   115    13    11   ar
   116    13    14   ar
   117    15     3   am
   118    15    21    1
   119    32    31   ar
   120   134   135    2
   121     3     2    1
   122    11     8   ar
   123    20    21    1
   124    14    12   ar
   125    29    31   ar
   126     2     5    1
   127     2     1    1
   128     8    10   ar
   129     8     6   ar
   130    12    10   ar
   131     5     6    1
   132    10     9   ar
   133     6     7   ar
   134     9     7   ar
