@<TRIPOS>MOLECULE
tmp/6fgwA00.pdb
 99 97 0 0 0
SMALL
GASTEIGER

@<TRIPOS>ATOM
      1  N        -38.6820   35.7500  -12.5950 N.3    21  TRP21      -0.1228
      2  CA       -39.6230   36.1510  -13.6340 C.3    21  TRP21       0.1722
      3  C        -38.9950   36.4600  -14.9960 C.2    21  TRP21       0.2437
      4  O        -39.6720   36.2180  -16.0070 O.2    21  TRP21      -0.2733
      5  CB       -40.4620   37.3430  -13.1410 C.3    21  TRP21       0.0563
      6  CG       -39.6820   38.5780  -12.8270 C.ar   21  TRP21       0.0003
      7  CD1      -39.1810   38.9460  -11.6120 C.ar   21  TRP21       0.0946
      8  CD2      -39.3230   39.6200  -13.7420 C.ar   21  TRP21       0.0152
      9  NE1      -38.5260   40.1490  -11.7160 N.ar   21  TRP21      -0.2442
     10  CE2      -38.5960   40.5820  -13.0140 C.ar   21  TRP21       0.0810
     11  CE3      -39.5340   39.8250  -15.1080 C.ar   21  TRP21       0.0012
     12  CZ2      -38.0860   41.7360  -13.6050 C.ar   21  TRP21       0.0191
     13  CZ3      -39.0260   40.9720  -15.6930 C.ar   21  TRP21       0.0001
     14  CH2      -38.3120   41.9130  -14.9420 C.ar   21  TRP21       0.0015
     15  N        -37.7580   36.9740  -15.1140 N.am   22  PRO22      -0.2718
     16  CA       -37.2210   37.2140  -16.4640 C.3    22  PRO22       0.1535
     17  C        -36.8100   35.9510  -17.1950 C.2    22  PRO22       0.2598
     18  O        -36.6260   36.0020  -18.4180 O.2    22  PRO22      -0.2715
     19  CB       -36.0020   38.1170  -16.2090 C.3    22  PRO22       0.0310
     20  CG       -36.1400   38.5940  -14.8090 C.3    22  PRO22       0.0237
     21  CD       -36.8240   37.4820  -14.0950 C.3    22  PRO22       0.0939
     22  N        -36.6670   34.8200  -16.5010 N.am   23  PHE23      -0.1974
     23  CA       -36.0570   33.6300  -17.0830 C.3    23  PHE23       0.1639
     24  C        -36.9890   32.4230  -17.0780 C.2    23  PHE23       0.2290
     25  O        -36.5260   31.2920  -17.2580 O.2    23  PHE23      -0.2864
     26  CB       -34.7560   33.3010  -16.3490 C.3    23  PHE23       0.0560
     27  CG       -33.9480   34.5160  -15.9850 C.ar   23  PHE23      -0.0200
     28  CD1      -33.1220   35.1200  -16.9190 C.ar   23  PHE23      -0.0042
     29  CD2      -34.0260   35.0620  -14.7130 C.ar   23  PHE23      -0.0042
     30  CE1      -32.3870   36.2400  -16.5910 C.ar   23  PHE23      -0.0003
     31  CE2      -33.2920   36.1820  -14.3800 C.ar   23  PHE23      -0.0003
     32  CZ       -32.4730   36.7710  -15.3210 C.ar   23  PHE23      -0.0000
     33  N        -39.5710   31.9490  -19.2800 N.3    25  GLU25      -0.1245
     34  CA       -39.8600   31.6470  -20.6700 C.3    25  GLU25       0.1567
     35  C        -38.7580   32.1940  -21.5670 C.2    25  GLU25       0.2260
     36  O        -38.0320   33.1190  -21.1780 O.2    25  GLU25      -0.2867
     37  CB       -41.2170   32.2370  -21.0840 C.3    25  GLU25       0.0388
     38  CG       -42.4020   31.6100  -20.3660 C.3    25  GLU25       0.1160
     39  CD       -42.5400   30.1250  -20.6530 C.2    25  GLU25       0.3649
     40  OE1      -42.2470   29.7050  -21.7920 O.co2  25  GLU25      -0.2457
     41  OE2      -42.9390   29.3760  -19.7350 O.co2  25  GLU25      -0.2457
     42  N        -36.7330   34.3510  -24.2320 N.3    27  VAL27      -0.1245
     43  CA       -36.8500   35.7510  -24.6180 C.3    27  VAL27       0.1561
     44  C        -37.5140   35.8430  -25.9810 C.2    27  VAL27       0.2260
     45  O        -37.1590   35.1130  -26.9160 O.2    27  VAL27      -0.2867
     46  CB       -35.4680   36.4220  -24.6180 C.3    27  VAL27       0.0252
     47  CG1      -35.5820   37.8860  -25.0150 C.3    27  VAL27       0.0019
     48  CG2      -34.8140   36.2850  -23.2490 C.3    27  VAL27       0.0019
     49  N        -38.1830   42.1070  -27.8490 N.3    32  VAL32      -0.1245
     50  CA       -36.9760   42.6460  -27.2350 C.3    32  VAL32       0.1561
     51  C        -36.0360   43.0590  -28.3610 C.2    32  VAL32       0.2260
     52  O        -35.4460   42.2060  -29.0340 O.2    32  VAL32      -0.2867
     53  CB       -36.3150   41.6320  -26.2930 C.3    32  VAL32       0.0252
     54  CG1      -35.1090   42.2520  -25.6160 C.3    32  VAL32       0.0019
     55  CG2      -37.3150   41.1440  -25.2530 C.3    32  VAL32       0.0019
     56  N        -32.1160   41.5790  -29.2670 N.3    35  TYR35      -0.1241
     57  CA       -31.7410   40.3560  -28.5660 C.3    35  TYR35       0.1605
     58  C        -31.3060   39.2610  -29.5320 C.2    35  TYR35       0.2264
     59  O        -30.4550   38.4340  -29.1850 O.2    35  TYR35      -0.2867
     60  CB       -32.8990   39.8710  -27.6930 C.3    35  TYR35       0.0534
     61  CG       -32.4790   38.8790  -26.6320 C.ar   35  TYR35      -0.0201
     62  CD1      -32.4560   37.5160  -26.8970 C.ar   35  TYR35      -0.0009
     63  CD2      -32.0970   39.3070  -25.3670 C.ar   35  TYR35      -0.0009
     64  CE1      -32.0680   36.6070  -25.9300 C.ar   35  TYR35       0.0417
     65  CE2      -31.7070   38.4060  -24.3930 C.ar   35  TYR35       0.0417
     66  CZ       -31.6950   37.0560  -24.6800 C.ar   35  TYR35       0.1957
     67  OH       -31.3080   36.1540  -23.7140 O.3    35  TYR35      -0.2866
     68  N        -27.9270   37.1160  -19.6480 N.3    74  CYS74      -0.1235
     69  CA       -28.5700   38.2150  -18.9380 C.3    74  CYS74       0.1677
     70  C        -27.5920   39.3570  -18.6880 C.2    74  CYS74       0.2270
     71  O        -27.9300   40.5300  -18.8810 O.2    74  CYS74      -0.2867
     72  CB       -29.1580   37.7110  -17.6210 C.3    74  CYS74       0.0956
     73  SG       -29.9440   38.9920  -16.6140 S.3    74  CYS74      -0.0801
     74  N        -26.6560   41.1000  -22.2360 N.3    77  PHE77      -0.1227
     75  CA       -27.6550   41.9250  -22.9050 C.3    77  PHE77       0.1736
     76  C        -28.1300   43.0920  -22.0490 C.2    77  PHE77       0.2595
     77  O        -28.3380   44.1940  -22.5700 O.2    77  PHE77      -0.2718
     78  CB       -28.8570   41.0700  -23.3150 C.3    77  PHE77       0.0547
     79  CG       -29.8920   41.8260  -24.1000 C.ar   77  PHE77      -0.0202
     80  CD1      -29.7350   42.0230  -25.4600 C.ar   77  PHE77      -0.0042
     81  CD2      -31.0130   42.3500  -23.4770 C.ar   77  PHE77      -0.0042
     82  CE1      -30.6770   42.7230  -26.1870 C.ar   77  PHE77      -0.0003
     83  CE2      -31.9590   43.0520  -24.1980 C.ar   77  PHE77      -0.0003
     84  CZ       -31.7910   43.2380  -25.5560 C.ar   77  PHE77      -0.0000
     85  N        -28.3140   42.8790  -20.7520 N.am   78  ASN78      -0.1974
     86  CA       -28.9230   43.8770  -19.8860 C.3    78  ASN78       0.1688
     87  C        -27.8730   44.6050  -19.0580 C.2    78  ASN78       0.2292
     88  O        -26.8070   44.0650  -18.7520 O.2    78  ASN78      -0.2864
     89  CB       -29.9500   43.2340  -18.9510 C.3    78  ASN78       0.1181
     90  CG       -31.0210   42.4700  -19.6990 C.2    78  ASN78       0.2629
     91  OD1      -32.0890   43.0050  -19.9940 O.2    78  ASN78      -0.2716
     92  ND2      -30.7380   41.2120  -20.0140 N.am   78  ASN78      -0.0877
     93  N        -34.2820   43.9070  -15.3810 N.3    84  VAL84      -0.1245
     94  CA       -33.9720   42.5260  -15.7360 C.3    84  VAL84       0.1561
     95  C        -32.5970   42.1370  -15.2070 C.2    84  VAL84       0.2260
     96  O        -32.3940   41.0120  -14.7320 O.2    84  VAL84      -0.2867
     97  CB       -34.0730   42.3340  -17.2610 C.3    84  VAL84       0.0252
     98  CG1      -33.5840   40.9490  -17.6640 C.3    84  VAL84       0.0019
     99  CG2      -35.5050   42.5540  -17.7290 C.3    84  VAL84       0.0019
@<TRIPOS>BOND
     1    58    59    2
     2    58    57    1
     3    56    57    1
     4    52    51    2
     5    57    60    1
     6    51    50    1
     7    49    50    1
     8    60    61    1
     9    50    53    1
    10    45    44    2
    11    62    61   ar
    12    62    64   ar
    13    61    63   ar
    14    53    54    1
    15    53    55    1
    16    82    84   ar
    17    82    80   ar
    18    44    43    1
    19    64    66   ar
    20    84    83   ar
    21    80    79   ar
    22    63    65   ar
    23    47    46    1
    24    66    65   ar
    25    66    67    1
    26    43    46    1
    27    43    42    1
    28    46    48    1
    29    83    81   ar
    30    79    81   ar
    31    79    78    1
    32    78    75    1
    33    75    74    1
    34    75    76    1
    35    77    76    2
    36    76    85   am
    37    40    39   ar
    38    35    36    2
    39    35    34    1
    40    37    34    1
    41    37    38    1
    42    85    86    1
    43    34    33    1
    44    39    38    1
    45    39    41   ar
    46    92    90   am
    47    91    90    2
    48    86    87    1
    49    86    89    1
    50    90    89    1
    51    68    69    1
    52    87    88    2
    53    69    70    1
    54    69    72    1
    55    71    70    2
    56    18    17    2
    57    99    97    1
    58    98    97    1
    59    72    73    1
    60    97    94    1
    61    25    24    2
    62    17    22   am
    63    17    16    1
    64    23    24    1
    65    23    22    1
    66    23    26    1
    67    28    30   ar
    68    28    27   ar
    69    30    32   ar
    70    16    19    1
    71    16    15    1
    72    26    27    1
    73    19    20    1
    74     4     3    2
    75    27    29   ar
    76    94    93    1
    77    94    95    1
    78    13    11   ar
    79    13    14   ar
    80    32    31   ar
    81    95    96    2
    82    15     3   am
    83    15    21    1
    84    11     8   ar
    85     3     2    1
    86    14    12   ar
    87    20    21    1
    88    29    31   ar
    89     8    10   ar
    90     8     6   ar
    91     2     5    1
    92     2     1    1
    93    12    10   ar
    94     5     6    1
    95    10     9   ar
    96     6     7   ar
    97     9     7   ar
