@<TRIPOS>MOLECULE
tmp/6fh2A00.pdb
 201 187 0 0 0
SMALL
GASTEIGER

@<TRIPOS>ATOM
      1  N        -15.5420  -39.1020  334.9790 N.3    24  SER24      -0.1217
      2  CA       -15.3280  -39.4560  336.3740 C.3    24  SER24       0.1889
      3  C        -16.4700  -40.3380  336.8550 C.2    24  SER24       0.2288
      4  O        -17.5220  -40.4330  336.2160 O.2    24  SER24      -0.2866
      5  CB       -15.2120  -38.2070  337.2540 C.3    24  SER24       0.2089
      6  OG       -16.4370  -37.4970  337.2850 O.3    24  SER24      -0.2183
      7  N        -18.7090  -41.1260  340.4640 N.3    26  ARG26      -0.1245
      8  CA       -19.0810  -40.6510  341.7880 C.3    26  ARG26       0.1563
      9  C        -20.0210  -41.6370  342.4610 C.2    26  ARG26       0.2260
     10  O        -20.8970  -42.2210  341.8140 O.2    26  ARG26      -0.2867
     11  CB       -19.7460  -39.2740  341.7240 C.3    26  ARG26       0.0307
     12  CG       -20.2160  -38.7450  343.0790 C.3    26  ARG26       0.0489
     13  CD       -20.7660  -37.3590  342.9280 C.3    26  ARG26       0.2205
     14  NE       -21.3350  -36.7840  344.1390 N.pl3  26  ARG26      -0.0865
     15  CZ       -22.6140  -36.8970  344.4840 C.cat  26  ARG26       0.5346
     16  NH1      -23.4590  -37.5690  343.7120 N.pl3  26  ARG26       0.1354
     17  NH2      -23.0520  -36.3350  345.6030 N.pl3  26  ARG26       0.1354
     18  N        -22.3010  -41.5450  346.0920 N.3    28  ARG28      -0.1245
     19  CA       -22.7780  -40.7460  347.2100 C.3    28  ARG28       0.1563
     20  C        -23.4330  -41.6750  348.2220 C.2    28  ARG28       0.2260
     21  O        -24.2510  -42.5210  347.8500 O.2    28  ARG28      -0.2867
     22  CB       -23.7920  -39.7040  346.7280 C.3    28  ARG28       0.0307
     23  CG       -24.2030  -38.6410  347.7430 C.3    28  ARG28       0.0489
     24  CD       -25.2540  -39.1460  348.7290 C.3    28  ARG28       0.2205
     25  NE       -26.4150  -39.7770  348.1050 N.pl3  28  ARG28      -0.0865
     26  CZ       -27.4660  -39.1230  347.6270 C.cat  28  ARG28       0.5346
     27  NH1      -27.5120  -37.8000  347.6830 N.pl3  28  ARG28       0.1354
     28  NH2      -28.4730  -39.7960  347.0870 N.pl3  28  ARG28       0.1354
     29  N        -17.8140  -25.7270  343.8800 N.3    86  VAL86      -0.1245
     30  CA       -18.8770  -26.3300  343.0800 C.3    86  VAL86       0.1561
     31  C        -18.3630  -26.6660  341.6880 C.2    86  VAL86       0.2260
     32  O        -18.6920  -27.7150  341.1200 O.2    86  VAL86      -0.2867
     33  CB       -20.0970  -25.3930  343.0130 C.3    86  VAL86       0.0252
     34  CG1      -21.1640  -25.9740  342.0950 C.3    86  VAL86       0.0019
     35  CG2      -20.6540  -25.1460  344.4020 C.3    86  VAL86       0.0019
     36  N        -16.4190  -29.7210  341.3760 N.3    89  HIS89      -0.1241
     37  CA       -17.3520  -30.8080  341.7390 C.3    89  HIS89       0.1621
     38  C        -17.2130  -31.3120  343.1770 C.2    89  HIS89       0.2264
     39  O        -17.7680  -32.3460  343.5380 O.2    89  HIS89      -0.2867
     40  CB       -17.3920  -31.9640  340.7220 C.3    89  HIS89       0.0745
     41  CG       -17.7730  -31.5390  339.3390 C.ar   89  HIS89       0.0817
     42  ND1      -16.8540  -31.0730  338.4250 N.ar   89  HIS89      -0.2268
     43  CD2      -18.9720  -31.5130  338.7130 C.ar   89  HIS89       0.1154
     44  CE1      -17.4710  -30.7770  337.2960 C.ar   89  HIS89       0.1986
     45  NE2      -18.7570  -31.0350  337.4440 N.ar   89  HIS89      -0.2212
     46  N        -18.3220  -29.8050  346.0180 N.3    91  ILE91      -0.1231
     47  CA       -19.5410  -29.5790  346.7810 C.3    91  ILE91       0.1692
     48  C        -20.6670  -29.2910  345.7980 C.2    91  ILE91       0.2593
     49  O        -20.4370  -28.9370  344.6400 O.2    91  ILE91      -0.2718
     50  CB       -19.4060  -28.4220  347.7940 C.3    91  ILE91       0.0266
     51  CG1      -19.1730  -27.0980  347.0700 C.3    91  ILE91       0.0019
     52  CG2      -18.2630  -28.6890  348.7590 C.3    91  ILE91       0.0020
     53  CD1      -19.2640  -25.8870  347.9720 C.3    91  ILE91       0.0001
     54  N        -21.8960  -29.4490  346.2730 N.am   92  SER92      -0.1939
     55  CA       -23.0430  -29.2200  345.4100 C.3    92  SER92       0.2040
     56  C        -23.4150  -27.7460  345.4010 C.2    92  SER92       0.2485
     57  O        -23.0330  -26.9910  346.3000 O.2    92  SER92      -0.2729
     58  CB       -24.2370  -30.0480  345.8830 C.3    92  SER92       0.2129
     59  OG       -24.7310  -29.5700  347.1220 O.3    92  SER92      -0.2179
     60  N        -24.1530  -27.2980  344.3820 N.am   93  PRO93      -0.2726
     61  CA       -24.7040  -25.9360  344.4360 C.3    93  PRO93       0.1402
     62  C        -25.6190  -25.7160  345.6270 C.2    93  PRO93       0.2269
     63  O        -25.7260  -24.5850  346.1160 O.2    93  PRO93      -0.2865
     64  CB       -25.4580  -25.8140  343.1050 C.3    93  PRO93       0.0296
     65  CG       -24.7830  -26.7970  342.2020 C.3    93  PRO93       0.0237
     66  CD       -24.4040  -27.9470  343.0830 C.3    93  PRO93       0.0939
     67  N        -19.8820  -33.9290  352.7140 N.3   115  MET115     -0.1245
     68  CA       -20.7190  -32.7460  352.8180 C.3   115  MET115      0.1570
     69  C        -21.5490  -32.8230  354.0910 C.2   115  MET115      0.2261
     70  O        -22.2050  -33.8360  354.3530 O.2   115  MET115     -0.2867
     71  CB       -21.6140  -32.6330  351.5870 C.3   115  MET115      0.0387
     72  CG       -20.8200  -32.4290  350.3090 C.3   115  MET115      0.0595
     73  SD       -21.8590  -32.4000  348.8460 S.3   115  MET115     -0.1393
     74  CE       -22.6640  -30.8350  349.0960 C.3   115  MET115      0.0692
     75  N        -26.1760  -30.6110  354.5030 N.3   118  GLU118     -0.1245
     76  CA       -26.7330  -30.3850  353.1430 C.3   118  GLU118      0.1567
     77  C        -28.1580  -30.9500  353.1630 C.2   118  GLU118      0.2260
     78  O        -28.8990  -30.6320  354.1080 O.2   118  GLU118     -0.2867
     79  CB       -25.8850  -31.0780  352.0760 C.3   118  GLU118      0.0388
     80  CG       -25.9520  -30.4000  350.7200 C.3   118  GLU118      0.1160
     81  CD       -26.1520  -31.3470  349.5510 C.2   118  GLU118      0.3649
     82  OE1      -26.7570  -32.4120  349.7580 O.co2 118  GLU118     -0.2457
     83  OE2      -25.7090  -31.0140  348.4370 O.co2 118  GLU118     -0.2457
     84  N        -23.2500  -36.3480  353.4830 N.3   123  ARG123     -0.1245
     85  CA       -23.2160  -36.7780  352.0830 C.3   123  ARG123      0.1563
     86  C        -21.7820  -37.1930  351.7670 C.2   123  ARG123      0.2260
     87  O        -20.9570  -36.3690  351.3620 O.2   123  ARG123     -0.2867
     88  CB       -23.7210  -35.6880  351.1370 C.3   123  ARG123      0.0307
     89  CG       -25.1990  -35.3490  351.2940 C.3   123  ARG123      0.0489
     90  CD       -26.0410  -36.5270  350.8330 C.3   123  ARG123      0.2205
     91  NE       -27.4810  -36.2910  350.8850 N.pl3 123  ARG123     -0.0865
     92  CZ       -28.1920  -35.8070  349.8710 C.cat 123  ARG123      0.5346
     93  NH1      -27.5960  -35.5000  348.7270 N.pl3 123  ARG123      0.1354
     94  NH2      -29.5000  -35.6330  349.9990 N.pl3 123  ARG123      0.1354
     95  N        -19.1550  -38.6410  349.4950 N.3   125  GLN125     -0.1245
     96  CA       -18.9970  -38.7990  348.0540 C.3   125  GLN125      0.1566
     97  C        -17.5280  -39.0230  347.7200 C.2   125  GLN125      0.2260
     98  O        -16.6670  -38.2230  348.1040 O.2   125  GLN125     -0.2867
     99  CB       -19.5820  -37.5920  347.3050 C.3   125  GLN125      0.0367
    100  CG       -18.9300  -36.2610  347.6050 C.3   125  GLN125      0.0905
    101  CD       -19.6380  -35.0890  346.9570 C.2   125  GLN125      0.2608
    102  OE1      -20.5910  -35.2630  346.1990 O.2   125  GLN125     -0.2717
    103  NE2      -19.1920  -33.8800  347.2800 N.am  125  GLN125     -0.0878
    104  N        -14.8050  -39.7340  344.4860 N.3   127  LEU127     -0.1245
    105  CA       -14.6700  -39.4430  343.0340 C.3   127  LEU127      0.1561
    106  C        -13.4510  -40.1720  342.4600 C.2   127  LEU127      0.2260
    107  O        -12.3630  -40.0550  343.0450 O.2   127  LEU127     -0.2867
    108  CB       -14.5260  -37.9300  342.8570 C.3   127  LEU127      0.0270
    109  CG       -15.5530  -37.0850  343.6080 C.3   127  LEU127      0.0019
    110  CD1      -15.1600  -35.6170  343.5950 C.3   127  LEU127      0.0001
    111  CD2      -16.9420  -37.2700  343.0180 C.3   127  LEU127      0.0001
    112  N        -26.5170  -42.9010  345.9070 N.3   174  ARG174     -0.1245
    113  CA       -26.5950  -42.4410  344.5270 C.3   174  ARG174      0.1563
    114  C        -25.2450  -42.6810  343.8730 C.2   174  ARG174      0.2260
    115  O        -24.2380  -42.0990  344.2880 O.2   174  ARG174     -0.2867
    116  CB       -26.9690  -40.9630  344.4230 C.3   174  ARG174      0.0307
    117  CG       -27.1760  -40.5270  342.9760 C.3   174  ARG174      0.0489
    118  CD       -27.5110  -39.0550  342.8440 C.3   174  ARG174      0.2205
    119  NE       -28.7830  -38.7160  343.4740 N.pl3 174  ARG174     -0.0865
    120  CZ       -29.9680  -38.8540  342.8890 C.cat 174  ARG174      0.5346
    121  NH1      -30.0490  -39.3320  341.6540 N.pl3 174  ARG174      0.1354
    122  NH2      -31.0720  -38.5180  343.5400 N.pl3 174  ARG174      0.1354
    123  N        -23.2950  -42.2660  340.2650 N.3   176  SER176     -0.1202
    124  CA       -23.4230  -41.4940  339.0410 C.3   176  SER176      0.2020
    125  C        -22.1550  -41.6100  338.2090 C.2   176  SER176      0.2619
    126  O        -21.0940  -42.0090  338.6940 O.2   176  SER176     -0.2717
    127  CB       -23.7120  -40.0140  339.3280 C.3   176  SER176      0.2103
    128  OG       -22.6070  -39.3890  339.9520 O.3   176  SER176     -0.2182
    129  N        -22.2850  -41.2550  336.9320 N.am  177  VAL177     -0.1965
    130  CA       -21.1280  -41.2380  335.9940 C.3   177  VAL177      0.1727
    131  C        -21.2320  -39.9480  335.1780 C.2   177  VAL177      0.2616
    132  O        -22.3590  -39.5960  334.7910 O.2   177  VAL177     -0.2715
    133  CB       -21.1280  -42.4790  335.0830 C.3   177  VAL177      0.0290
    134  CG1      -19.9780  -42.4420  334.0920 C.3   177  VAL177      0.0023
    135  CG2      -21.0910  -43.7640  335.8910 C.3   177  VAL177      0.0023
    136  N        -20.1070  -39.2760  334.9240 N.am  178  MET178     -0.1977
    137  CA       -20.1440  -38.0450  334.0940 C.3   178  MET178      0.1605
    138  C        -19.5900  -38.4200  332.7190 C.2   178  MET178      0.2287
    139  O        -18.4190  -38.8220  332.6480 O.2   178  MET178     -0.2864
    140  CB       -19.3000  -36.9280  334.7130 C.3   178  MET178      0.0413
    141  CG       -19.6430  -35.5580  334.1710 C.3   178  MET178      0.0598
    142  SD       -19.1270  -34.2300  335.2760 S.3   178  MET178     -0.1393
    143  CE       -17.3570  -34.5030  335.3160 C.3   178  MET178      0.0692
    144  N        -28.9340  -35.9990  334.0780 N.3   205  ARG205     -0.1245
    145  CA       -28.8540  -34.6440  334.6810 C.3   205  ARG205      0.1563
    146  C        -27.7160  -33.8410  334.0480 C.2   205  ARG205      0.2260
    147  O        -26.9250  -34.4170  333.2840 O.2   205  ARG205     -0.2867
    148  CB       -28.6770  -34.7400  336.1990 C.3   205  ARG205      0.0307
    149  CG       -29.8970  -35.2730  336.9350 C.3   205  ARG205      0.0489
    150  CD       -29.7920  -35.0540  338.4310 C.3   205  ARG205      0.2205
    151  NE       -31.0890  -35.0990  339.0900 N.pl3 205  ARG205     -0.0865
    152  CZ       -31.4460  -36.0020  339.9930 C.cat 205  ARG205      0.5346
    153  NH1      -30.6000  -36.9520  340.3500 N.pl3 205  ARG205      0.1354
    154  NH2      -32.6460  -35.9490  340.5410 N.pl3 205  ARG205      0.1354
    155  N        -24.3060  -30.9940  334.1040 N.3   207  THR207     -0.1203
    156  CA       -22.9090  -31.1040  334.6030 C.3   207  THR207      0.1994
    157  C        -22.8450  -30.8710  336.1180 C.2   207  THR207      0.2618
    158  O        -22.0860  -31.5960  336.7820 O.2   207  THR207     -0.2717
    159  CB       -22.0170  -30.0770  333.8960 C.3   207  THR207      0.1784
    160  OG1      -22.4280  -30.0090  332.5310 O.3   207  THR207     -0.2211
    161  CG2      -20.5460  -30.4180  333.9780 C.3   207  THR207      0.0376
    162  N        -23.6270  -29.9290  336.6470 N.am  208  TYR208     -0.1961
    163  CA       -23.5960  -29.6300  338.1030 C.3   208  TYR208      0.1771
    164  C        -24.7670  -30.2950  338.8370 C.2   208  TYR208      0.2620
    165  O        -25.1380  -29.8170  339.9210 O.2   208  TYR208     -0.2715
    166  CB       -23.4020  -28.1330  338.3560 C.3   208  TYR208      0.0574
    167  CG       -22.1420  -27.5960  337.7270 C.ar  208  TYR208     -0.0198
    168  CD1      -20.9030  -28.0910  338.0940 C.ar  208  TYR208     -0.0009
    169  CD2      -22.1870  -26.6210  336.7470 C.ar  208  TYR208     -0.0009
    170  CE1      -19.7370  -27.6210  337.5160 C.ar  208  TYR208      0.0417
    171  CE2      -21.0300  -26.1380  336.1590 C.ar  208  TYR208      0.0417
    172  CZ       -19.8010  -26.6410  336.5450 C.ar  208  TYR208      0.1957
    173  OH       -18.6570  -26.1720  335.9730 O.3   208  TYR208     -0.2866
    174  N        -25.3700  -31.3210  338.2320 N.am  209  GLY209     -0.1940
    175  CA       -26.4840  -32.0380  338.8850 C.3   209  GLY209      0.2014
    176  C        -27.8420  -31.4480  338.5510 C.2   209  GLY209      0.2638
    177  O        -27.9150  -30.6100  337.6350 O.2   209  GLY209     -0.2714
    178  N        -28.8760  -31.8470  339.2980 N.am  210  GLU210     -0.1977
    179  CA       -30.2590  -31.3710  339.0350 C.3   210  GLU210      0.1602
    180  C        -30.2860  -29.8460  339.1420 C.2   210  GLU210      0.2287
    181  O        -29.6880  -29.3030  340.0860 O.2   210  GLU210     -0.2864
    182  CB       -31.2370  -31.9940  340.0330 C.3   210  GLU210      0.0415
    183  CG       -31.1610  -31.3850  341.4210 C.3   210  GLU210      0.1163
    184  CD       -32.1000  -32.0260  342.4270 C.2   210  GLU210      0.3649
    185  OE1      -32.9470  -32.8370  342.0080 O.co2 210  GLU210     -0.2457
    186  OE2      -31.9780  -31.7160  343.6270 O.co2 210  GLU210     -0.2457
    187  N        -24.6790  -36.1210  333.3780 N.3   220  GLN220     -0.1245
    188  CA       -24.4700  -36.9310  334.6000 C.3   220  GLN220      0.1566
    189  C        -25.4880  -38.0730  334.5690 C.2   220  GLN220      0.2260
    190  O        -26.6930  -37.7850  334.5000 O.2   220  GLN220     -0.2867
    191  CB       -24.6640  -36.0460  335.8310 C.3   220  GLN220      0.0367
    192  CG       -23.4800  -36.0610  336.7840 C.3   220  GLN220      0.0905
    193  CD       -23.4130  -34.8000  337.6090 C.2   220  GLN220      0.2608
    194  OE1      -24.3580  -34.4410  338.3080 O.2   220  GLN220     -0.2717
    195  NE2      -22.2850  -34.1150  337.5330 N.am  220  GLN220     -0.0878
    196  N        -27.0190  -41.0620  336.7100 N.3   222  SER222     -0.1217
    197  CA       -27.0560  -41.5830  338.0980 C.3   222  SER222      0.1889
    198  C        -28.3160  -42.4200  338.3120 C.2   222  SER222      0.2288
    199  O        -29.3070  -42.1960  337.5970 O.2   222  SER222     -0.2866
    200  CB       -26.9820  -40.4590  339.0900 C.3   222  SER222      0.2089
    201  OG       -27.9510  -39.4700  338.7860 O.3   222  SER222     -0.2183
@<TRIPOS>BOND
     1   160   159    1
     2   139   138    2
     3   138   137    1
     4   147   146    2
     5   187   188    1
     6   159   161    1
     7   159   156    1
     8   146   145    1
     9   144   145    1
    10   134   133    1
    11   137   140    1
    12   137   136    1
    13   155   156    1
    14   141   140    1
    15   141   142    1
    16   190   189    2
    17   189   188    1
    18   188   191    1
    19   156   157    1
    20   145   148    1
    21   132   131    2
    22   136   131   am
    23     1     2    1
    24   133   135    1
    25   133   130    1
    26   131   130    1
    27   142   143    1
    28   191   192    1
    29   173   172    1
    30   130   129    1
    31   157   162   am
    32   157   158    2
    33   171   172   ar
    34   171   169   ar
    35   148   149    1
    36     4     3    2
    37     2     3    1
    38     2     5    1
    39   172   170   ar
    40   162   163    1
    41   196   197    1
    42   169   167   ar
    43   192   193    1
    44   129   125   am
    45   149   150    1
    46     5     6    1
    47    44    45   ar
    48    44    42   ar
    49    45    43   ar
    50   170   168   ar
    51   195   193   am
    52   199   198    2
    53   193   194    2
    54   177   176    2
    55   167   168   ar
    56   167   166    1
    57   197   198    1
    58   197   200    1
    59   163   166    1
    60   163   164    1
    61   125   126    2
    62   125   124    1
    63   174   164   am
    64   174   175    1
    65    42    41   ar
    66   150   151    1
    67   176   175    1
    68   176   178   am
    69    43    41   ar
    70   201   200    1
    71   164   165    2
    72   179   180    1
    73   179   178    1
    74   179   182    1
    75   124   127    1
    76   124   123    1
    77   151   152    2
    78   180   181    2
    79   127   128    1
    80    41    40    1
    81   152   153    1
    82   152   154    1
    83   182   183    1
    84     7     8    1
    85    40    37    1
    86    32    31    2
    87    36    37    1
    88   183   184    1
    89   121   120    1
    90    31    30    1
    91    11     8    1
    92    11    12    1
    93    37    38    1
    94     8     9    1
    95    10     9    2
    96   185   184   ar
    97    34    33    1
    98    65    66    1
    99    65    64    1
   100   184   186   ar
   101   106   105    1
   102   106   107    2
   103   118   117    1
   104   118   119    1
   105   108   105    1
   106   108   109    1
   107   120   119    2
   108   120   122    1
   109    13    12    1
   110    13    14    1
   111   117   116    1
   112    33    30    1
   113    33    35    1
   114   111   109    1
   115   105   104    1
   116    30    29    1
   117    66    60    1
   118    64    61    1
   119    38    39    2
   120   110   109    1
   121    16    15    1
   122   114   115    2
   123   114   113    1
   124    14    15    2
   125    60    61    1
   126    60    56   am
   127   116   113    1
   128    61    62    1
   129    15    17    1
   130   113   112    1
   131    49    48    2
   132    56    55    1
   133    56    57    2
   134    55    58    1
   135    55    54    1
   136    62    63    2
   137    48    54   am
   138    48    47    1
   139    58    59    1
   140    46    47    1
   141    18    19    1
   142   102   101    2
   143    22    19    1
   144    22    23    1
   145    47    50    1
   146   101   103   am
   147   101   100    1
   148    51    50    1
   149    51    53    1
   150    28    26    1
   151    19    20    1
   152    99   100    1
   153    99    96    1
   154    26    27    1
   155    26    25    2
   156    97    96    1
   157    97    98    2
   158    23    24    1
   159    50    52    1
   160    21    20    2
   161    96    95    1
   162    25    24    1
   163    83    81   ar
   164    93    92    1
   165    73    74    1
   166    73    72    1
   167    81    82   ar
   168    81    80    1
   169    92    94    1
   170    92    91    2
   171    72    71    1
   172    80    79    1
   173    90    91    1
   174    90    89    1
   175    88    89    1
   176    88    85    1
   177    87    86    2
   178    71    68    1
   179    86    85    1
   180    79    76    1
   181    85    84    1
   182    67    68    1
   183    68    69    1
   184    76    77    1
   185    76    75    1
   186    77    78    2
   187    69    70    2
