@<TRIPOS>MOLECULE
tmp/6fh3B00.pdb
 83 79 0 0 0
SMALL
GASTEIGER

@<TRIPOS>ATOM
      1  N        103.3930    3.4980  389.1820 N.3   272  VAL272     -0.1245
      2  CA       102.3830    3.5580  388.1360 C.3   272  VAL272      0.1561
      3  C        101.9050    4.9950  388.0880 C.2   272  VAL272      0.2260
      4  O        101.4240    5.5240  389.0930 O.2   272  VAL272     -0.2867
      5  CB       101.1970    2.6160  388.4130 C.3   272  VAL272      0.0252
      6  CG1      100.1930    2.6650  387.2750 C.3   272  VAL272      0.0019
      7  CG2      101.6830    1.1840  388.6690 C.3   272  VAL272      0.0019
      8  N         99.9440    7.8190  385.2450 N.3   274  ASP274     -0.1225
      9  CA        99.5430    8.1880  383.9030 C.3   274  ASP274      0.1805
     10  C        100.0740    9.5830  383.5660 C.2   274  ASP274      0.2598
     11  O        100.5950   10.3130  384.4180 O.2   274  ASP274     -0.2718
     12  CB        98.0210    8.0670  383.7540 C.3   274  ASP274      0.1424
     13  CG        97.2390    9.2670  384.3070 C.2   274  ASP274      0.3668
     14  OD1       97.7880   10.1400  385.0060 O.co2 274  ASP274     -0.2456
     15  OD2       96.0230    9.3340  384.0240 O.co2 274  ASP274     -0.2456
     16  N         99.9640    9.9480  382.2960 N.am  275  SER275     -0.1938
     17  CA       100.5750   11.1980  381.8850 C.3   275  SER275      0.2055
     18  C         99.9030   12.3880  382.5430 C.2   275  SER275      0.2642
     19  O        100.5780   13.3740  382.8410 O.2   275  SER275     -0.2714
     20  CB       100.5600   11.3170  380.3590 C.3   275  SER275      0.2130
     21  OG        99.2710   11.1040  379.8300 O.3   275  SER275     -0.2179
     22  N         98.5960   12.3190  382.8090 N.am  276  LYS276     -0.1977
     23  CA        97.9250   13.4700  383.4080 C.3   276  LYS276      0.1596
     24  C         98.3570   13.6810  384.8560 C.2   276  LYS276      0.2287
     25  O         98.5700   14.8200  385.2950 O.2   276  LYS276     -0.2864
     26  CB        96.4100   13.2980  383.3540 C.3   276  LYS276      0.0298
     27  CG        95.8610   13.1230  381.9560 C.3   276  LYS276      0.0038
     28  CD        94.3660   12.8860  381.9860 C.3   276  LYS276      0.0206
     29  CE        93.6060   14.1790  382.2390 C.3   276  LYS276      0.1093
     30  NZ        92.1380   14.0060  382.0100 N.3   276  LYS276     -0.1314
     31  N        102.3930   10.1220  376.3740 N.3   311  PRO311     -0.2116
     32  CA       102.1580    8.7150  375.9840 C.3   311  PRO311      0.1372
     33  C        102.7880    8.3430  374.6530 C.2   311  PRO311      0.2244
     34  O        103.4740    7.3200  374.5550 O.2   311  PRO311     -0.2868
     35  CB       100.6260    8.6260  375.9430 C.3   311  PRO311      0.0268
     36  CG       100.1650    9.6950  376.8960 C.3   311  PRO311      0.0207
     37  CD       101.1470   10.8260  376.7220 C.3   311  PRO311      0.0892
     38  N         98.3360    1.2210  377.9940 N.3   324  PRO324     -0.2102
     39  CA        98.3570    2.3140  378.9880 C.3   324  PRO324      0.1504
     40  C         98.9780    1.9170  380.3130 C.2   324  PRO324      0.2575
     41  O         99.7430    2.6990  380.8940 O.2   324  PRO324     -0.2718
     42  CB        96.8720    2.6630  379.1510 C.3   324  PRO324      0.0282
     43  CG        96.2410    2.2340  377.8850 C.3   324  PRO324      0.0208
     44  CD        96.9880    0.9960  377.4590 C.3   324  PRO324      0.0893
     45  N         98.6590    0.7250  380.8200 N.am  325  GLU325     -0.1980
     46  CA        99.2690    0.2800  382.0680 C.3   325  GLU325      0.1602
     47  C        100.7710    0.0790  381.9070 C.2   325  GLU325      0.2287
     48  O        101.5370    0.3520  382.8340 O.2   325  GLU325     -0.2864
     49  CB        98.5900   -1.0010  382.5570 C.3   325  GLU325      0.0415
     50  CG        98.7540   -2.1920  381.6330 C.3   325  GLU325      0.1163
     51  CD        97.6370   -2.3210  380.6050 C.2   325  GLU325      0.3649
     52  OE1       96.9950   -1.3020  380.2350 O.co2 325  GLU325     -0.2457
     53  OE2       97.3970   -3.4680  380.1760 O.co2 325  GLU325     -0.2457
     54  N        102.6190    1.8460  379.7830 N.3   327  ARG327     -0.1231
     55  CA       103.1160    3.2180  379.7340 C.3   327  ARG327      0.1694
     56  C        103.2370    3.7970  381.1270 C.2   327  ARG327      0.2592
     57  O        104.2200    4.4780  381.4370 O.2   327  ARG327     -0.2718
     58  CB       102.1900    4.1090  378.9120 C.3   327  ARG327      0.0321
     59  CG       102.1490    3.7210  377.4310 C.3   327  ARG327      0.0489
     60  CD       101.5980    4.8270  376.5970 C.3   327  ARG327      0.2205
     61  NE       100.2510    5.2750  376.9580 N.pl3 327  ARG327     -0.0865
     62  CZ        99.1200    4.8060  376.4390 C.cat 327  ARG327      0.5346
     63  NH1       99.1440    3.8170  375.5550 N.pl3 327  ARG327      0.1354
     64  NH2       97.9620    5.3300  376.8070 N.pl3 327  ARG327      0.1354
     65  N        102.2220    3.5700  381.9590 N.am  328  ASP328     -0.1974
     66  CA       102.2310    4.1300  383.3060 C.3   328  ASP328      0.1709
     67  C        103.3850    3.5790  384.1240 C.2   328  ASP328      0.2293
     68  O        103.9890    4.3010  384.9330 O.2   328  ASP328     -0.2864
     69  CB       100.8910    3.8600  383.9800 C.3   328  ASP328      0.1436
     70  CG        99.7410    4.5380  383.2510 C.2   328  ASP328      0.3671
     71  OD1      100.0150    5.3000  382.2870 O.co2 328  ASP328     -0.2456
     72  OD2       98.5680    4.3200  383.6260 O.co2 328  ASP328     -0.2456
     73  N        106.5270    5.1100  382.5470 N.3   331  ARG331     -0.1245
     74  CA       106.5400    6.5300  382.8620 C.3   331  ARG331      0.1563
     75  C        107.0030    6.7610  384.2890 C.2   331  ARG331      0.2260
     76  O        107.8500    7.6210  384.5490 O.2   331  ARG331     -0.2867
     77  CB       105.1510    7.1290  382.6870 C.3   331  ARG331      0.0307
     78  CG       105.0780    8.6040  383.0690 C.3   331  ARG331      0.0489
     79  CD       103.6970    9.1730  382.7680 C.3   331  ARG331      0.2205
     80  NE       103.3870    9.1020  381.3300 N.pl3 331  ARG331     -0.0865
     81  CZ       102.5210    8.2450  380.7890 C.cat 331  ARG331      0.5346
     82  NH1      101.8740    7.3690  381.5510 N.pl3 331  ARG331      0.1354
     83  NH2      102.3030    8.2630  379.4700 N.pl3 331  ARG331      0.1354
@<TRIPOS>BOND
     1    34    33    2
     2    33    32    1
     3    63    62    1
     4    35    32    1
     5    35    36    1
     6    32    31    1
     7    31    37    1
     8    62    64    1
     9    62    61    2
    10    60    61    1
    11    60    59    1
    12    37    36    1
    13    59    58    1
    14    44    43    1
    15    44    38    1
    16    43    42    1
    17    38    39    1
    18    58    55    1
    19    39    42    1
    20    39    40    1
    21    83    81    1
    22    55    54    1
    23    55    56    1
    24    21    20    1
    25    53    51   ar
    26    52    51   ar
    27    40    45   am
    28    40    41    2
    29    20    17    1
    30    51    50    1
    31    81    80    2
    32    81    82    1
    33    45    46    1
    34    56    57    2
    35    56    65   am
    36    80    79    1
    37    50    49    1
    38    17    16    1
    39    17    18    1
    40    47    46    1
    41    47    48    2
    42    27    28    1
    43    27    26    1
    44    65    66    1
    45    28    29    1
    46    30    29    1
    47    46    49    1
    48    71    70   ar
    49    16    10   am
    50    18    22   am
    51    18    19    2
    52    73    74    1
    53    77    74    1
    54    77    78    1
    55    79    78    1
    56    22    23    1
    57    74    75    1
    58    70    72   ar
    59    70    69    1
    60    66    69    1
    61    66    67    1
    62    26    23    1
    63    23    24    1
    64    10     9    1
    65    10    11    2
    66    12     9    1
    67    12    13    1
    68     9     8    1
    69    15    13   ar
    70    67    68    2
    71    75    76    2
    72    13    14   ar
    73    24    25    2
    74     6     5    1
    75     3     2    1
    76     3     4    2
    77     2     5    1
    78     2     1    1
    79     5     7    1
