@<TRIPOS>MOLECULE
tmp/6fh5A00.pdb
 188 177 0 0 0
SMALL
GASTEIGER

@<TRIPOS>ATOM
      1  N        -23.5860   18.0150   41.1910 N.3   548  MET548     -0.1245
      2  CA       -23.8550   18.9130   40.0600 C.3   548  MET548      0.1570
      3  C        -24.8020   20.0790   40.3680 C.2   548  MET548      0.2261
      4  O        -25.7380   19.9350   41.1560 O.2   548  MET548     -0.2867
      5  CB       -24.3480   18.1290   38.8350 C.3   548  MET548      0.0387
      6  CG       -23.5170   16.8850   38.5200 C.3   548  MET548      0.0595
      7  SD       -23.2960   16.5950   36.7500 S.3   548  MET548     -0.1393
      8  CE       -22.2330   18.0190   36.3190 C.3   548  MET548      0.0692
      9  N        -27.6850   22.3700   39.3570 N.3   550  SER550     -0.1217
     10  CA       -28.9510   22.5310   38.6280 C.3   550  SER550      0.1889
     11  C        -30.1260   22.5290   39.6340 C.2   550  SER550      0.2288
     12  O        -29.8790   22.4380   40.8420 O.2   550  SER550     -0.2866
     13  CB       -29.1240   21.4240   37.5880 C.3   550  SER550      0.2089
     14  OG       -29.9020   21.8760   36.4910 O.3   550  SER550     -0.2183
     15  N        -27.7820   15.8400   41.0510 N.3   554  PRO554     -0.2116
     16  CA       -27.2460   14.5110   40.7080 C.3   554  PRO554      0.1372
     17  C        -25.8290   14.2830   41.2360 C.2   554  PRO554      0.2244
     18  O        -25.1900   15.2140   41.7110 O.2   554  PRO554     -0.2868
     19  CB       -27.2730   14.5110   39.1800 C.3   554  PRO554      0.0268
     20  CG       -27.2440   15.9600   38.7790 C.3   554  PRO554      0.0207
     21  CD       -27.5090   16.8190   39.9770 C.3   554  PRO554      0.0892
     22  N        -22.1010   13.2670   40.1360 N.3   556  TRP556     -0.1241
     23  CA       -21.0960   13.0710   39.0960 C.3   556  TRP556      0.1605
     24  C        -20.0440   12.1200   39.6740 C.2   556  TRP556      0.2264
     25  O        -19.2130   12.5350   40.4750 O.2   556  TRP556     -0.2867
     26  CB       -20.4770   14.4150   38.6710 C.3   556  TRP556      0.0550
     27  CG       -19.3590   14.3070   37.6750 C.ar  556  TRP556      0.0003
     28  CD1      -18.0780   13.9060   37.9190 C.ar  556  TRP556      0.0946
     29  CD2      -19.4020   14.6900   36.2960 C.ar  556  TRP556      0.0152
     30  NE1      -17.3380   13.9540   36.7640 N.ar  556  TRP556     -0.2442
     31  CE2      -18.1230   14.4370   35.7510 C.ar  556  TRP556      0.0810
     32  CE3      -20.4060   15.1980   35.4550 C.ar  556  TRP556      0.0012
     33  CZ2      -17.8180   14.6940   34.4090 C.ar  556  TRP556      0.0191
     34  CZ3      -20.0990   15.4660   34.1310 C.ar  556  TRP556      0.0001
     35  CH2      -18.8160   15.2220   33.6230 C.ar  556  TRP556      0.0015
     36  N        -23.5460    9.5080   36.0300 N.3   575  ILE575     -0.1245
     37  CA       -24.4160   10.4750   36.6960 C.3   575  ILE575      0.1561
     38  C        -25.4830    9.6680   37.4500 C.2   575  ILE575      0.2260
     39  O        -26.2240    8.9100   36.8230 O.2   575  ILE575     -0.2867
     40  CB       -25.0720   11.4460   35.6710 C.3   575  ILE575      0.0252
     41  CG1      -24.0380   12.3390   34.9810 C.3   575  ILE575      0.0019
     42  CG2      -26.1760   12.2930   36.3240 C.3   575  ILE575      0.0019
     43  CD1      -24.4780   12.8360   33.6540 C.3   575  ILE575      0.0001
     44  N        -28.7840   10.2490   39.3700 N.3   577  LYS577     -0.1245
     45  CA       -29.8060   11.2900   39.5600 C.3   577  LYS577      0.1561
     46  C        -31.0680   10.8330   40.3330 C.2   577  LYS577      0.2260
     47  O        -31.3660    9.6390   40.3650 O.2   577  LYS577     -0.2867
     48  CB       -30.1900   11.8590   38.1790 C.3   577  LYS577      0.0271
     49  CG       -30.7000   13.2930   38.1780 C.3   577  LYS577      0.0035
     50  CD       -31.3130   13.6530   36.8410 C.3   577  LYS577      0.0206
     51  CE       -31.8400   15.0610   36.8310 C.3   577  LYS577      0.1093
     52  NZ       -32.6250   15.3400   35.6050 N.3   577  LYS577     -0.1314
     53  N        -36.2150   12.8530   38.8220 N.3   580  ASP580     -0.1239
     54  CA       -36.5120   12.7790   37.3900 C.3   580  ASP580      0.1674
     55  C        -36.8810   11.3190   37.0560 C.2   580  ASP580      0.2266
     56  O        -36.3470   10.3900   37.6850 O.2   580  ASP580     -0.2867
     57  CB       -35.2840   13.2340   36.5720 C.3   580  ASP580      0.1410
     58  CG       -35.5880   13.7670   35.1780 C.2   580  ASP580      0.3668
     59  OD1      -36.3200   14.7800   35.0730 O.co2 580  ASP580     -0.2456
     60  OD2      -35.0240   13.2270   34.1980 O.co2 580  ASP580     -0.2456
     61  N        -36.8210    8.6080   29.4460 N.3   585  ASP585     -0.1239
     62  CA       -35.5480    8.8650   28.7580 C.3   585  ASP585      0.1674
     63  C        -35.0770    7.5690   28.1440 C.2   585  ASP585      0.2266
     64  O        -34.6910    7.5690   26.9830 O.2   585  ASP585     -0.2867
     65  CB       -34.4990    9.4750   29.7030 C.3   585  ASP585      0.1410
     66  CG       -34.9960   10.6790   30.4960 C.2   585  ASP585      0.3668
     67  OD1      -35.9610   10.5180   31.2850 O.co2 585  ASP585     -0.2456
     68  OD2      -34.3950   11.7650   30.3660 O.co2 585  ASP585     -0.2456
     69  N        -26.8790    7.9980   24.6120 N.3   611  TYR611     -0.1241
     70  CA       -26.1270    7.7270   25.8430 C.3   611  TYR611      0.1605
     71  C        -26.8340    6.7080   26.7430 C.2   611  TYR611      0.2264
     72  O        -28.0630    6.7210   26.8530 O.2   611  TYR611     -0.2867
     73  CB       -25.8500    9.0550   26.6130 C.3   611  TYR611      0.0534
     74  CG       -27.0980    9.8650   26.9050 C.ar  611  TYR611     -0.0201
     75  CD1      -27.6330   10.7340   25.9530 C.ar  611  TYR611     -0.0009
     76  CD2      -27.7590    9.7470   28.1230 C.ar  611  TYR611     -0.0009
     77  CE1      -28.8080   11.4470   26.2030 C.ar  611  TYR611      0.0417
     78  CE2      -28.9300   10.4550   28.3820 C.ar  611  TYR611      0.0417
     79  CZ       -29.4510   11.3030   27.4190 C.ar  611  TYR611      0.1957
     80  OH       -30.5990   12.0070   27.6890 O.3   611  TYR611     -0.2866
     81  N        -28.5240    4.9390   29.7150 N.3   613  CYS613     -0.1235
     82  CA       -29.4480    5.4580   30.7170 C.3   613  CYS613      0.1677
     83  C        -30.2660    4.3080   31.2590 C.2   613  CYS613      0.2270
     84  O        -31.0090    3.6870   30.5030 O.2   613  CYS613     -0.2867
     85  CB       -30.3390    6.5320   30.0990 C.3   613  CYS613      0.0956
     86  SG       -31.5050    7.2790   31.2570 S.3   613  CYS613     -0.0801
     87  N        -26.9350    7.5450   34.4800 N.3   623  ILE623     -0.1231
     88  CA       -26.7440    8.0880   33.1360 C.3   623  ILE623      0.1693
     89  C        -25.2530    8.1060   32.7760 C.2   623  ILE623      0.2595
     90  O        -24.4200    8.3680   33.6350 O.2   623  ILE623     -0.2718
     91  CB       -27.4370    9.5060   33.0170 C.3   623  ILE623      0.0266
     92  CG1      -28.9500    9.4610   33.3640 C.3   623  ILE623      0.0019
     93  CG2      -27.2700   10.1060   31.6430 C.3   623  ILE623      0.0020
     94  CD1      -29.3320   10.2410   34.5190 C.3   623  ILE623      0.0001
     95  N        -24.9330    7.8170   31.5050 N.am  624  GLU624     -0.1920
     96  CA       -23.5800    7.7830   30.9560 C.3   624  GLU624      0.1949
     97  C        -23.0260    9.1930   30.7530 C.2   624  GLU624      0.2659
     98  O        -23.7060   10.0390   30.1770 O.2   624  GLU624     -0.2711
     99  CB       -23.6080    7.0410   29.6060 C.2   624  GLU624      0.0111
    100  CG       -22.2720    6.9290   28.8840 C.2   624  GLU624      0.0838
    101  CD       -22.2990    6.2720   27.5150 C.2   624  GLU624      0.3877
    102  OE1      -21.3350    6.4920   26.7470 O.co2 624  GLU624     -0.2406
    103  OE2      -23.2620    5.5300   27.2080 O.co2 624  GLU624     -0.2406
    104  N        -21.7780    9.4300   31.1800 N.am  625  ILE625     -0.1961
    105  CA       -21.1270   10.7190   30.9430 C.3   625  ILE625      0.1727
    106  C        -20.4250   10.6450   29.5850 C.2   625  ILE625      0.2616
    107  O        -19.5990    9.7510   29.3570 O.2   625  ILE625     -0.2715
    108  CB       -20.1700   11.1560   32.0970 C.3   625  ILE625      0.0290
    109  CG1      -20.9780   11.6400   33.3170 C.3   625  ILE625      0.0022
    110  CG2      -19.1820   12.2480   31.6250 C.3   625  ILE625      0.0023
    111  CD1      -20.2660   11.6550   34.6760 C.3   625  ILE625      0.0001
    112  N        -20.7590   11.5770   28.6930 N.am  626  VAL626     -0.1977
    113  CA       -20.1350   11.6450   27.3810 C.3   626  VAL626      0.1596
    114  C        -18.8520   12.4850   27.4950 C.2   626  VAL626      0.2287
    115  O        -18.9000   13.6920   27.7700 O.2   626  VAL626     -0.2864
    116  CB       -21.1020   12.1630   26.3040 C.3   626  VAL626      0.0276
    117  CG1      -20.4600   12.0940   24.9180 C.3   626  VAL626      0.0022
    118  CG2      -22.4140   11.3870   26.3410 C.3   626  VAL626      0.0022
    119  N        -17.3990   16.5750   26.1770 N.3   629  ALA629     -0.1231
    120  CA       -18.6420   17.2010   25.7260 C.3   629  ALA629      0.1694
    121  C        -19.1650   18.2480   26.6890 C.2   629  ALA629      0.2593
    122  O        -19.0280   18.1090   27.9030 O.2   629  ALA629     -0.2718
    123  CB       -19.7050   16.1370   25.4890 C.3   629  ALA629      0.0304
    124  N        -19.7870   19.2910   26.1340 N.am  630  THR630     -0.1939
    125  CA       -20.4250   20.3810   26.8770 C.3   630  THR630      0.2028
    126  C        -21.7220   20.8030   26.1840 C.2   630  THR630      0.2642
    127  O        -21.9490   20.4290   25.0350 O.2   630  THR630     -0.2714
    128  CB       -19.4540   21.5620   27.1840 C.3   630  THR630      0.1808
    129  OG1      -20.1490   22.5450   27.9580 O.3   630  THR630     -0.2208
    130  CG2      -18.8720   22.2110   25.9350 C.3   630  THR630      0.0379
    131  N        -22.5690   21.5600   26.9090 N.am  631  THR631     -0.1950
    132  CA       -23.8440   22.1000   26.4400 C.3   631  THR631      0.1897
    133  C        -23.6130   23.3440   25.5880 C.2   631  THR631      0.2313
    134  O        -22.5020   23.8810   25.5710 O.2   631  THR631     -0.2863
    135  CB       -24.7590   22.4340   27.6320 C.3   631  THR631      0.1794
    136  OG1      -23.9940   23.0310   28.6800 O.3   631  THR631     -0.2208
    137  CG2      -25.4780   21.2270   28.1680 C.3   631  THR631      0.0378
    138  N        -29.3690   24.3950   27.1330 N.3   685  ASP685     -0.1225
    139  CA       -28.7460   23.6150   28.2030 C.3   685  ASP685      0.1805
    140  C        -29.1320   22.1340   28.0830 C.2   685  ASP685      0.2597
    141  O        -28.5280   21.2920   28.7510 O.2   685  ASP685     -0.2718
    142  CB       -29.1430   24.1770   29.5850 C.3   685  ASP685      0.1424
    143  CG       -28.1050   24.0220   30.6900 C.2   685  ASP685      0.3668
    144  OD1      -26.8840   24.1310   30.3890 O.co2 685  ASP685     -0.2456
    145  OD2      -28.5120   23.8670   31.8680 O.co2 685  ASP685     -0.2456
    146  N        -30.1450   21.8170   27.2470 N.am  686  ASN686     -0.1974
    147  CA       -30.5890   20.4470   27.0140 C.3   686  ASN686      0.1688
    148  C        -30.1470   19.9340   25.6360 C.2   686  ASN686      0.2292
    149  O        -30.7270   18.9850   25.1090 O.2   686  ASN686     -0.2864
    150  CB       -32.0900   20.2940   27.2680 C.3   686  ASN686      0.1181
    151  CG       -32.4770   20.2440   28.7390 C.2   686  ASN686      0.2629
    152  OD1      -33.6520   20.3810   29.0980 O.2   686  ASN686     -0.2716
    153  ND2      -31.5160   20.0240   29.6310 N.am  686  ASN686     -0.0877
    154  N        -26.2250   19.1610   23.8440 N.3   688  MET688     -0.1245
    155  CA       -24.7930   19.0120   24.0710 C.3   688  MET688      0.1570
    156  C        -24.0210   18.8250   22.7670 C.2   688  MET688      0.2261
    157  O        -24.6330   18.6210   21.7270 O.2   688  MET688     -0.2867
    158  CB       -24.5210   17.8440   25.0250 C.3   688  MET688      0.0387
    159  CG       -24.9950   18.0720   26.4410 C.3   688  MET688      0.0595
    160  SD       -23.9910   17.1090   27.5990 S.3   688  MET688     -0.1393
    161  CE       -23.1090   18.3920   28.4120 C.3   688  MET688      0.0692
    162  N        -25.9190   16.3460   20.4760 N.3   696  PHE696     -0.1241
    163  CA       -26.9070   15.4270   21.0450 C.3   696  PHE696      0.1605
    164  C        -27.7920   16.0430   22.1160 C.2   696  PHE696      0.2264
    165  O        -27.2810   16.7240   22.9970 O.2   696  PHE696     -0.2867
    166  CB       -26.2600   14.1350   21.5670 C.3   696  PHE696      0.0534
    167  CG       -25.2370   14.2730   22.6610 C.ar  696  PHE696     -0.0203
    168  CD1      -23.8910   14.4450   22.3570 C.ar  696  PHE696     -0.0042
    169  CD2      -25.6000   14.1310   23.9940 C.ar  696  PHE696     -0.0042
    170  CE1      -22.9350   14.5380   23.3720 C.ar  696  PHE696     -0.0003
    171  CE2      -24.6420   14.2140   25.0060 C.ar  696  PHE696     -0.0003
    172  CZ       -23.3190   14.4290   24.6870 C.ar  696  PHE696     -0.0000
    173  N        -30.4830   15.9440   25.4550 N.3   698  ILE698     -0.1231
    174  CA       -30.4570   15.2910   26.7660 C.3   698  ILE698      0.1692
    175  C        -31.7350   15.6350   27.5740 C.2   698  ILE698      0.2592
    176  O        -32.6640   16.2520   27.0330 O.2   698  ILE698     -0.2718
    177  CB       -29.1490   15.6670   27.5430 C.3   698  ILE698      0.0266
    178  CG1      -28.9290   17.1960   27.6390 C.3   698  ILE698      0.0019
    179  CG2      -27.8980   14.9640   27.0020 C.3   698  ILE698      0.0020
    180  CD1      -28.5420   17.7170   29.0460 C.3   698  ILE698      0.0001
    181  N        -31.7670   15.2250   28.8710 N.am  699  ASP699     -0.1974
    182  CA       -32.8200   15.4830   29.8680 C.3   699  ASP699      0.1709
    183  C        -34.2500   15.2750   29.3630 C.2   699  ASP699      0.2293
    184  O        -35.1390   16.0580   29.6940 O.2   699  ASP699     -0.2864
    185  CB       -32.6520   16.8990   30.4530 C.3   699  ASP699      0.1436
    186  CG       -32.0590   16.9760   31.8490 C.2   699  ASP699      0.3671
    187  OD1      -32.5890   16.2880   32.7590 O.co2 699  ASP699     -0.2456
    188  OD2      -31.1130   17.7900   32.0530 O.co2 699  ASP699     -0.2456
@<TRIPOS>BOND
     1   162   163    1
     2   163   166    1
     3   163   164    1
     4   166   167    1
     5   157   156    2
     6   164   165    2
     7   168   167   ar
     8   168   170   ar
     9   167   169   ar
    10   156   155    1
    11   170   172   ar
    12   154   155    1
    13   169   171   ar
    14   155   158    1
    15    69    70    1
    16   172   171   ar
    17   117   116    1
    18   158   159    1
    19   127   126    2
    20   149   148    2
    21   173   174    1
    22   123   120    1
    23   134   133    2
    24   133   132    1
    25   148   147    1
    26   120   119    1
    27   120   121    1
    28    70    73    1
    29    70    71    1
    30   130   128    1
    31    75    77   ar
    32    75    74   ar
    33   124   121   am
    34   124   125    1
    35   126   125    1
    36   126   131   am
    37    77    79   ar
    38   116   118    1
    39   116   113    1
    40   132   131    1
    41   132   135    1
    42   159   160    1
    43    73    74    1
    44   121   122    2
    45    71    72    2
    46   102   101   ar
    47   174   177    1
    48   174   175    1
    49   125   128    1
    50    74    76   ar
    51    64    63    2
    52   179   177    1
    53   147   146    1
    54   147   150    1
    55   176   175    2
    56   138   139    1
    57   128   129    1
    58   103   101   ar
    59   146   140   am
    60   150   151    1
    61   113   114    1
    62   113   112    1
    63    79    80    1
    64    79    78   ar
    65   114   115    2
    66   101   100    1
    67   177   178    1
    68   175   181   am
    69   160   161    1
    70   135   137    1
    71   135   136    1
    72   178   180    1
    73   140   139    1
    74   140   141    2
    75    76    78   ar
    76    63    62    1
    77   139   142    1
    78   112   106   am
    79   151   152    2
    80   151   153   am
    81    62    61    1
    82    62    65    1
    83   181   182    1
    84   100    99    2
    85   107   106    2
    86   183   184    2
    87   183   182    1
    88   106   105    1
    89   142   143    1
    90    99    96    1
    91    65    66    1
    92    81    82    1
    93   182   185    1
    94    85    82    1
    95    85    86    1
    96    98    97    2
    97    68    66   ar
    98   144   143   ar
    99   185   186    1
   100    66    67   ar
   101    84    83    2
   102   143   145   ar
   103    82    83    1
   104    97    96    1
   105    97   104   am
   106   105   104    1
   107   105   108    1
   108    96    95    1
   109    95    89   am
   110   110   108    1
   111    93    91    1
   112   186   188   ar
   113   186   187   ar
   114   108   109    1
   115    89    88    1
   116    89    90    2
   117    91    88    1
   118    91    92    1
   119    88    87    1
   120   109   111    1
   121    92    94    1
   122    35    34   ar
   123    35    33   ar
   124    43    41    1
   125    34    32   ar
   126    60    58   ar
   127    33    31   ar
   128    41    40    1
   129    59    58   ar
   130    58    57    1
   131    32    29   ar
   132    52    51    1
   133    40    42    1
   134    40    37    1
   135    31    29   ar
   136    31    30   ar
   137    36    37    1
   138    29    27   ar
   139     8     7    1
   140    14    13    1
   141    57    54    1
   142    37    38    1
   143     7     6    1
   144    30    28   ar
   145    39    38    2
   146    51    50    1
   147    50    49    1
   148    55    54    1
   149    55    56    2
   150    54    53    1
   151    13    10    1
   152    27    28   ar
   153    27    26    1
   154    49    48    1
   155    48    45    1
   156     6     5    1
   157    10     9    1
   158    10    11    1
   159    26    23    1
   160    20    19    1
   161    20    21    1
   162     5     2    1
   163    23    24    1
   164    23    22    1
   165    19    16    1
   166    44    45    1
   167    45    46    1
   168    11    12    2
   169    24    25    2
   170    21    15    1
   171     2     3    1
   172     2     1    1
   173    46    47    2
   174     3     4    2
   175    16    15    1
   176    16    17    1
   177    17    18    2
