@<TRIPOS>MOLECULE
tmp/6fh6A00.pdb
 98 96 0 0 0
SMALL
GASTEIGER

@<TRIPOS>ATOM
      1  N        -28.7030  -17.7040    3.1980 N.3    32  TRP32      -0.1228
      2  CA       -29.6060  -16.8540    2.4260 C.3    32  TRP32       0.1722
      3  C        -28.9590  -15.6040    1.8290 C.2    32  TRP32       0.2437
      4  O        -29.3540  -15.2290    0.7120 O.2    32  TRP32      -0.2733
      5  CB       -30.8270  -16.4880    3.2790 C.3    32  TRP32       0.0563
      6  CG       -30.5150  -15.8520    4.5860 C.ar   32  TRP32       0.0003
      7  CD1      -30.3320  -16.4800    5.7790 C.ar   32  TRP32       0.0946
      8  CD2      -30.3730  -14.4520    4.8400 C.ar   32  TRP32       0.0152
      9  NE1      -30.0710  -15.5570    6.7630 N.ar   32  TRP32      -0.2442
     10  CE2      -30.0880  -14.3040    6.2110 C.ar   32  TRP32       0.0810
     11  CE3      -30.4450  -13.3090    4.0380 C.ar   32  TRP32       0.0012
     12  CZ2      -29.8810  -13.0610    6.7990 C.ar   32  TRP32       0.0191
     13  CZ3      -30.2360  -12.0760    4.6220 C.ar   32  TRP32       0.0001
     14  CH2      -29.9570  -11.9620    5.9890 C.ar   32  TRP32       0.0015
     15  N        -27.9920  -14.9240    2.4630 N.am   33  PRO33      -0.2718
     16  CA       -27.4120  -13.7400    1.8080 C.3    33  PRO33       0.1535
     17  C        -26.5360  -14.0710    0.6130 C.2    33  PRO33       0.2598
     18  O        -26.1420  -13.1500   -0.1130 O.2    33  PRO33      -0.2715
     19  CB       -26.5820  -13.0800    2.9220 C.3    33  PRO33       0.0310
     20  CG       -26.9700  -13.7680    4.1900 C.3    33  PRO33       0.0237
     21  CD       -27.3650  -15.1450    3.7790 C.3    33  PRO33       0.0939
     22  N        -26.2260  -15.3450    0.3810 N.am   34  PHE34      -0.1974
     23  CA       -25.2170  -15.7290   -0.5930 C.3    34  PHE34       0.1639
     24  C        -25.7370  -16.6690   -1.6700 C.2    34  PHE34       0.2290
     25  O        -24.9560  -17.0920   -2.5300 O.2    34  PHE34      -0.2864
     26  CB       -24.0280  -16.3760    0.1300 C.3    34  PHE34       0.0560
     27  CG       -23.6620  -15.6840    1.4170 C.ar   34  PHE34      -0.0200
     28  CD1      -23.0020  -14.4650    1.4010 C.ar   34  PHE34      -0.0042
     29  CD2      -23.9910  -16.2460    2.6420 C.ar   34  PHE34      -0.0042
     30  CE1      -22.6710  -13.8220    2.5810 C.ar   34  PHE34      -0.0003
     31  CE2      -23.6610  -15.6090    3.8250 C.ar   34  PHE34      -0.0003
     32  CZ       -23.0000  -14.3970    3.7950 C.ar   34  PHE34      -0.0000
     33  N        -25.7920  -10.4450   -5.5830 N.3    38  VAL38      -0.1245
     34  CA       -26.2640   -9.1860   -5.0210 C.3    38  VAL38       0.1561
     35  C        -26.8830   -8.3540   -6.1350 C.2    38  VAL38       0.2260
     36  O        -26.2860   -8.1770   -7.2030 O.2    38  VAL38      -0.2867
     37  CB       -25.1090   -8.4460   -4.3260 C.3    38  VAL38       0.0252
     38  CG1      -25.5410   -7.0720   -3.9210 C.3    38  VAL38       0.0019
     39  CG2      -24.6350   -9.2160   -3.1020 C.3    38  VAL38       0.0019
     40  N        -29.3490   -2.4520   -4.5390 N.3    43  VAL43      -0.1245
     41  CA       -28.5320   -2.2180   -3.3570 C.3    43  VAL43       0.1561
     42  C        -27.5990   -1.0500   -3.6470 C.2    43  VAL43       0.2260
     43  O        -26.8770   -1.0610   -4.6510 O.2    43  VAL43      -0.2867
     44  CB       -27.7410   -3.4670   -2.9280 C.3    43  VAL43       0.0252
     45  CG1      -26.8680   -3.9590   -4.0490 C.3    43  VAL43       0.0019
     46  CG2      -26.9030   -3.1710   -1.6920 C.3    43  VAL43       0.0019
     47  N        -22.9860   -1.3030   -4.0010 N.3    46  TYR46      -0.1241
     48  CA       -22.3100   -2.5930   -4.1210 C.3    46  TYR46       0.1605
     49  C        -21.4790   -2.6820   -5.3940 C.2    46  TYR46       0.2264
     50  O        -20.3380   -3.1580   -5.3580 O.2    46  TYR46      -0.2867
     51  CB       -23.3170   -3.7410   -4.0660 C.3    46  TYR46       0.0534
     52  CG       -22.6810   -5.0650   -3.6910 C.ar   46  TYR46      -0.0201
     53  CD1      -22.1990   -5.9270   -4.6660 C.ar   46  TYR46      -0.0009
     54  CD2      -22.5410   -5.4370   -2.3610 C.ar   46  TYR46      -0.0009
     55  CE1      -21.6080   -7.1350   -4.3290 C.ar   46  TYR46       0.0417
     56  CE2      -21.9510   -6.6400   -2.0100 C.ar   46  TYR46       0.0417
     57  CZ       -21.4860   -7.4840   -2.9980 C.ar   46  TYR46       0.1957
     58  OH       -20.8990   -8.6750   -2.6430 O.3    46  TYR46      -0.2866
     59  N        -16.7200  -14.8550   -1.6890 N.3    81  VAL81      -0.1245
     60  CA       -18.0570  -14.5470   -1.1980 C.3    81  VAL81       0.1561
     61  C        -17.9820  -13.9390    0.1960 C.2    81  VAL81       0.2260
     62  O        -18.6470  -12.9400    0.4910 O.2    81  VAL81      -0.2867
     63  CB       -18.9350  -15.8110   -1.2140 C.3    81  VAL81       0.0252
     64  CG1      -20.2790  -15.5400   -0.5430 C.3    81  VAL81       0.0019
     65  CG2      -19.1350  -16.3090   -2.6390 C.3    81  VAL81       0.0019
     66  N        -18.4340  -10.1190    1.6720 N.3    85  CYS85      -0.1235
     67  CA       -19.3160   -9.8970    2.8130 C.3    85  CYS85       0.1677
     68  C        -18.7080   -9.0570    3.9300 C.2    85  CYS85       0.2270
     69  O        -19.3510   -8.1360    4.4450 O.2    85  CYS85      -0.2867
     70  CB       -19.8220  -11.2320    3.3560 C.3    85  CYS85       0.0956
     71  SG       -21.1530  -11.0720    4.5710 S.3    85  CYS85      -0.0801
     72  N        -18.3820   -5.3220    2.9400 N.3    88  PHE88      -0.1227
     73  CA       -19.5920   -4.5330    2.7770 C.3    88  PHE88       0.1736
     74  C        -20.4710   -4.4870    4.0200 C.2    88  PHE88       0.2595
     75  O        -21.2320   -3.5290    4.1750 O.2    88  PHE88      -0.2718
     76  CB       -20.4080   -5.0700    1.5910 C.3    88  PHE88       0.0547
     77  CG       -21.3300   -4.0540    0.9670 C.ar   88  PHE88      -0.0202
     78  CD1      -20.8440   -3.1070    0.0770 C.ar   88  PHE88      -0.0042
     79  CD2      -22.6860   -4.0600    1.2530 C.ar   88  PHE88      -0.0042
     80  CE1      -21.6930   -2.1790   -0.5040 C.ar   88  PHE88      -0.0003
     81  CE2      -23.5410   -3.1400    0.6720 C.ar   88  PHE88      -0.0003
     82  CZ       -23.0430   -2.1960   -0.2050 C.ar   88  PHE88      -0.0000
     83  N        -20.3860   -5.4700    4.9130 N.am   89  ASN89      -0.1974
     84  CA       -21.3060   -5.5610    6.0380 C.3    89  ASN89       0.1688
     85  C        -20.5780   -5.4150    7.3700 C.2    89  ASN89       0.2292
     86  O        -19.3920   -5.7380    7.4930 O.2    89  ASN89      -0.2864
     87  CB       -22.0710   -6.8900    6.0200 C.3    89  ASN89       0.1181
     88  CG       -22.9380   -7.0480    4.7860 C.2    89  ASN89       0.2629
     89  OD1      -24.0760   -6.5790    4.7520 O.2    89  ASN89      -0.2716
     90  ND2      -22.4090   -7.7190    3.7690 N.am   89  ASN89      -0.0877
     91  N        -26.3220  -10.1610    8.1390 N.3    95  ILE95      -0.1245
     92  CA       -25.5800  -10.6350    6.9760 C.3    95  ILE95       0.1561
     93  C        -24.0990  -10.7670    7.3060 C.2    95  ILE95       0.2260
     94  O        -23.4350  -11.7200    6.8790 O.2    95  ILE95      -0.2867
     95  CB       -25.8120   -9.7030    5.7730 C.3    95  ILE95       0.0252
     96  CG1      -27.2730   -9.7570    5.3260 C.3    95  ILE95       0.0019
     97  CG2      -24.8950  -10.0770    4.6240 C.3    95  ILE95       0.0019
     98  CD1      -27.5860   -8.7940    4.2010 C.3    95  ILE95       0.0001
@<TRIPOS>BOND
     1    36    35    2
     2    35    34    1
     3    33    34    1
     4    49    50    2
     5    49    48    1
     6    34    37    1
     7    53    55   ar
     8    53    52   ar
     9    43    42    2
    10    40    41    1
    11    55    57   ar
    12    37    38    1
    13    37    39    1
    14    48    51    1
    15    48    47    1
    16    51    52    1
    17    45    44    1
    18    52    54   ar
    19    42    41    1
    20    41    44    1
    21    57    58    1
    22    57    56   ar
    23    44    46    1
    24    65    63    1
    25    25    24    2
    26    54    56   ar
    27    59    60    1
    28    24    23    1
    29    63    60    1
    30    63    64    1
    31    60    61    1
    32    23    26    1
    33    23    22    1
    34    80    82   ar
    35    80    78   ar
    36    82    81   ar
    37    18    17    2
    38    78    77   ar
    39    26    27    1
    40    61    62    2
    41    22    17   am
    42    17    16    1
    43    81    79   ar
    44     4     3    2
    45    77    79   ar
    46    77    76    1
    47    28    27   ar
    48    28    30   ar
    49    27    29   ar
    50    76    73    1
    51    66    67    1
    52    16    15    1
    53    16    19    1
    54     3     2    1
    55     3    15   am
    56     2     1    1
    57     2     5    1
    58    15    21    1
    59    30    32   ar
    60    29    31   ar
    61    73    72    1
    62    73    74    1
    63    67    70    1
    64    67    68    1
    65    19    20    1
    66     5     6    1
    67    70    71    1
    68    90    88   am
    69    21    20    1
    70    32    31   ar
    71    68    69    2
    72    74    75    2
    73    74    83   am
    74    11    13   ar
    75    11     8   ar
    76    98    96    1
    77     6     8   ar
    78     6     7   ar
    79    13    14   ar
    80    97    95    1
    81    89    88    2
    82    88    87    1
    83     8    10   ar
    84    83    84    1
    85    96    95    1
    86    95    92    1
    87     7     9   ar
    88    14    12   ar
    89    87    84    1
    90    84    85    1
    91    10     9   ar
    92    10    12   ar
    93    94    93    2
    94    92    93    1
    95    92    91    1
    96    85    86    2
