@<TRIPOS>MOLECULE
tmp/6fh7A00.pdb
 130 128 0 0 0
SMALL
GASTEIGER

@<TRIPOS>ATOM
      1  N        -28.5810  -17.6650    3.1850 N.3    32  TRP32      -0.1228
      2  CA       -29.4810  -16.8030    2.4180 C.3    32  TRP32       0.1722
      3  C        -28.8360  -15.5560    1.8230 C.2    32  TRP32       0.2437
      4  O        -29.2590  -15.1570    0.7260 O.2    32  TRP32      -0.2733
      5  CB       -30.6930  -16.4070    3.2770 C.3    32  TRP32       0.0563
      6  CG       -30.3730  -15.6930    4.5380 C.ar   32  TRP32       0.0003
      7  CD1      -30.1950  -16.2520    5.7650 C.ar   32  TRP32       0.0946
      8  CD2      -30.2140  -14.2800    4.7110 C.ar   32  TRP32       0.0152
      9  NE1      -29.9290  -15.2760    6.6980 N.ar   32  TRP32      -0.2442
     10  CE2      -29.9260  -14.0580    6.0760 C.ar   32  TRP32       0.0810
     11  CE3      -30.2720  -13.1800    3.8430 C.ar   32  TRP32       0.0012
     12  CZ2      -29.7000  -12.7860    6.5970 C.ar   32  TRP32       0.0191
     13  CZ3      -30.0420  -11.9100    4.3610 C.ar   32  TRP32       0.0001
     14  CH2      -29.7580  -11.7250    5.7260 C.ar   32  TRP32       0.0015
     15  N        -27.8520  -14.8930    2.4400 N.am   33  PRO33      -0.2718
     16  CA       -27.2600  -13.7300    1.7690 C.3    33  PRO33       0.1535
     17  C        -26.4730  -14.0920    0.5190 C.2    33  PRO33       0.2599
     18  O        -26.1330  -13.1890   -0.2590 O.2    33  PRO33      -0.2715
     19  CB       -26.3330  -13.1300    2.8360 C.3    33  PRO33       0.0310
     20  CG       -26.7560  -13.7420    4.1380 C.3    33  PRO33       0.0237
     21  CD       -27.2270  -15.1030    3.7630 C.3    33  PRO33       0.0939
     22  N        -26.1580  -15.3660    0.3100 N.am   34  PHE34      -0.1960
     23  CA       -25.1210  -15.7450   -0.6390 C.3    34  PHE34       0.1771
     24  C        -25.6330  -16.6350   -1.7590 C.2    34  PHE34       0.2619
     25  O        -24.8770  -16.9360   -2.6930 O.2    34  PHE34      -0.2715
     26  CB       -23.9740  -16.4360    0.1130 C.3    34  PHE34       0.0574
     27  CG       -23.6020  -15.7370    1.4020 C.ar   34  PHE34      -0.0200
     28  CD1      -23.0620  -14.4590    1.3760 C.ar   34  PHE34      -0.0042
     29  CD2      -23.8140  -16.3460    2.6410 C.ar   34  PHE34      -0.0042
     30  CE1      -22.7270  -13.7950    2.5630 C.ar   34  PHE34      -0.0003
     31  CE2      -23.4730  -15.6740    3.8340 C.ar   34  PHE34      -0.0003
     32  CZ       -22.9310  -14.4160    3.7900 C.ar   34  PHE34      -0.0000
     33  N        -26.9010  -17.0390   -1.7030 N.am   35  LEU35      -0.1963
     34  CA       -27.4460  -17.9550   -2.6940 C.3    35  LEU35       0.1728
     35  C        -27.4530  -17.3410   -4.0860 C.2    35  LEU35       0.2616
     36  O        -27.2110  -18.0450   -5.0750 O.2    35  LEU35      -0.2715
     37  CB       -28.8510  -18.3820   -2.2770 C.3    35  LEU35       0.0311
     38  CG       -28.8130  -19.2170   -0.9900 C.3    35  LEU35       0.0022
     39  CD1      -30.1880  -19.4230   -0.3900 C.3    35  LEU35       0.0001
     40  CD2      -28.1670  -20.5590   -1.2870 C.3    35  LEU35       0.0001
     41  N        -27.6950  -16.0370   -4.1880 N.am   36  LEU36      -0.1977
     42  CA       -27.8460  -15.3610   -5.4690 C.3    36  LEU36       0.1596
     43  C        -26.9860  -14.1100   -5.5230 C.2    36  LEU36       0.2287
     44  O        -26.6340  -13.5440   -4.4830 O.2    36  LEU36      -0.2864
     45  CB       -29.3120  -14.9860   -5.7160 C.3    36  LEU36       0.0297
     46  CG       -30.2150  -16.2000   -5.9160 C.3    36  LEU36       0.0022
     47  CD1      -31.6490  -15.7480   -6.1110 C.3    36  LEU36       0.0001
     48  CD2      -29.7150  -17.0150   -7.1080 C.3    36  LEU36       0.0001
     49  N        -25.6470  -10.3910   -5.5130 N.3    38  VAL38      -0.1231
     50  CA       -26.1230   -9.1300   -4.9520 C.3    38  VAL38       0.1692
     51  C        -26.7770   -8.3130   -6.0520 C.2    38  VAL38       0.2592
     52  O        -26.1720   -8.0670   -7.1000 O.2    38  VAL38      -0.2718
     53  CB       -24.9690   -8.3460   -4.3040 C.3    38  VAL38       0.0266
     54  CG1      -25.3830   -6.9070   -4.0770 C.3    38  VAL38       0.0020
     55  CG2      -24.5340   -8.9910   -2.9870 C.3    38  VAL38       0.0020
     56  N        -28.0190   -7.8910   -5.8180 N.am   39  ASN39      -0.1974
     57  CA       -28.7850   -7.1420   -6.8120 C.3    39  ASN39       0.1688
     58  C        -28.1690   -5.7570   -6.9760 C.2    39  ASN39       0.2292
     59  O        -28.3760   -4.8710   -6.1470 O.2    39  ASN39      -0.2864
     60  CB       -30.2410   -7.0530   -6.3870 C.3    39  ASN39       0.1181
     61  CG       -31.1380   -6.5760   -7.5030 C.2    39  ASN39       0.2629
     62  OD1      -30.7470   -5.7310   -8.3230 O.2    39  ASN39      -0.2716
     63  ND2      -32.3520   -7.1200   -7.5520 N.am   39  ASN39      -0.0877
     64  N        -30.2850   -2.5730   -6.8230 N.3    42  LEU42      -0.1231
     65  CA       -31.0960   -2.4050   -5.6330 C.3    42  LEU42       0.1693
     66  C        -30.2510   -2.2980   -4.3690 C.2    42  LEU42       0.2591
     67  O        -30.8010   -2.0520   -3.2900 O.2    42  LEU42      -0.2718
     68  CB       -32.0970   -3.5680   -5.5230 C.3    42  LEU42       0.0284
     69  CG       -33.0590   -3.7360   -4.3490 C.3    42  LEU42       0.0019
     70  CD1      -34.4380   -4.1080   -4.8630 C.3    42  LEU42       0.0001
     71  CD2      -32.5390   -4.7980   -3.3810 C.3    42  LEU42       0.0001
     72  N        -28.9360   -2.4590   -4.4700 N.am   43  VAL43      -0.1980
     73  CA       -28.0660   -2.3300   -3.3080 C.3    43  VAL43       0.1595
     74  C        -27.1140   -1.1740   -3.5700 C.2    43  VAL43       0.2287
     75  O        -26.2050   -1.2860   -4.4110 O.2    43  VAL43      -0.2864
     76  CB       -27.3080   -3.6310   -3.0090 C.3    43  VAL43       0.0276
     77  CG1      -26.2720   -3.3980   -1.9160 C.3    43  VAL43       0.0022
     78  CG2      -28.2870   -4.7310   -2.5900 C.3    43  VAL43       0.0022
     79  N        -22.7940   -1.2760   -3.9860 N.3    46  TYR46      -0.1241
     80  CA       -22.1610   -2.5770   -4.1930 C.3    46  TYR46       0.1605
     81  C        -21.3200   -2.5910   -5.4620 C.2    46  TYR46       0.2264
     82  O        -20.1540   -3.0110   -5.4410 O.2    46  TYR46      -0.2867
     83  CB       -23.1920   -3.7060   -4.2300 C.3    46  TYR46       0.0534
     84  CG       -22.5390   -5.0140   -3.8220 C.ar   46  TYR46      -0.0201
     85  CD1      -22.0150   -5.8930   -4.7750 C.ar   46  TYR46      -0.0009
     86  CD2      -22.3840   -5.3320   -2.4750 C.ar   46  TYR46      -0.0009
     87  CE1      -21.3880   -7.0850   -4.3930 C.ar   46  TYR46       0.0417
     88  CE2      -21.7630   -6.5040   -2.0810 C.ar   46  TYR46       0.0417
     89  CZ       -21.2710   -7.3790   -3.0440 C.ar   46  TYR46       0.1957
     90  OH       -20.6540   -8.5300   -2.6360 O.3    46  TYR46      -0.2866
     91  N        -16.5180  -14.9970   -1.7870 N.3    81  VAL81      -0.1245
     92  CA       -17.8400  -14.6520   -1.2610 C.3    81  VAL81       0.1561
     93  C        -17.7150  -14.0130    0.1170 C.2    81  VAL81       0.2260
     94  O        -18.2340  -12.9190    0.3610 O.2    81  VAL81      -0.2867
     95  CB       -18.7500  -15.8950   -1.2140 C.3    81  VAL81       0.0252
     96  CG1      -20.0760  -15.5690   -0.4900 C.3    81  VAL81       0.0019
     97  CG2      -19.0120  -16.4360   -2.6300 C.3    81  VAL81       0.0019
     98  N        -18.1440  -10.1710    1.5970 N.3    85  CYS85      -0.1235
     99  CA       -19.0620   -9.9370    2.7110 C.3    85  CYS85       0.1677
    100  C        -18.4040   -9.1100    3.8170 C.2    85  CYS85       0.2270
    101  O        -18.9880   -8.1370    4.3100 O.2    85  CYS85      -0.2867
    102  CB       -19.5720  -11.2660    3.2590 C.3    85  CYS85       0.0956
    103  SG       -20.8970  -11.0950    4.4790 S.3    85  CYS85      -0.0801
    104  N        -17.9660   -5.3620    2.9290 N.3    88  PHE88      -0.1227
    105  CA       -19.1640   -4.5540    2.7560 C.3    88  PHE88       0.1736
    106  C        -20.0470   -4.4780    3.9920 C.2    88  PHE88       0.2595
    107  O        -20.8330   -3.5330    4.1020 O.2    88  PHE88      -0.2718
    108  CB       -19.9900   -5.1030    1.5900 C.3    88  PHE88       0.0547
    109  CG       -20.9650   -4.1220    1.0060 C.ar   88  PHE88      -0.0202
    110  CD1      -20.5270   -3.1040    0.1650 C.ar   88  PHE88      -0.0042
    111  CD2      -22.3320   -4.2380    1.2660 C.ar   88  PHE88      -0.0042
    112  CE1      -21.4390   -2.2020   -0.4000 C.ar   88  PHE88      -0.0003
    113  CE2      -23.2530   -3.3430    0.7070 C.ar   88  PHE88      -0.0003
    114  CZ       -22.8070   -2.3260   -0.1250 C.ar   88  PHE88      -0.0000
    115  N        -19.9590   -5.4260    4.9220 N.am   89  ASN89      -0.1974
    116  CA       -20.9010   -5.4600    6.0350 C.3    89  ASN89       0.1688
    117  C        -20.1770   -5.3920    7.3760 C.2    89  ASN89       0.2292
    118  O        -19.0000   -5.7610    7.5020 O.2    89  ASN89      -0.2864
    119  CB       -21.7690   -6.7240    6.0100 C.3    89  ASN89       0.1181
    120  CG       -22.4760   -6.9300    4.6840 C.2    89  ASN89       0.2629
    121  OD1      -23.6280   -6.5500    4.5290 O.2    89  ASN89      -0.2716
    122  ND2      -21.7980   -7.5790    3.7310 N.am   89  ASN89      -0.0877
    123  N        -26.0020   -9.9730    7.9810 N.3    95  ILE95      -0.1245
    124  CA       -25.2490  -10.5050    6.8520 C.3    95  ILE95       0.1561
    125  C        -23.7840  -10.6840    7.2330 C.2    95  ILE95       0.2260
    126  O        -23.1390  -11.6640    6.8370 O.2    95  ILE95      -0.2867
    127  CB       -25.4130   -9.5960    5.6200 C.3    95  ILE95       0.0252
    128  CG1      -26.8560   -9.6410    5.1080 C.3    95  ILE95       0.0019
    129  CG2      -24.4080   -9.9880    4.5130 C.3    95  ILE95       0.0019
    130  CD1      -27.1040   -8.7080    3.9210 C.3    95  ILE95       0.0001
@<TRIPOS>BOND
     1    62    61    2
     2    63    61   am
     3    61    60    1
     4    48    46    1
     5    52    51    2
     6    58    57    1
     7    58    59    2
     8    64    65    1
     9    57    60    1
    10    57    56    1
    11    47    46    1
    12    51    56   am
    13    51    50    1
    14    46    45    1
    15    45    42    1
    16    65    68    1
    17    65    66    1
    18    43    42    1
    19    43    44    2
    20    68    69    1
    21    49    50    1
    22    42    41    1
    23    81    82    2
    24    81    80    1
    25    36    35    2
    26    50    53    1
    27    70    69    1
    28    85    87   ar
    29    85    84   ar
    30    72    66   am
    31    72    73    1
    32    75    74    2
    33    87    89   ar
    34    66    67    2
    35    69    71    1
    36    53    54    1
    37    53    55    1
    38    83    80    1
    39    83    84    1
    40    80    79    1
    41    41    35   am
    42    35    34    1
    43    84    86   ar
    44    74    73    1
    45    73    76    1
    46    89    90    1
    47    89    88   ar
    48    76    78    1
    49    76    77    1
    50    34    37    1
    51    34    33    1
    52    25    24    2
    53    97    95    1
    54    86    88   ar
    55    37    38    1
    56    91    92    1
    57    24    33   am
    58    24    23    1
    59    40    38    1
    60    92    95    1
    61    92    93    1
    62    95    96    1
    63    38    39    1
    64    23    26    1
    65    23    22    1
    66   112   114   ar
    67   112   110   ar
    68    18    17    2
    69   114   113   ar
    70    26    27    1
    71    93    94    2
    72   110   109   ar
    73    22    17   am
    74    17    16    1
    75   113   111   ar
    76     4     3    2
    77   109   111   ar
    78   109   108    1
    79    28    27   ar
    80    28    30   ar
    81    27    29   ar
    82   108   105    1
    83    98    99    1
    84    16    15    1
    85    16    19    1
    86     3     2    1
    87     3    15   am
    88     2     1    1
    89     2     5    1
    90    15    21    1
    91    30    32   ar
    92    29    31   ar
    93    99   102    1
    94    99   100    1
    95   105   104    1
    96   105   106    1
    97    19    20    1
    98   102   103    1
    99     5     6    1
   100   122   120   am
   101    21    20    1
   102    32    31   ar
   103   100   101    2
   104    11    13   ar
   105    11     8   ar
   106   130   128    1
   107   106   107    2
   108   106   115   am
   109    13    14   ar
   110   129   127    1
   111   121   120    2
   112     6     8   ar
   113     6     7   ar
   114   120   119    1
   115     8    10   ar
   116   115   116    1
   117   128   127    1
   118   127   124    1
   119    14    12   ar
   120     7     9   ar
   121   119   116    1
   122   116   117    1
   123    10    12   ar
   124    10     9   ar
   125   126   125    2
   126   124   125    1
   127   124   123    1
   128   117   118    2
