@<TRIPOS>MOLECULE
tmp/6fh8A00.pdb
 181 171 0 0 0
SMALL
GASTEIGER

@<TRIPOS>ATOM
      1  N          9.4460   32.7400   -4.6300 N.3    14  ASN14      -0.1240
      2  CA        10.6850   33.4770   -4.3300 C.3    14  ASN14       0.1653
      3  C         10.8280   34.7800   -5.1300 C.2    14  ASN14       0.2266
      4  O          9.9560   35.1340   -5.9530 O.2    14  ASN14      -0.2867
      5  CB        11.9770   32.5790   -4.4330 C.3    14  ASN14       0.1155
      6  CG        12.4060   32.2410   -5.8310 C.2    14  ASN14       0.2627
      7  OD1       11.8830   32.7710   -6.8090 O.2    14  ASN14      -0.2716
      8  ND2       13.2670   31.2130   -5.9460 N.am   14  ASN14      -0.0877
      9  N         12.6560   35.5690   -7.5560 N.3    16  LEU16      -0.1245
     10  CA        12.7850   35.2950   -9.0190 C.3    16  LEU16       0.1561
     11  C         11.4350   35.0370   -9.7020 C.2    16  LEU16       0.2260
     12  O         11.3390   35.0510  -10.9560 O.2    16  LEU16      -0.2867
     13  CB        13.7240   34.1510   -9.2660 C.3    16  LEU16       0.0270
     14  CG        15.1530   34.4190   -8.7470 C.3    16  LEU16       0.0019
     15  CD1       15.9530   33.1400   -8.8510 C.3    16  LEU16       0.0001
     16  CD2       15.8950   35.4740   -9.4820 C.3    16  LEU16       0.0001
     17  N          9.8840   32.0750   -8.9130 N.3    18  SER18      -0.1217
     18  CA         9.7510   30.6180   -8.8820 C.3    18  SER18       0.1889
     19  C          8.6570   30.2200   -7.8860 C.2    18  SER18       0.2288
     20  O          8.4520   30.8980   -6.9350 O.2    18  SER18      -0.2866
     21  CB        11.1040   29.9640   -8.5080 C.3    18  SER18       0.2089
     22  OG        12.0870   30.3570   -9.4840 O.3    18  SER18      -0.2183
     23  N          8.7270   21.8540   -7.6840 N.3    34  TYR34      -0.1241
     24  CA         9.4250   23.1350   -7.8300 C.3    34  TYR34       0.1605
     25  C          9.3380   23.5290   -9.2860 C.2    34  TYR34       0.2264
     26  O          9.6210   22.7340  -10.1310 O.2    34  TYR34      -0.2867
     27  CB        10.8990   23.0200   -7.4140 C.3    34  TYR34       0.0534
     28  CG        11.5200   24.4110   -7.0870 C.ar   34  TYR34      -0.0201
     29  CD1       12.0500   25.1860   -8.1140 C.ar   34  TYR34      -0.0009
     30  CD2       11.5770   24.8870   -5.7380 C.ar   34  TYR34      -0.0009
     31  CE1       12.5800   26.4600   -7.8170 C.ar   34  TYR34       0.0417
     32  CE2       12.0940   26.1190   -5.4540 C.ar   34  TYR34       0.0417
     33  CZ        12.6280   26.8970   -6.4630 C.ar   34  TYR34       0.1957
     34  OH        13.1440   28.1560   -6.0870 O.3    34  TYR34      -0.2866
     35  N         11.0220   26.6390  -11.6140 N.3    36  SER36      -0.1217
     36  CA        11.9430   27.7350  -11.6550 C.3    36  SER36       0.1889
     37  C         11.4720   28.6890  -12.6920 C.2    36  SER36       0.2288
     38  O         11.2650   28.2970  -13.8740 O.2    36  SER36      -0.2866
     39  CB        13.3490   27.3160  -11.9830 C.3    36  SER36       0.2089
     40  OG        14.2120   28.4570  -11.9710 O.3    36  SER36      -0.2183
     41  N         13.5650   30.8670  -13.8530 N.3    38  VAL38      -0.1231
     42  CA        14.8320   31.1670  -14.5710 C.3    38  VAL38       0.1692
     43  C         15.5710   29.9240  -14.9220 C.2    38  VAL38       0.2593
     44  O         15.3510   28.8310  -14.3040 O.2    38  VAL38      -0.2718
     45  CB        15.7330   32.1020  -13.7220 C.3    38  VAL38       0.0266
     46  CG1       15.0690   33.4610  -13.4160 C.3    38  VAL38       0.0020
     47  CG2       16.2310   31.4340  -12.4430 C.3    38  VAL38       0.0020
     48  N         16.4820   30.0710  -15.8600 N.am   39  GLY39      -0.1942
     49  CA        17.3760   28.9910  -16.1680 C.3    39  GLY39       0.2014
     50  C         16.9030   27.9500  -17.1520 C.2    39  GLY39       0.2639
     51  O         15.9140   28.1550  -17.8060 O.2    39  GLY39      -0.2714
     52  N         17.6630   26.8630  -17.2180 N.am   40  ASN40      -0.1958
     53  CA        17.3960   25.7570  -18.1290 C.3    40  ASN40       0.1819
     54  C         16.4440   24.7790  -17.4180 C.2    40  ASN40       0.2621
     55  O         16.8370   23.7320  -16.8980 O.2    40  ASN40      -0.2715
     56  CB        18.7270   25.0290  -18.4460 C.3    40  ASN40       0.1195
     57  CG        18.5540   23.9360  -19.4680 C.2    40  ASN40       0.2630
     58  OD1       17.5140   23.8810  -20.1750 O.2    40  ASN40      -0.2716
     59  ND2       19.5450   23.0050  -19.5150 N.am   40  ASN40      -0.0877
     60  N         15.2170   25.2080  -17.3530 N.am   41  ALA41      -0.1977
     61  CA        14.1680   24.5510  -16.6250 C.3    41  ALA41       0.1597
     62  C         12.8280   24.8990  -17.2350 C.2    41  ALA41       0.2287
     63  O         12.5880   25.9960  -17.6550 O.2    41  ALA41      -0.2864
     64  CB        14.2500   24.9950  -15.1630 C.3    41  ALA41       0.0319
     65  N         17.3560   18.5660  -11.6520 N.3    70  TRP70      -0.1241
     66  CA        16.7610   19.2610  -12.7300 C.3    70  TRP70       0.1605
     67  C         16.5150   18.4090  -13.9820 C.2    70  TRP70       0.2264
     68  O         16.8560   18.7610  -15.1150 O.2    70  TRP70      -0.2867
     69  CB        17.5850   20.5390  -13.0620 C.3    70  TRP70       0.0550
     70  CG        17.5930   21.5070  -11.9570 C.ar   70  TRP70       0.0003
     71  CD1       18.6260   21.7370  -11.0920 C.ar   70  TRP70       0.0946
     72  CD2       16.5190   22.2890  -11.5020 C.ar   70  TRP70       0.0152
     73  NE1       18.2900   22.6350  -10.1680 N.ar   70  TRP70      -0.2442
     74  CE2       16.9800   22.9990  -10.3860 C.ar   70  TRP70       0.0810
     75  CE3       15.1940   22.5200  -11.9680 C.ar   70  TRP70       0.0012
     76  CZ2       16.2080   23.8640   -9.7180 C.ar   70  TRP70       0.0191
     77  CZ3       14.3810   23.4210  -11.2630 C.ar   70  TRP70       0.0001
     78  CH2       14.8990   24.1390  -10.1620 C.ar   70  TRP70       0.0015
     79  N         18.8760   19.2030  -17.1590 N.3    77  ALA77      -0.1245
     80  CA        20.0230   20.0960  -17.0620 C.3    77  ALA77       0.1562
     81  C         21.2750   19.5160  -16.3850 C.2    77  ALA77       0.2260
     82  O         22.2210   20.2420  -16.1330 O.2    77  ALA77      -0.2867
     83  CB        19.5970   21.3850  -16.3220 C.3    77  ALA77       0.0290
     84  N         21.9630   18.6170  -13.3820 N.3    79  SER79      -0.1217
     85  CA        22.2220   19.4960  -12.2640 C.3    79  SER79       0.1889
     86  C         21.3140   19.2040  -11.1270 C.2    79  SER79       0.2288
     87  O         20.2050   18.6220  -11.3380 O.2    79  SER79      -0.2866
     88  CB        22.1010   21.0650  -12.6510 C.3    79  SER79       0.2089
     89  OG        22.9500   21.3460  -13.7110 O.3    79  SER79      -0.2183
     90  N         20.0020   21.2530   -7.3060 N.3    81  THR81      -0.1218
     91  CA        20.1450   22.3230   -6.3320 C.3    81  THR81       0.1862
     92  C         19.6490   21.8360   -4.9850 C.2    81  THR81       0.2287
     93  O         18.5980   21.1830   -4.9240 O.2    81  THR81      -0.2866
     94  CB        19.2640   23.4830   -6.7520 C.3    81  THR81       0.1770
     95  OG1       19.6550   24.0180   -8.0120 O.3    81  THR81      -0.2211
     96  CG2       19.3900   24.6380   -5.7530 C.3    81  THR81       0.0375
     97  N         18.5870   23.6120   -1.2600 N.3    83  TRP83      -0.1241
     98  CA        18.3330   24.7860   -0.4480 C.3    83  TRP83       0.1605
     99  C         18.3960   24.3830    1.0240 C.2    83  TRP83       0.2264
    100  O         17.7300   23.3970    1.4320 O.2    83  TRP83      -0.2867
    101  CB        16.9190   25.3290   -0.7380 C.3    83  TRP83       0.0550
    102  CG        16.6620   25.9770   -2.1100 C.ar   83  TRP83       0.0003
    103  CD1       16.5580   27.2970   -2.3690 C.ar   83  TRP83       0.0946
    104  CD2       16.3780   25.2960   -3.3240 C.ar   83  TRP83       0.0152
    105  NE1       16.2420   27.4670   -3.6540 N.ar   83  TRP83      -0.2442
    106  CE2       16.1000   26.2490   -4.2760 C.ar   83  TRP83       0.0810
    107  CE3       16.3170   23.9420   -3.6940 C.ar   83  TRP83       0.0012
    108  CZ2       15.7970   25.9230   -5.5860 C.ar   83  TRP83       0.0191
    109  CZ3       15.9670   23.6250   -4.9710 C.ar   83  TRP83       0.0001
    110  CH2       15.7400   24.5620   -5.9090 C.ar   83  TRP83       0.0015
    111  N         21.4470   28.4030   -1.2090 N.3    99  TRP99      -0.1241
    112  CA        21.4310   27.2110   -2.0500 C.3    99  TRP99       0.1605
    113  C         22.7500   26.9150   -2.7590 C.2    99  TRP99       0.2264
    114  O         23.5700   27.8490   -2.9490 O.2    99  TRP99      -0.2867
    115  CB        20.3240   27.2510   -3.1090 C.3    99  TRP99       0.0550
    116  CG        20.2410   28.5170   -3.9820 C.ar   99  TRP99       0.0003
    117  CD1       19.3300   29.5440   -3.8740 C.ar   99  TRP99       0.0946
    118  CD2       21.0230   28.8250   -5.1050 C.ar   99  TRP99       0.0152
    119  NE1       19.5650   30.4730   -4.8490 N.ar   99  TRP99      -0.2442
    120  CE2       20.5660   30.0200   -5.6520 C.ar   99  TRP99       0.0810
    121  CE3       22.0220   28.1450   -5.7900 C.ar   99  TRP99       0.0012
    122  CZ2       21.1570   30.5880   -6.7630 C.ar   99  TRP99       0.0191
    123  CZ3       22.6470   28.7380   -6.8740 C.ar   99  TRP99       0.0001
    124  CH2       22.1780   29.9420   -7.3690 C.ar   99  TRP99       0.0015
    125  N         23.9710   24.8250   -6.2340 N.3   101  LEU101     -0.1245
    126  CA        23.6000   24.2220   -7.5160 C.3   101  LEU101      0.1561
    127  C         24.8390   23.5840   -8.1430 C.2   101  LEU101      0.2260
    128  O         25.7560   24.2450   -8.5710 O.2   101  LEU101     -0.2867
    129  CB        22.9690   25.2430   -8.4670 C.3   101  LEU101      0.0270
    130  CG        22.4270   24.6550   -9.7760 C.3   101  LEU101      0.0019
    131  CD1       21.5840   25.7000  -10.4790 C.3   101  LEU101      0.0001
    132  CD2       23.5260   24.1510  -10.7170 C.3   101  LEU101      0.0001
    133  N         26.4410   21.1880  -11.1090 N.3   103  MET103     -0.1245
    134  CA        26.3200   20.6570  -12.4670 C.3   103  MET103      0.1570
    135  C         27.2280   19.4410  -12.5580 C.2   103  MET103      0.2261
    136  O         28.3740   19.4590  -12.0760 O.2   103  MET103     -0.2867
    137  CB        26.6150   21.6840  -13.5070 C.3   103  MET103      0.0387
    138  CG        26.1550   21.0190  -14.8780 C.3   103  MET103      0.0595
    139  SD        26.0020   22.1010  -16.2840 S.3   103  MET103     -0.1393
    140  CE        27.4990   21.7790  -17.2630 C.3   103  MET103      0.0692
    141  N         30.0720   17.5020  -14.1650 N.3   105  THR105     -0.1218
    142  CA        31.2040   17.9500  -14.9430 C.3   105  THR105      0.1862
    143  C         32.2350   16.8580  -15.1430 C.2   105  THR105      0.2287
    144  O         32.2220   15.8630  -14.4430 O.2   105  THR105     -0.2866
    145  CB        31.9720   19.1170  -14.2660 C.3   105  THR105      0.1770
    146  OG1       32.6330   18.6770  -13.0310 O.3   105  THR105     -0.2211
    147  CG2       31.0550   20.2500  -13.9620 C.3   105  THR105      0.0375
    148  N         34.7850   24.2060  -11.1510 N.3   112  ALA112     -0.1231
    149  CA        33.7680   25.1500  -11.5800 C.3   112  ALA112      0.1694
    150  C         32.3640   24.5220  -11.6130 C.2   112  ALA112      0.2593
    151  O         31.5460   24.9270  -12.4220 O.2   112  ALA112     -0.2718
    152  CB        34.1120   25.6640  -12.9630 C.3   112  ALA112      0.0304
    153  N         32.1050   23.5520  -10.7670 N.am  113  SER113     -0.1938
    154  CA        30.8780   22.7690  -10.8460 C.3   113  SER113      0.2055
    155  C         29.7040   23.3360  -10.0160 C.2   113  SER113      0.2644
    156  O         28.6140   22.8690  -10.2560 O.2   113  SER113     -0.2714
    157  CB        31.1190   21.2990  -10.4090 C.3   113  SER113      0.2130
    158  OG        31.3790   21.2490   -9.0230 O.3   113  SER113     -0.2179
    159  N         29.9430   24.2590   -9.0860 N.am  114  THR114     -0.1936
    160  CA        28.9190   24.5850   -8.0970 C.3   114  THR114      0.2028
    161  C         28.6770   26.0910   -7.9760 C.2   114  THR114      0.2642
    162  O         29.6240   26.8140   -7.6350 O.2   114  THR114     -0.2714
    163  CB        29.2860   24.0400   -6.7230 C.3   114  THR114      0.1808
    164  OG1       29.6120   22.6660   -6.8660 O.3   114  THR114     -0.2208
    165  CG2       28.1780   24.1980   -5.6680 C.3   114  THR114      0.0379
    166  N         27.4350   26.5190   -8.2450 N.am  115  LEU115     -0.1977
    167  CA        26.9860   27.8730   -8.0250 C.3   115  LEU115      0.1596
    168  C         26.3940   27.9620   -6.6310 C.2   115  LEU115      0.2287
    169  O         25.7880   26.9730   -6.0870 O.2   115  LEU115     -0.2864
    170  CB        25.8810   28.2020   -9.0110 C.3   115  LEU115      0.0297
    171  CG        26.3790   28.4450  -10.4290 C.3   115  LEU115      0.0022
    172  CD1       25.1820   28.4300  -11.3970 C.3   115  LEU115      0.0001
    173  CD2       27.1610   29.7430  -10.5530 C.3   115  LEU115      0.0001
    174  N         17.8030   32.4960   -1.8150 N.3   119  ASP119     -0.1239
    175  CA        16.3880   32.7480   -2.1590 C.3   119  ASP119      0.1674
    176  C         15.5810   32.9620   -0.9270 C.2   119  ASP119      0.2266
    177  O         15.7280   32.2950    0.1000 O.2   119  ASP119     -0.2867
    178  CB        15.7850   31.4950   -2.8600 C.3   119  ASP119      0.1410
    179  CG        16.2730   31.2420   -4.2940 C.2   119  ASP119      0.3668
    180  OD1       16.9590   32.0710   -4.9600 O.co2 119  ASP119     -0.2456
    181  OD2       15.9520   30.1720   -4.8430 O.co2 119  ASP119     -0.2456
@<TRIPOS>BOND
     1    58    57    2
     2    59    57   am
     3    57    56    1
     4    56    53    1
     5    53    54    1
     6    53    52    1
     7    51    50    2
     8    63    62    2
     9    54    60   am
    10    54    55    2
    11    60    61    1
    12   140   139    1
    13    62    61    1
    14    52    50   am
    15    79    80    1
    16    50    49    1
    17    80    81    1
    18    80    83    1
    19    61    64    1
    20    81    82    2
    21   139   138    1
    22    49    48    1
    23    48    43   am
    24   143   142    1
    25   143   144    2
    26    68    67    2
    27   142   145    1
    28   142   141    1
    29    43    42    1
    30    43    44    2
    31   138   137    1
    32    42    41    1
    33    42    45    1
    34   145   147    1
    35   145   146    1
    36    67    66    1
    37    38    37    2
    38    45    46    1
    39    45    47    1
    40    89    88    1
    41   137   134    1
    42    84    85    1
    43    69    66    1
    44    69    70    1
    45   152   149    1
    46    66    65    1
    47    37    36    1
    48    88    85    1
    49   135   134    1
    50   135   136    2
    51   134   133    1
    52   151   150    2
    53    85    86    1
    54    39    40    1
    55    39    36    1
    56    75    72   ar
    57    75    77   ar
    58    70    72   ar
    59    70    71   ar
    60    36    35    1
    61   150   149    1
    62   150   153   am
    63   149   148    1
    64    72    74   ar
    65   172   171    1
    66    87    86    2
    67    77    78   ar
    68    71    73   ar
    69    12    11    2
    70   154   153    1
    71   154   157    1
    72   154   155    1
    73   132   130    1
    74   173   171    1
    75   131   130    1
    76   171   170    1
    77   157   158    1
    78    74    73   ar
    79    74    76   ar
    80   156   155    2
    81    78    76   ar
    82    26    25    2
    83   155   159   am
    84   130   129    1
    85    11    10    1
    86    22    21    1
    87    16    14    1
    88    25    24    1
    89    13    10    1
    90    13    14    1
    91   159   160    1
    92    10     9    1
    93   170   167    1
    94    17    18    1
    95    18    21    1
    96    18    19    1
    97    15    14    1
    98   128   127    2
    99   129   126    1
   100   166   167    1
   101   166   161   am
   102   127   126    1
   103    29    31   ar
   104    29    28   ar
   105   160   161    1
   106   160   163    1
   107   167   168    1
   108    95    94    1
   109   161   162    2
   110    19    20    2
   111    24    23    1
   112    24    27    1
   113    31    33   ar
   114   126   125    1
   115    27    28    1
   116   124   123   ar
   117   124   122   ar
   118    90    91    1
   119    28    30   ar
   120   123   121   ar
   121   164   163    1
   122     7     6    2
   123   122   120   ar
   124    94    91    1
   125    94    96    1
   126   163   165    1
   127   168   169    2
   128    33    34    1
   129    33    32   ar
   130    91    92    1
   131     4     3    2
   132     8     6   am
   133   110   108   ar
   134   110   109   ar
   135     6     5    1
   136   121   118   ar
   137    30    32   ar
   138   120   118   ar
   139   120   119   ar
   140   108   106   ar
   141     3     2    1
   142   118   116   ar
   143    92    93    2
   144   109   107   ar
   145   180   179   ar
   146   119   117   ar
   147   181   179   ar
   148     1     2    1
   149     5     2    1
   150   179   178    1
   151   106   105   ar
   152   106   104   ar
   153   116   117   ar
   154   116   115    1
   155   107   104   ar
   156   105   103   ar
   157   104   102   ar
   158   115   112    1
   159   114   113    2
   160   178   175    1
   161   113   112    1
   162   103   102   ar
   163   175   174    1
   164   175   176    1
   165   102   101    1
   166   112   111    1
   167    97    98    1
   168   176   177    2
   169   101    98    1
   170    98    99    1
   171    99   100    2
