@<TRIPOS>MOLECULE
tmp/6fhbA00.pdb
 121 112 0 0 0
SMALL
GASTEIGER

@<TRIPOS>ATOM
      1  N         -3.4680   10.2390  -19.2570 N.3    19  LEU19      -0.1245
      2  CA        -4.0660    9.2890  -18.3290 C.3    19  LEU19       0.1561
      3  C         -5.3810    8.7390  -18.8710 C.2    19  LEU19       0.2260
      4  O         -5.8960    7.7300  -18.3810 O.2    19  LEU19      -0.2867
      5  CB        -4.3020    9.9500  -16.9710 C.3    19  LEU19       0.0270
      6  CG        -3.0930   10.6810  -16.3930 C.3    19  LEU19       0.0019
      7  CD1       -3.4820   11.5040  -15.1730 C.3    19  LEU19       0.0001
      8  CD2       -1.9980    9.6760  -16.0560 C.3    19  LEU19       0.0001
      9  N         -7.0340   13.7380  -20.7830 N.3    27  VAL27      -0.1245
     10  CA        -6.5050   13.9690  -19.4370 C.3    27  VAL27       0.1561
     11  C         -5.0100   13.6780  -19.4260 C.2    27  VAL27       0.2260
     12  O         -4.5780   12.6380  -19.9280 O.2    27  VAL27      -0.2867
     13  CB        -7.2120   13.0960  -18.3720 C.3    27  VAL27       0.0252
     14  CG1       -6.6500   13.3920  -16.9900 C.3    27  VAL27       0.0019
     15  CG2       -8.7240   13.3200  -18.3860 C.3    27  VAL27       0.0019
     16  N         -4.1790   16.1490  -12.1520 N.3    40  ALA40      -0.1245
     17  CA        -4.5760   15.6990  -13.4800 C.3    40  ALA40       0.1562
     18  C         -5.1440   16.8890  -14.2400 C.2    40  ALA40       0.2260
     19  O         -5.9810   17.6000  -13.7090 O.2    40  ALA40      -0.2867
     20  CB        -5.6140   14.5870  -13.3870 C.3    40  ALA40       0.0290
     21  N         -7.4410   18.0310  -17.2410 N.3    42  LYS42      -0.1245
     22  CA        -8.4620   17.5530  -18.1800 C.3    42  LYS42       0.1561
     23  C         -8.7290   18.6670  -19.1760 C.2    42  LYS42       0.2260
     24  O         -9.2330   19.7180  -18.8080 O.2    42  LYS42      -0.2867
     25  CB        -9.7440   17.1570  -17.4440 C.3    42  LYS42       0.0271
     26  CG       -10.9350   16.6180  -18.3070 C.3    42  LYS42       0.0035
     27  CD       -12.0040   16.2290  -17.2900 C.3    42  LYS42       0.0206
     28  CE       -13.3640   15.8660  -17.8130 C.3    42  LYS42       0.1093
     29  NZ       -14.2880   15.9340  -16.6260 N.3    42  LYS42      -0.1314
     30  N        -20.6010   21.6770  -15.2860 N.3    64  GLU64      -0.1245
     31  CA       -19.7020   20.7360  -14.6400 C.3    64  GLU64       0.1567
     32  C        -18.7670   21.4860  -13.6900 C.2    64  GLU64       0.2260
     33  O        -18.5410   21.0700  -12.5510 O.2    64  GLU64      -0.2867
     34  CB       -18.9050   19.9290  -15.6830 C.3    64  GLU64       0.0388
     35  CG       -17.8550   19.0140  -15.0380 C.3    64  GLU64       0.1160
     36  CD       -17.0430   18.2040  -16.0450 C.2    64  GLU64       0.3649
     37  OE1      -17.2630   18.3390  -17.2710 O.co2  64  GLU64      -0.2457
     38  OE2      -16.1680   17.4340  -15.5920 O.co2  64  GLU64      -0.2457
     39  N        -18.4310   21.0170   -9.6550 N.3    68  LEU68      -0.1245
     40  CA       -17.1230   20.6960   -9.0820 C.3    68  LEU68       0.1561
     41  C        -16.6590   21.7190   -8.0340 C.2    68  LEU68       0.2260
     42  O        -16.1090   21.3500   -6.9970 O.2    68  LEU68      -0.2867
     43  CB       -16.0800   20.5680  -10.2030 C.3    68  LEU68       0.0270
     44  CG       -16.2360   19.3140  -11.0730 C.3    68  LEU68       0.0019
     45  CD1      -15.3500   19.3750  -12.3160 C.3    68  LEU68       0.0001
     46  CD2      -15.9340   18.0580  -10.2590 C.3    68  LEU68       0.0001
     47  N        -14.0370   13.6050   -6.3090 N.3    77  ILE77      -0.1245
     48  CA       -12.8530   14.2680   -6.8640 C.3    77  ILE77       0.1561
     49  C        -12.9080   15.7750   -6.5810 C.2    77  ILE77       0.2260
     50  O        -13.9910   16.3640   -6.5210 O.2    77  ILE77      -0.2867
     51  CB       -12.7200   13.9940   -8.3790 C.3    77  ILE77       0.0252
     52  CG1      -11.3080   14.3430   -8.8600 C.3    77  ILE77       0.0019
     53  CG2      -13.7590   14.7660   -9.1910 C.3    77  ILE77       0.0019
     54  CD1      -10.9990   13.8340  -10.2520 C.3    77  ILE77       0.0001
     55  N         -7.4550   18.9810  -11.8280 N.3    93  LEU93      -0.1231
     56  CA        -8.2080   18.1430  -10.9060 C.3    93  LEU93       0.1693
     57  C         -7.2730   17.3720   -9.9960 C.2    93  LEU93       0.2592
     58  O         -6.1400   17.0970  -10.3580 O.2    93  LEU93      -0.2718
     59  CB        -9.0700   17.1390  -11.6810 C.3    93  LEU93       0.0284
     60  CG       -10.1690   17.7700  -12.5410 C.3    93  LEU93       0.0019
     61  CD1      -10.4870   16.8370  -13.7040 C.3    93  LEU93       0.0001
     62  CD2      -11.3780   18.0370  -11.6790 C.3    93  LEU93       0.0001
     63  N         -7.7810   17.0070   -8.8320 N.am   94  GLU94      -0.1966
     64  CA        -7.1200   16.0310   -7.9770 C.3    94  GLU94       0.1733
     65  C         -6.6930   14.7980   -8.7760 C.2    94  GLU94       0.2616
     66  O         -7.4530   14.2630   -9.5720 O.2    94  GLU94      -0.2715
     67  CB        -8.0590   15.6310   -6.8340 C.3    94  GLU94       0.0429
     68  CG        -7.4440   14.6700   -5.8180 C.3    94  GLU94       0.1163
     69  CD        -8.4260   14.2870   -4.7380 C.2    94  GLU94       0.3649
     70  OE1       -9.6460   14.5040   -4.9330 O.co2  94  GLU94      -0.2457
     71  OE2       -7.9740   13.7740   -3.6900 O.co2  94  GLU94      -0.2457
     72  N         -5.4560   14.3540   -8.5850 N.am   95  LEU95      -0.1963
     73  CA        -4.9820   13.1730   -9.2830 C.3    95  LEU95       0.1728
     74  C         -5.4650   11.9050   -8.5920 C.2    95  LEU95       0.2616
     75  O         -5.1540   11.6760   -7.4160 O.2    95  LEU95      -0.2715
     76  CB        -3.4490   13.1860   -9.3560 C.3    95  LEU95       0.0311
     77  CG        -2.7750   11.9680   -9.9790 C.3    95  LEU95       0.0022
     78  CD1       -3.0890   11.9040  -11.4570 C.3    95  LEU95       0.0001
     79  CD2       -1.2680   12.0110   -9.7450 C.3    95  LEU95       0.0001
     80  N         -6.2240   11.0800   -9.3080 N.am   96  VAL96      -0.1977
     81  CA        -6.6570    9.7990   -8.7510 C.3    96  VAL96       0.1596
     82  C         -5.9100    8.7080   -9.5230 C.2    96  VAL96       0.2287
     83  O         -6.1800    8.4350  -10.6850 O.2    96  VAL96      -0.2864
     84  CB        -8.2120    9.6580   -8.7840 C.3    96  VAL96       0.0276
     85  CG1       -8.8200   10.8640   -8.0760 C.3    96  VAL96       0.0022
     86  CG2       -8.7500    9.5900  -10.1950 C.3    96  VAL96       0.0022
     87  N        -13.2190    5.3090   -8.8060 N.3   146  MET146     -0.1245
     88  CA       -11.7580    5.1940   -8.8590 C.3   146  MET146      0.1570
     89  C        -11.1890    5.0310   -7.4660 C.2   146  MET146      0.2261
     90  O        -11.8910    5.2050   -6.4650 O.2   146  MET146     -0.2867
     91  CB       -11.1370    6.4320   -9.5040 C.3   146  MET146      0.0387
     92  CG       -11.5480    6.6930  -10.9420 C.3   146  MET146      0.0595
     93  SD       -10.9100    5.4600  -12.1010 S.3   146  MET146     -0.1393
     94  CE        -9.1900    5.9350  -12.1430 C.3   146  MET146      0.0692
     95  N        -15.6120   10.1280   -9.7990 N.3   160  ILE160     -0.1231
     96  CA       -15.1430   11.0970  -10.7820 C.3   160  ILE160      0.1692
     97  C        -16.1720   11.3300  -11.8990 C.2   160  ILE160      0.2592
     98  O        -17.2400   10.7110  -11.9180 O.2   160  ILE160     -0.2718
     99  CB       -13.8190   10.6340  -11.4220 C.3   160  ILE160      0.0266
    100  CG1      -14.0670    9.3940  -12.2730 C.3   160  ILE160      0.0019
    101  CG2      -12.7800   10.3640  -10.3320 C.3   160  ILE160      0.0020
    102  CD1      -12.9570    9.1170  -13.2860 C.3   160  ILE160      0.0001
    103  N        -15.8130   12.2230  -12.8160 N.am  161  ASP161     -0.1960
    104  CA       -16.5470   12.4830  -14.0650 C.3   161  ASP161      0.1840
    105  C        -17.9300   13.0880  -13.8560 C.2   161  ASP161      0.2622
    106  O        -18.9570   12.3990  -13.9710 O.2   161  ASP161     -0.2715
    107  CB       -16.6690   11.2140  -14.8940 C.3   161  ASP161      0.1450
    108  CG       -17.0530   11.5010  -16.3350 C.2   161  ASP161      0.3671
    109  OD1      -17.3640   12.6720  -16.6520 O.co2 161  ASP161     -0.2456
    110  OD2      -17.0660   10.5530  -17.1400 O.co2 161  ASP161     -0.2456
    111  N        -17.9440   14.3870  -13.5990 N.am  162  PHE162     -0.1974
    112  CA       -19.1860   15.0880  -13.3110 C.3   162  PHE162      0.1639
    113  C        -19.7520   15.7680  -14.5650 C.2   162  PHE162      0.2290
    114  O        -20.5020   16.7500  -14.4780 O.2   162  PHE162     -0.2864
    115  CB       -18.9340   16.0810  -12.1700 C.3   162  PHE162      0.0560
    116  CG       -18.9220   15.4230  -10.8260 C.ar  162  PHE162     -0.0200
    117  CD1      -17.8010   14.7160  -10.3910 C.ar  162  PHE162     -0.0042
    118  CD2      -20.0520   15.4610  -10.0130 C.ar  162  PHE162     -0.0042
    119  CE1      -17.7940   14.0780   -9.1690 C.ar  162  PHE162     -0.0003
    120  CE2      -20.0540   14.8390   -8.7790 C.ar  162  PHE162     -0.0003
    121  CZ       -18.9200   14.1370   -8.3540 C.ar  162  PHE162     -0.0000
@<TRIPOS>BOND
     1     9    10    1
     2    12    11    2
     3    10    11    1
     4    10    13    1
     5     1     2    1
     6    23    24    2
     7    23    22    1
     8     3     4    2
     9     3     2    1
    10    15    13    1
    11    13    14    1
    12     2     5    1
    13    26    25    1
    14    26    27    1
    15    22    25    1
    16    22    21    1
    17    28    27    1
    18    28    29    1
    19    37    36   ar
    20   110   108   ar
    21     5     6    1
    22   109   108   ar
    23     6     8    1
    24     6     7    1
    25   108   107    1
    26    36    38   ar
    27    36    35    1
    28    34    35    1
    29    34    31    1
    30    30    31    1
    31   107   104    1
    32    31    32    1
    33   113   114    2
    34   113   112    1
    35    18    19    2
    36    18    17    1
    37   104   105    1
    38   104   103    1
    39   106   105    2
    40   105   111   am
    41    61    60    1
    42    32    33    2
    43   111   112    1
    44    17    20    1
    45    17    16    1
    46   112   115    1
    47   102   100    1
    48   103    97   am
    49    60    59    1
    50    60    62    1
    51    45    44    1
    52   100    99    1
    53   115   116    1
    54    94    93    1
    55    93    92    1
    56    98    97    2
    57    97    96    1
    58    55    56    1
    59    59    56    1
    60    78    77    1
    61    99    96    1
    62    99   101    1
    63    44    46    1
    64    44    43    1
    65    92    91    1
    66    56    57    1
    67   116   117   ar
    68   116   118   ar
    69    96    95    1
    70    83    82    2
    71   117   119   ar
    72    58    57    2
    73    54    52    1
    74    43    40    1
    75    86    84    1
    76   118   120   ar
    77    57    63   am
    78    77    79    1
    79    77    76    1
    80    39    40    1
    81    66    65    2
    82    82    81    1
    83    91    88    1
    84    76    73    1
    85    80    81    1
    86    80    74   am
    87    73    74    1
    88    73    72    1
    89    53    51    1
    90   119   121   ar
    91    40    41    1
    92    52    51    1
    93    88    87    1
    94    88    89    1
    95    63    64    1
    96    84    81    1
    97    84    85    1
    98   120   121   ar
    99    65    72   am
   100    65    64    1
   101    74    75    2
   102    51    48    1
   103    41    42    2
   104    64    67    1
   105    89    90    2
   106    48    49    1
   107    48    47    1
   108    67    68    1
   109    49    50    2
   110    68    69    1
   111    70    69   ar
   112    69    71   ar
