@<TRIPOS>MOLECULE
tmp/6fhnA00.pdb
 164 160 0 0 0
SMALL
GASTEIGER

@<TRIPOS>ATOM
      1  N         95.3040   41.2470    8.4080 N.3   156  ASP156     -0.1239
      2  CA        94.2250   40.2860    8.3180 C.3   156  ASP156      0.1674
      3  C         94.6750   38.8530    8.5250 C.2   156  ASP156      0.2266
      4  O         93.9780   38.0740    9.1650 O.2   156  ASP156     -0.2867
      5  CB        93.5470   40.3820    6.9490 C.3   156  ASP156      0.1410
      6  CG        92.2560   39.5930    6.8590 C.2   156  ASP156      0.3668
      7  OD1       91.2480   39.9850    7.5270 O.co2 156  ASP156     -0.2456
      8  OD2       92.2340   38.6030    6.0690 O.co2 156  ASP156     -0.2456
      9  N         98.8780   37.8820    4.8100 N.3   159  ASP159     -0.1239
     10  CA        99.0960   39.1080    4.0120 C.3   159  ASP159      0.1674
     11  C         98.8960   40.3320    4.9000 C.2   159  ASP159      0.2266
     12  O         98.3080   40.2470    5.9780 O.2   159  ASP159     -0.2867
     13  CB        98.1360   39.1710    2.8250 C.3   159  ASP159      0.1410
     14  CG        96.6690   39.3740    3.2640 C.2   159  ASP159      0.3668
     15  OD1       96.1200   38.4390    3.8620 O.co2 159  ASP159     -0.2456
     16  OD2       96.0770   40.4600    3.0060 O.co2 159  ASP159     -0.2456
     17  N         90.9020   44.6800    5.9750 N.3   163  TYR163     -0.1241
     18  CA        89.6540   44.5640    5.2050 C.3   163  TYR163      0.1605
     19  C         88.4570   45.0020    6.0120 C.2   163  TYR163      0.2264
     20  O         88.2840   44.5360    7.1260 O.2   163  TYR163     -0.2867
     21  CB        89.4530   43.1230    4.7160 C.3   163  TYR163      0.0534
     22  CG        90.6150   42.6480    3.8970 C.ar  163  TYR163     -0.0201
     23  CD1       90.7040   42.9080    2.5370 C.ar  163  TYR163     -0.0009
     24  CD2       91.6450   41.9670    4.4900 C.ar  163  TYR163     -0.0009
     25  CE1       91.8000   42.4910    1.8120 C.ar  163  TYR163      0.0417
     26  CE2       92.7460   41.5460    3.7740 C.ar  163  TYR163      0.0417
     27  CZ        92.8250   41.8080    2.4490 C.ar  163  TYR163      0.1957
     28  OH        93.9160   41.3450    1.7490 O.3   163  TYR163     -0.2866
     29  N         88.6460   48.6100    2.0960 N.3   222  ASN222     -0.1240
     30  CA        89.8010   47.7180    2.2170 C.3   222  ASN222      0.1653
     31  C         91.0860   48.4980    1.8950 C.2   222  ASN222      0.2266
     32  O         91.1110   49.3590    0.9970 O.2   222  ASN222     -0.2867
     33  CB        89.7210   46.5670    1.2200 C.3   222  ASN222      0.1155
     34  CG        88.5430   45.6690    1.4450 C.2   222  ASN222      0.2627
     35  OD1       88.0380   45.5520    2.5460 O.2   222  ASN222     -0.2716
     36  ND2       88.0780   45.0530    0.3870 N.am  222  ASN222     -0.0877
     37  N         94.4300   47.0210    0.5540 N.3   224  LEU224     -0.1231
     38  CA        94.7760   45.7150    0.0310 C.3   224  LEU224      0.1693
     39  C         96.2380   45.3540    0.3520 C.2   224  LEU224      0.2591
     40  O         97.0570   46.2100    0.6690 O.2   224  LEU224     -0.2718
     41  CB        94.5010   45.6750   -1.4650 C.3   224  LEU224      0.0284
     42  CG        93.0400   45.8960   -1.8790 C.3   224  LEU224      0.0019
     43  CD1       92.9310   45.7280   -3.3970 C.3   224  LEU224      0.0001
     44  CD2       92.0530   44.9600   -1.1880 C.3   224  LEU224      0.0001
     45  N         96.5450   44.0720    0.2500 N.am  225  ARG225     -0.1980
     46  CA        97.8870   43.5540    0.5380 C.3   225  ARG225      0.1597
     47  C         98.9670   44.2320   -0.3060 C.2   225  ARG225      0.2287
     48  O         98.6950   44.7580   -1.3950 O.2   225  ARG225     -0.2864
     49  CB        97.9250   42.0400    0.3150 C.3   225  ARG225      0.0334
     50  CG        97.8950   41.5720   -1.1420 C.3   225  ARG225      0.0492
     51  CD        97.6710   40.0490   -1.2090 C.3   225  ARG225      0.2205
     52  NE        96.4880   39.6360   -0.4160 N.pl3 225  ARG225     -0.0865
     53  CZ        95.5750   38.7190   -0.7630 C.cat 225  ARG225      0.5346
     54  NH1       95.6490   38.0730   -1.9210 N.pl3 225  ARG225      0.1354
     55  NH2       94.5690   38.4370    0.0630 N.pl3 225  ARG225      0.1354
     56  N         83.6910   42.9650    0.3710 N.3   316  SER316     -0.1202
     57  CA        84.2220   41.6130    0.6040 C.3   316  SER316      0.2020
     58  C         84.1380   41.2410    2.0890 C.2   316  SER316      0.2618
     59  O         83.9220   42.1080    2.9660 O.2   316  SER316     -0.2717
     60  CB        85.6760   41.5430    0.1220 C.3   316  SER316      0.2103
     61  OG        86.5160   42.3440    0.9120 O.3   316  SER316     -0.2182
     62  N         84.2820   39.9460    2.3610 N.am  317  TYR317     -0.1975
     63  CA        84.1650   39.4190    3.7130 C.3   317  TYR317      0.1639
     64  C         82.7590   39.7710    4.2580 C.2   317  TYR317      0.2290
     65  O         82.6080   40.1870    5.4190 O.2   317  TYR317     -0.2864
     66  CB        85.2420   39.9830    4.6430 C.3   317  TYR317      0.0560
     67  CG        86.5570   39.2410    4.8160 C.ar  317  TYR317     -0.0198
     68  CD1       86.5920   37.9080    5.0780 C.ar  317  TYR317     -0.0009
     69  CD2       87.7700   39.9300    4.7950 C.ar  317  TYR317     -0.0009
     70  CE1       87.7750   37.2500    5.3290 C.ar  317  TYR317      0.0417
     71  CE2       88.9750   39.2770    4.9980 C.ar  317  TYR317      0.0417
     72  CZ        88.9670   37.9140    5.2720 C.ar  317  TYR317      0.1957
     73  OH        90.1100   37.2270    5.5240 O.3   317  TYR317     -0.2866
     74  N         82.7390   36.2100    9.6330 N.3   366  TYR366     -0.1227
     75  CA        82.5540   37.4040    8.8180 C.3   366  TYR366      0.1736
     76  C         81.2860   37.3020    7.9700 C.2   366  TYR366      0.2595
     77  O         80.6370   38.3020    7.6580 O.2   366  TYR366     -0.2718
     78  CB        83.7810   37.6160    7.9380 C.3   366  TYR366      0.0548
     79  CG        84.0050   36.5920    6.8510 C.ar  366  TYR366     -0.0200
     80  CD1       83.2710   36.6350    5.6420 C.ar  366  TYR366     -0.0009
     81  CD2       84.9880   35.6040    6.9940 C.ar  366  TYR366     -0.0009
     82  CE1       83.5040   35.7050    4.6280 C.ar  366  TYR366      0.0417
     83  CE2       85.2180   34.6920    5.9880 C.ar  366  TYR366      0.0417
     84  CZ        84.4820   34.7520    4.8150 C.ar  366  TYR366      0.1957
     85  OH        84.7170   33.8270    3.8560 O.3   366  TYR366     -0.2866
     86  N         80.9500   36.0530    7.6090 N.am  367  TRP367     -0.1976
     87  CA        79.7870   35.7970    6.7910 C.3   367  TRP367      0.1640
     88  C         78.4450   35.9730    7.5360 C.2   367  TRP367      0.2290
     89  O         77.4170   35.8880    6.9020 O.2   367  TRP367     -0.2864
     90  CB        79.8660   34.3910    6.1540 C.3   367  TRP367      0.0576
     91  CG        80.1480   33.2820    7.1790 C.ar  367  TRP367      0.0006
     92  CD1       79.3860   32.9260    8.2380 C.ar  367  TRP367      0.0946
     93  CD2       81.2810   32.4150    7.1940 C.ar  367  TRP367      0.0152
     94  NE1       79.9630   31.8750    8.9290 N.ar  367  TRP367     -0.2442
     95  CE2       81.1290   31.5380    8.3030 C.ar  367  TRP367      0.0810
     96  CE3       82.3870   32.2520    6.3430 C.ar  367  TRP367      0.0012
     97  CZ2       82.0770   30.5750    8.6340 C.ar  367  TRP367      0.0191
     98  CZ3       83.3320   31.2330    6.6460 C.ar  367  TRP367      0.0001
     99  CH2       83.1540   30.4070    7.7780 C.ar  367  TRP367      0.0015
    100  N         88.7750   25.1910    1.4870 N.3   418  PHE418     -0.1241
    101  CA        89.4210   25.9180    2.5620 C.3   418  PHE418      0.1605
    102  C         89.2540   25.0920    3.8260 C.2   418  PHE418      0.2264
    103  O         88.2950   24.2900    3.9670 O.2   418  PHE418     -0.2867
    104  CB        88.8130   27.3170    2.6900 C.3   418  PHE418      0.0534
    105  CG        89.6780   28.2760    3.4890 C.ar  418  PHE418     -0.0203
    106  CD1       90.8300   28.8490    2.9360 C.ar  418  PHE418     -0.0042
    107  CD2       89.3560   28.5840    4.8010 C.ar  418  PHE418     -0.0042
    108  CE1       91.6300   29.7240    3.6990 C.ar  418  PHE418     -0.0003
    109  CE2       90.1600   29.4500    5.5690 C.ar  418  PHE418     -0.0003
    110  CZ        91.3120   30.0040    5.0140 C.ar  418  PHE418     -0.0000
    111  N         87.9700   26.7740   10.1620 N.3   422  GLU422     -0.1245
    112  CA        87.3190   28.0650   10.0690 C.3   422  GLU422      0.1567
    113  C         85.8410   27.9970   10.5060 C.2   422  GLU422      0.2260
    114  O         85.4680   28.6170   11.5060 O.2   422  GLU422     -0.2867
    115  CB        87.4960   28.6750    8.6710 C.3   422  GLU422      0.0388
    116  CG        86.8360   30.0600    8.5550 C.3   422  GLU422      0.1160
    117  CD        86.9270   30.6560    7.1840 C.2   422  GLU422      0.3649
    118  OE1       86.6570   29.9450    6.1730 O.co2 422  GLU422     -0.2457
    119  OE2       87.2610   31.8640    7.1080 O.co2 422  GLU422     -0.2457
    120  N         98.0380   28.5420    1.4150 N.3   530  TRP530     -0.1227
    121  CA        97.1150   29.3730    2.1950 C.3   530  TRP530      0.1737
    122  C         95.7090   28.7610    2.4230 C.2   530  TRP530      0.2595
    123  O         94.9700   29.2630    3.2690 O.2   530  TRP530     -0.2718
    124  CB        96.9320   30.7250    1.5030 C.3   530  TRP530      0.0564
    125  CG        96.3540   30.6220    0.1180 C.ar  530  TRP530      0.0003
    126  CD1       97.0480   30.4510   -1.0540 C.ar  530  TRP530      0.0946
    127  CD2       94.9790   30.6720   -0.2420 C.ar  530  TRP530      0.0152
    128  NE1       96.1970   30.3860   -2.1050 N.ar  530  TRP530     -0.2442
    129  CE2       94.9130   30.5200   -1.6510 C.ar  530  TRP530      0.0810
    130  CE3       93.7870   30.8410    0.4820 C.ar  530  TRP530      0.0012
    131  CZ2       93.6980   30.5080   -2.3530 C.ar  530  TRP530      0.0191
    132  CZ3       92.5770   30.8410   -0.2210 C.ar  530  TRP530      0.0001
    133  CH2       92.5330   30.6770   -1.6110 C.ar  530  TRP530      0.0015
    134  N         95.3410   27.7230    1.6530 N.am  531  ARG531     -0.1980
    135  CA        94.0260   27.0590    1.8240 C.3   531  ARG531      0.1597
    136  C         93.9620   26.1670    3.0340 C.2   531  ARG531      0.2287
    137  O         92.8660   25.7850    3.4450 O.2   531  ARG531     -0.2864
    138  CB        93.6440   26.2340    0.5920 C.3   531  ARG531      0.0334
    139  CG        93.3320   27.1070   -0.6060 C.3   531  ARG531      0.0492
    140  CD        92.9470   26.2810   -1.8080 C.3   531  ARG531      0.2205
    141  NE        92.6720   27.1090   -2.9510 N.pl3 531  ARG531     -0.0865
    142  CZ        91.5380   27.7690   -3.1850 C.cat 531  ARG531      0.5346
    143  NH1       90.4810   27.7250   -2.3530 N.pl3 531  ARG531      0.1354
    144  NH2       91.4420   28.4600   -4.3120 N.pl3 531  ARG531      0.1354
    145  N         93.9260   33.6130   10.4270 N.3   536  SER536     -0.1217
    146  CA        93.4540   34.9920   10.2040 C.3   536  SER536      0.1889
    147  C         92.7970   35.5410   11.4300 C.2   536  SER536      0.2288
    148  O         92.4110   34.7990   12.3300 O.2   536  SER536     -0.2866
    149  CB        92.5010   35.1180    8.9830 C.3   536  SER536      0.2089
    150  OG        91.1490   34.8850    9.3250 O.3   536  SER536     -0.2183
    151  N         89.8740   36.5820   11.6660 N.3   538  SER538     -0.1202
    152  CA        88.5000   36.0480   11.7530 C.3   538  SER538      0.2020
    153  C         88.4590   34.5290   11.9610 C.2   538  SER538      0.2618
    154  O         87.6030   34.0420   12.6290 O.2   538  SER538     -0.2717
    155  CB        87.6710   36.4230   10.5220 C.3   538  SER538      0.2103
    156  OG        88.3320   36.0720    9.3190 O.3   538  SER538     -0.2182
    157  N         89.3590   33.7980   11.3140 N.am  539  ILE539     -0.1979
    158  CA        89.5150   32.3560   11.5940 C.3   539  ILE539      0.1595
    159  C         89.7200   32.0620   13.0900 C.2   539  ILE539      0.2287
    160  O         89.1080   31.1310   13.6250 O.2   539  ILE539     -0.2864
    161  CB        90.6340   31.7280   10.7350 C.3   539  ILE539      0.0276
    162  CG1       90.2220   31.7470    9.2590 C.3   539  ILE539      0.0022
    163  CG2       90.9000   30.2930   11.1580 C.3   539  ILE539      0.0022
    164  CD1       91.3610   31.6760    8.2820 C.3   539  ILE539      0.0001
@<TRIPOS>BOND
     1   144   142    1
     2    43    42    1
     3   142   141    2
     4   142   143    1
     5   141   140    1
     6   131   129   ar
     7   131   133   ar
     8   128   129   ar
     9   128   126   ar
    10    54    53    1
    11    42    41    1
    12    42    44    1
    13   140   139    1
    14   129   127   ar
    15   133   132   ar
    16    41    38    1
    17    48    47    2
    18    51    50    1
    19    51    52    1
    20    50    49    1
    21   126   125   ar
    22    53    52    2
    23    53    55    1
    24   139   138    1
    25    47    46    1
    26   127   125   ar
    27   127   130   ar
    28   132   130   ar
    29    38    39    1
    30    38    37    1
    31   125   124    1
    32    60    57    1
    33    60    61    1
    34    45    39   am
    35    45    46    1
    36    49    46    1
    37    39    40    2
    38    56    57    1
    39    36    34   am
    40   138   135    1
    41    57    58    1
    42    32    31    2
    43    33    34    1
    44    33    30    1
    45   120   121    1
    46    34    35    2
    47   100   101    1
    48   124   121    1
    49   134   135    1
    50   134   122   am
    51    28    27    1
    52    25    27   ar
    53    25    23   ar
    54   135   136    1
    55    31    30    1
    56    58    62   am
    57    58    59    2
    58    29    30    1
    59   121   122    1
    60    62    63    1
    61   122   123    2
    62    27    26   ar
    63    23    22   ar
    64   101   104    1
    65   101   102    1
    66   104   105    1
    67    13    14    1
    68    13    10    1
    69   106   105   ar
    70   106   108   ar
    71    16    14   ar
    72   136   137    2
    73    14    15   ar
    74   105   107   ar
    75   108   110   ar
    76    63    64    1
    77    63    66    1
    78    26    24   ar
    79   102   103    2
    80    85    84    1
    81    22    24   ar
    82    22    21    1
    83    10     9    1
    84    10    11    1
    85    64    65    2
    86    82    84   ar
    87    82    80   ar
    88    66    67    1
    89    21    18    1
    90    69    67   ar
    91    69    71   ar
    92   107   109   ar
    93    84    83   ar
    94    67    68   ar
    95    11    12    2
    96    71    72   ar
    97   110   109   ar
    98    68    70   ar
    99    18    17    1
   100    18    19    1
   101    72    70   ar
   102    72    73    1
   103    80    79   ar
   104    83    81   ar
   105    19    20    2
   106     8     6   ar
   107    90    87    1
   108    90    91    1
   109   118   117   ar
   110    96    98   ar
   111    96    93   ar
   112    98    99   ar
   113    87    88    1
   114    87    86    1
   115    79    81   ar
   116    79    78    1
   117     6     5    1
   118     6     7   ar
   119    89    88    2
   120     5     2    1
   121   119   117   ar
   122    91    93   ar
   123    91    92   ar
   124   117   116    1
   125    93    95   ar
   126    86    76   am
   127    77    76    2
   128    99    97   ar
   129    78    75    1
   130    76    75    1
   131    92    94   ar
   132   164   162    1
   133    95    97   ar
   134    95    94   ar
   135     2     1    1
   136     2     3    1
   137     3     4    2
   138   116   115    1
   139   115   112    1
   140    75    74    1
   141   149   150    1
   142   149   146    1
   143   162   161    1
   144   156   155    1
   145   112   111    1
   146   112   113    1
   147   146   145    1
   148   146   147    1
   149   113   114    2
   150   155   152    1
   151   161   163    1
   152   161   158    1
   153   157   158    1
   154   157   153   am
   155   147   148    2
   156   158   159    1
   157   151   152    1
   158   152   153    1
   159   153   154    2
   160   159   160    2
