@<TRIPOS>MOLECULE
tmp/6fhqA00.pdb
 91 89 0 0 0
SMALL
GASTEIGER

@<TRIPOS>ATOM
      1  N         19.6930   13.6000    7.4410 N.3    18  GLU18      -0.1231
      2  CA        19.1970   12.3760    8.0090 C.3    18  GLU18       0.1699
      3  C         19.0720   11.2070    7.0270 C.2    18  GLU18       0.2592
      4  O         19.1500   10.0570    7.4430 O.2    18  GLU18      -0.2718
      5  CB        17.8240   12.6750    8.6650 C.3    18  GLU18       0.0402
      6  CG        17.9990   13.5480    9.9200 C.3    18  GLU18       0.1161
      7  CD        16.9940   14.7070   10.0340 C.2    18  GLU18       0.3649
      8  OE1       16.0170   14.7630    9.2430 O.co2  18  GLU18      -0.2457
      9  OE2       17.1740   15.5680   10.9330 O.co2  18  GLU18      -0.2457
     10  N         18.8770   11.5320    5.7560 N.am   19  GLU19      -0.1979
     11  CA        18.9050   10.5910    4.6260 C.3    19  GLU19       0.1602
     12  C         20.2790    9.9100    4.4220 C.2    19  GLU19       0.2287
     13  O         20.4070    8.9540    3.6510 O.2    19  GLU19      -0.2864
     14  CB        18.5050   11.3590    3.3580 C.3    19  GLU19       0.0415
     15  CG        18.7920   10.6710    2.0300 C.3    19  GLU19       0.1163
     16  CD        17.6540   10.8420    1.0370 C.2    19  GLU19       0.3649
     17  OE1       16.6090   10.1580    1.2060 O.co2  19  GLU19      -0.2457
     18  OE2       17.8080   11.6470    0.0900 O.co2  19  GLU19      -0.2457
     19  N         22.4110    9.6150    7.1870 N.3    21  LEU21      -0.1231
     20  CA        22.8690    9.3350    8.5020 C.3    21  LEU21       0.1693
     21  C         22.5000    7.8490    8.7980 C.2    21  LEU21       0.2592
     22  O         21.3410    7.5230    9.1120 O.2    21  LEU21      -0.2718
     23  CB        22.2350   10.3190    9.4670 C.3    21  LEU21       0.0284
     24  CG        22.5350   10.0890   10.9420 C.3    21  LEU21       0.0019
     25  CD1       24.0290   10.0980   11.2390 C.3    21  LEU21       0.0001
     26  CD2       21.7480   11.1100   11.8100 C.3    21  LEU21       0.0001
     27  N         23.4930    6.9670    8.6860 N.am   22  LEU22      -0.1966
     28  CA        23.1940    5.5630    8.6770 C.3    22  LEU22       0.1728
     29  C         23.0820    5.1520   10.1060 C.2    22  LEU22       0.2616
     30  O         23.9750    5.4530   10.8650 O.2    22  LEU22      -0.2715
     31  CB        24.2990    4.7360    8.0330 C.3    22  LEU22       0.0311
     32  CG        24.7060    5.1100    6.6440 C.3    22  LEU22       0.0022
     33  CD1       25.7760    4.1430    6.1350 C.3    22  LEU22       0.0001
     34  CD2       23.5070    5.1560    5.7100 C.3    22  LEU22       0.0001
     35  N         22.0680    4.3750   10.4260 N.am   23  LEU23      -0.1977
     36  CA        21.8040    3.9650   11.8120 C.3    23  LEU23       0.1596
     37  C         22.0580    2.5280   11.9450 C.2    23  LEU23       0.2287
     38  O         21.4330    1.7270   11.2220 O.2    23  LEU23      -0.2864
     39  CB        20.3410    4.1950   12.1340 C.3    23  LEU23       0.0297
     40  CG        19.8890    5.6540   11.9640 C.3    23  LEU23       0.0022
     41  CD1       18.4240    5.7340   12.4530 C.3    23  LEU23       0.0001
     42  CD2       20.8030    6.5600   12.7830 C.3    23  LEU23       0.0001
     43  N         21.7190   -1.0500   12.9610 N.3    25  ASP25      -0.1239
     44  CA        20.6790   -1.9220   13.5360 C.3    25  ASP25       0.1674
     45  C         21.2650   -2.7650   14.6540 C.2    25  ASP25       0.2266
     46  O         20.5220   -3.3570   15.4380 O.2    25  ASP25      -0.2867
     47  CB        20.1030   -2.8350   12.4730 C.3    25  ASP25       0.1410
     48  CG        19.2100   -2.0940   11.5080 C.2    25  ASP25       0.3668
     49  OD1       18.0880   -1.7420   11.9050 O.co2  25  ASP25      -0.2456
     50  OD2       19.6790   -1.7500   10.3980 O.co2  25  ASP25      -0.2456
     51  N         23.9950    4.1990   -0.6190 N.3    43  ILE43      -0.1231
     52  CA        23.0170    4.1980    0.5040 C.3    43  ILE43       0.1678
     53  C         22.4130    2.7860    0.7070 C.2    43  ILE43       0.2434
     54  O         21.8840    2.1800   -0.2470 O.2    43  ILE43      -0.2733
     55  CB        21.8960    5.2480    0.3500 C.3    43  ILE43       0.0265
     56  CG1       22.4760    6.6680    0.4120 C.3    43  ILE43       0.0019
     57  CG2       20.8820    5.1460    1.4880 C.3    43  ILE43       0.0020
     58  CD1       21.6700    7.6750   -0.4010 C.3    43  ILE43       0.0001
     59  N         22.5340    2.2350    1.9320 N.am   44  PRO44      -0.2729
     60  CA        22.1470    0.8390    2.0860 C.3    44  PRO44       0.1401
     61  C         20.6800    0.7160    1.7900 C.2    44  PRO44       0.2269
     62  O         19.8990    1.5810    2.1940 O.2    44  PRO44      -0.2865
     63  CB        22.4180    0.5330    3.5860 C.3    44  PRO44       0.0296
     64  CG        23.5170    1.4870    3.9520 C.3    44  PRO44       0.0237
     65  CD        23.2740    2.7410    3.1160 C.3    44  PRO44       0.0939
     66  N         18.7160   -1.8230    2.6970 N.3    46  GLY46      -0.1210
     67  CA        18.0280   -2.4980    3.7790 C.3    46  GLY46       0.1956
     68  C         18.5760   -2.0610    5.1350 C.2    46  GLY46       0.2612
     69  O         18.5950   -0.8790    5.5020 O.2    46  GLY46      -0.2717
     70  N         19.0830   -3.0070    5.8710 N.am   47  ASP47      -0.1959
     71  CA        19.6650   -2.6600    7.1610 C.3    47  ASP47       0.1840
     72  C         21.1540   -2.4510    7.0910 C.2    47  ASP47       0.2622
     73  O         21.7810   -2.8150    6.1370 O.2    47  ASP47      -0.2715
     74  CB        19.2930   -3.6820    8.1720 C.3    47  ASP47       0.1450
     75  CG        17.7880   -3.6510    8.4980 C.2    47  ASP47       0.3671
     76  OD1       17.1340   -2.5380    8.7260 O.co2  47  ASP47      -0.2456
     77  OD2       17.2880   -4.7590    8.6180 O.co2  47  ASP47      -0.2456
     78  N         21.6450   -1.7280    8.0790 N.am   48  TRP48      -0.1974
     79  CA        23.0290   -1.2780    8.1890 C.3    48  TRP48       0.1640
     80  C         23.5990   -1.7920    9.5100 C.2    48  TRP48       0.2290
     81  O         22.9570   -1.6480   10.5330 O.2    48  TRP48      -0.2864
     82  CB        23.0580    0.2330    8.2600 C.3    48  TRP48       0.0576
     83  CG        24.4060    0.7770    8.4450 C.ar   48  TRP48       0.0006
     84  CD1       24.8660    1.4880    9.5060 C.ar   48  TRP48       0.0946
     85  CD2       25.4900    0.5820    7.5900 C.ar   48  TRP48       0.0152
     86  NE1       26.1610    1.7830    9.3390 N.ar   48  TRP48      -0.2442
     87  CE2       26.5980    1.2020    8.1840 C.ar   48  TRP48       0.0810
     88  CE3       25.6610   -0.1170    6.4050 C.ar   48  TRP48       0.0012
     89  CZ2       27.8320    1.2470    7.5790 C.ar   48  TRP48       0.0191
     90  CZ3       26.8950   -0.1000    5.8070 C.ar   48  TRP48       0.0001
     91  CH2       27.9780    0.5910    6.3930 C.ar   48  TRP48       0.0015
@<TRIPOS>BOND
     1    51    52    1
     2    58    56    1
     3    54    53    2
     4    18    16   ar
     5    55    56    1
     6    55    52    1
     7    55    57    1
     8    52    53    1
     9    53    59   am
    10    16    17   ar
    11    16    15    1
    12    61    60    1
    13    61    62    2
    14    59    60    1
    15    59    65    1
    16    15    14    1
    17    60    63    1
    18    66    67    1
    19    65    64    1
    20    14    11    1
    21    63    64    1
    22    13    12    2
    23    67    68    1
    24    12    11    1
    25    11    10    1
    26    68    69    2
    27    68    70   am
    28    34    32    1
    29    10     3   am
    30    90    91   ar
    31    90    88   ar
    32    70    71    1
    33    33    32    1
    34    73    72    2
    35    91    89   ar
    36    88    85   ar
    37    32    31    1
    38     3     4    2
    39     3     2    1
    40    72    71    1
    41    72    78   am
    42    71    74    1
    43    19    20    1
    44     1     2    1
    45    89    87   ar
    46    85    87   ar
    47    85    83   ar
    48     2     5    1
    49    31    28    1
    50    78    79    1
    51    74    75    1
    52    87    86   ar
    53    79    82    1
    54    79    80    1
    55    82    83    1
    56    83    84   ar
    57    75    77   ar
    58    75    76   ar
    59    20    21    1
    60    20    23    1
    61     5     6    1
    62    28    27    1
    63    28    29    1
    64    27    21   am
    65    21    22    2
    66     8     7   ar
    67    86    84   ar
    68    23    24    1
    69    80    81    2
    70     6     7    1
    71     7     9   ar
    72    29    35   am
    73    29    30    2
    74    50    48   ar
    75    35    36    1
    76    24    25    1
    77    24    26    1
    78    38    37    2
    79    48    49   ar
    80    48    47    1
    81    36    37    1
    82    36    39    1
    83    40    39    1
    84    40    41    1
    85    40    42    1
    86    47    44    1
    87    43    44    1
    88    44    45    1
    89    45    46    2
