@<TRIPOS>MOLECULE
tmp/6fhsC00.pdb
 194 187 0 0 0
SMALL
GASTEIGER

@<TRIPOS>ATOM
      1  N        179.4180  193.2790   95.9150 N.3    15  ALA15      -0.1231
      2  CA       180.0590  192.4170   94.9320 C.3    15  ALA15       0.1694
      3  C        179.0850  191.4400   94.2920 C.2    15  ALA15       0.2592
      4  O        179.3670  190.9270   93.2050 O.2    15  ALA15      -0.2718
      5  CB       181.2140  191.6520   95.5750 C.3    15  ALA15       0.0304
      6  N        177.9530  191.1770   94.9320 N.am   16  HIS16      -0.1976
      7  CA       176.9310  190.2860   94.4040 C.3    16  HIS16       0.1656
      8  C        175.6040  191.0120   94.2350 C.2    16  HIS16       0.2291
      9  O        174.5400  190.4900   94.5680 O.2    16  HIS16      -0.2864
     10  CB       176.7660  189.0620   95.2950 C.3    16  HIS16       0.0771
     11  CG       177.9270  188.1240   95.2450 C.ar   16  HIS16       0.0820
     12  ND1      178.9760  188.1770   96.1360 N.ar   16  HIS16      -0.2267
     13  CD2      178.2160  187.1230   94.3830 C.ar   16  HIS16       0.1154
     14  CE1      179.8490  187.2310   95.8380 C.ar   16  HIS16       0.1986
     15  NE2      179.4110  186.5770   94.7790 N.ar   16  HIS16      -0.2212
     16  N        174.4360  192.2090   91.1680 N.3    18  HIS18      -0.1226
     17  CA       173.8280  191.8420   89.8950 C.3    18  HIS18       0.1752
     18  C        173.1730  190.4700   89.9180 C.2    18  HIS18       0.2595
     19  O        172.3580  190.1790   89.0370 O.2    18  HIS18      -0.2718
     20  CB       174.8770  191.8770   88.7900 C.3    18  HIS18       0.0759
     21  CG       175.9950  190.9070   88.9950 C.ar   18  HIS18       0.0818
     22  ND1      177.0850  191.1880   89.7880 N.ar   18  HIS18      -0.2268
     23  CD2      176.1850  189.6530   88.5230 C.ar   18  HIS18       0.1154
     24  CE1      177.9050  190.1530   89.7860 C.ar   18  HIS18       0.1986
     25  NE2      177.3810  189.2080   89.0280 N.ar   18  HIS18      -0.2212
     26  N        173.5200  189.6210   90.8820 N.am   19  ILE19      -0.1980
     27  CA       172.9050  188.3040   90.9940 C.3    19  ILE19       0.1595
     28  C        171.4590  188.4710   91.4360 C.2    19  ILE19       0.2287
     29  O        171.1800  189.1070   92.4570 O.2    19  ILE19      -0.2864
     30  CB       173.6850  187.4220   91.9730 C.3    19  ILE19       0.0276
     31  CG1      175.1230  187.2500   91.4930 C.3    19  ILE19       0.0022
     32  CG2      173.0100  186.0810   92.1240 C.3    19  ILE19       0.0022
     33  CD1      175.2370  186.5810   90.1560 C.3    19  ILE19       0.0001
     34  N        171.8970  187.5310   85.7330 N.3    36  GLY36      -0.1210
     35  CA       173.1620  187.9210   86.3210 C.3    36  GLY36       0.1956
     36  C        174.3340  187.0250   85.9860 C.2    36  GLY36       0.2612
     37  O        175.4460  187.5150   85.7730 O.2    36  GLY36      -0.2717
     38  N        174.1080  185.7150   85.9500 N.am   37  PHE37      -0.1962
     39  CA       175.1830  184.7800   85.6630 C.3    37  PHE37       0.1771
     40  C        175.6010  184.8510   84.1990 C.2    37  PHE37       0.2619
     41  O        174.8500  185.2900   83.3280 O.2    37  PHE37      -0.2715
     42  CB       174.7590  183.3550   86.0020 C.3    37  PHE37       0.0574
     43  CG       174.7630  183.0520   87.4650 C.ar   37  PHE37      -0.0200
     44  CD1      175.9080  182.5900   88.0800 C.ar   37  PHE37      -0.0042
     45  CD2      173.6300  183.2350   88.2260 C.ar   37  PHE37      -0.0042
     46  CE1      175.9230  182.3050   89.4220 C.ar   37  PHE37      -0.0003
     47  CE2      173.6390  182.9530   89.5740 C.ar   37  PHE37      -0.0003
     48  CZ       174.7880  182.4870   90.1710 C.ar   37  PHE37      -0.0000
     49  N        176.8350  184.4280   83.9430 N.am   38  VAL38      -0.1977
     50  CA       177.3450  184.2080   82.5970 C.3    38  VAL38       0.1596
     51  C        177.9470  182.8150   82.5670 C.2    38  VAL38       0.2287
     52  O        178.9410  182.5540   83.2550 O.2    38  VAL38      -0.2864
     53  CB       178.3980  185.2450   82.1810 C.3    38  VAL38       0.0276
     54  CG1      179.0040  184.8540   80.8510 C.3    38  VAL38       0.0022
     55  CG2      177.7840  186.6170   82.0750 C.3    38  VAL38       0.0022
     56  N        178.5050  178.9400   83.3590 N.3    40  GLN40      -0.1245
     57  CA       178.4820  178.1130   84.5700 C.3    40  GLN40       0.1566
     58  C        177.2240  177.2390   84.5920 C.2    40  GLN40       0.2260
     59  O        176.3430  177.3780   85.4390 O.2    40  GLN40      -0.2867
     60  CB       178.6030  178.9830   85.8290 C.3    40  GLN40       0.0367
     61  CG       179.0390  178.2480   87.0740 C.3    40  GLN40       0.0905
     62  CD       180.4680  177.7730   86.9710 C.2    40  GLN40       0.2608
     63  OE1      180.7300  176.5920   86.7640 O.2    40  GLN40      -0.2717
     64  NE2      181.4060  178.6990   87.1080 N.am   40  GLN40      -0.0878
     65  N        188.1440  176.7340   92.4710 N.3    69  GLY69      -0.1210
     66  CA       189.1530  177.6650   92.9130 C.3    69  GLY69       0.1940
     67  C        188.5730  178.9860   93.3590 C.2    69  GLY69       0.2454
     68  O        187.3600  179.2220   93.3150 O.2    69  GLY69      -0.2732
     69  N        189.4550  179.8810   93.8060 N.am   70  PRO70      -0.2717
     70  CA       188.9900  181.1830   94.2910 C.3    70  PRO70       0.1536
     71  C        188.5820  182.0870   93.1420 C.2    70  PRO70       0.2599
     72  O        189.2120  182.1040   92.0830 O.2    70  PRO70      -0.2715
     73  CB       190.2090  181.7380   95.0320 C.3    70  PRO70       0.0310
     74  CG       191.3600  181.1140   94.3520 C.3    70  PRO70       0.0237
     75  CD       190.9130  179.7370   93.9460 C.3    70  PRO70       0.0939
     76  N        187.5100  182.8370   93.3590 N.am   71  GLY71      -0.1941
     77  CA       187.0230  183.7400   92.3370 C.3    71  GLY71       0.2014
     78  C        186.3500  183.0510   91.1740 C.2    71  GLY71       0.2640
     79  O        186.5590  183.4430   90.0220 O.2    71  GLY71      -0.2714
     80  N        185.5550  182.0130   91.4410 N.am   72  THR72      -0.1936
     81  CA       184.8320  181.3110   90.3920 C.3    72  THR72       0.2028
     82  C        183.3290  181.2350   90.6140 C.2    72  THR72       0.2643
     83  O        182.6150  180.8620   89.6790 O.2    72  THR72      -0.2714
     84  CB       185.3700  179.8850   90.2160 C.3    72  THR72       0.1808
     85  OG1      185.2550  179.1770   91.4520 O.3    72  THR72      -0.2208
     86  CG2      186.8170  179.8910   89.7670 C.3    72  THR72       0.0379
     87  N        182.8240  181.5580   91.8020 N.am   73  GLY73      -0.1939
     88  CA       181.3960  181.7630   91.9480 C.3    73  GLY73       0.2014
     89  C        180.6550  180.9200   92.9620 C.2    73  GLY73       0.2639
     90  O        179.4550  180.6960   92.8020 O.2    73  GLY73      -0.2714
     91  N        181.3370  180.4490   94.0060 N.am   74  LYS74      -0.1963
     92  CA       180.6730  179.6270   95.0140 C.3    74  LYS74       0.1728
     93  C        179.7180  180.4580   95.8640 C.2    74  LYS74       0.2617
     94  O        178.5500  180.0890   96.0500 O.2    74  LYS74      -0.2715
     95  CB       181.7170  178.9480   95.8910 C.3    74  LYS74       0.0311
     96  CG       182.6510  178.0500   95.1270 C.3    74  LYS74       0.0038
     97  CD       183.6730  177.4420   96.0450 C.3    74  LYS74       0.0206
     98  CE       184.6140  178.5060   96.5430 C.3    74  LYS74       0.1093
     99  NZ       185.3840  179.0820   95.4210 N.3    74  LYS74      -0.1314
    100  N        180.1960  181.5950   96.3790 N.am   75  THR75      -0.1937
    101  CA       179.3300  182.4940   97.1340 C.3    75  THR75       0.2028
    102  C        178.2640  183.1210   96.2460 C.2    75  THR75       0.2642
    103  O        177.1770  183.4590   96.7310 O.2    75  THR75      -0.2714
    104  CB       180.1560  183.5860   97.8030 C.3    75  THR75       0.1808
    105  OG1      180.8010  184.3750   96.7990 O.3    75  THR75      -0.2208
    106  CG2      181.2130  182.9760   98.6990 C.3    75  THR75       0.0379
    107  N        178.5500  183.2640   94.9470 N.am   76  ALA76      -0.1977
    108  CA       177.5400  183.7270   94.0050 C.3    76  ALA76       0.1597
    109  C        176.4040  182.7260   93.8760 C.2    76  ALA76       0.2287
    110  O        175.2310  183.1140   93.8730 O.2    76  ALA76      -0.2864
    111  CB       178.1770  183.9930   92.6440 C.3    76  ALA76       0.0319
    112  N        183.7830  179.0080  103.6390 N.3   301  GLU301     -0.1245
    113  CA       185.1660  178.6730  103.9860 C.3   301  GLU301      0.1567
    114  C        185.2240  177.4550  104.9040 C.2   301  GLU301      0.2260
    115  O        185.6520  177.5260  106.0550 O.2   301  GLU301     -0.2867
    116  CB       185.8890  179.8700  104.6070 C.3   301  GLU301      0.0388
    117  CG       186.0800  181.0250  103.6520 C.3   301  GLU301      0.1160
    118  CD       187.0290  180.6940  102.5160 C.2   301  GLU301      0.3649
    119  OE1      187.9770  179.9140  102.7400 O.co2 301  GLU301     -0.2457
    120  OE2      186.8260  181.2120  101.3980 O.co2 301  GLU301     -0.2457
    121  N        187.6310  175.8250   98.8100 N.3   330  ASN330     -0.1240
    122  CA       188.4380  176.2340   97.6710 C.3   330  ASN330      0.1653
    123  C        189.8880  175.8290   97.8540 C.2   330  ASN330      0.2266
    124  O        190.8070  176.5860   97.5320 O.2   330  ASN330     -0.2867
    125  CB       188.3220  177.7360   97.4280 C.3   330  ASN330      0.1155
    126  CG       188.6290  178.5630   98.6660 C.2   330  ASN330      0.2627
    127  OD1      188.9460  178.0340   99.7290 O.2   330  ASN330     -0.2716
    128  ND2      188.5400  179.8770   98.5250 N.am  330  ASN330     -0.0877
    129  N        186.6230  180.3450   84.1700 N.3   364  TYR364     -0.1241
    130  CA       185.8470  181.0360   83.1530 C.3   364  TYR364      0.1605
    131  C        186.6250  181.1650   81.8530 C.2   364  TYR364      0.2264
    132  O        187.8450  181.3440   81.8570 O.2   364  TYR364     -0.2867
    133  CB       185.4170  182.4140   83.6460 C.3   364  TYR364      0.0534
    134  CG       184.3720  182.3330   84.7230 C.ar  364  TYR364     -0.0201
    135  CD1      183.0450  182.1080   84.4030 C.ar  364  TYR364     -0.0009
    136  CD2      184.7130  182.4620   86.0570 C.ar  364  TYR364     -0.0009
    137  CE1      182.0840  182.0230   85.3790 C.ar  364  TYR364      0.0417
    138  CE2      183.7570  182.3800   87.0420 C.ar  364  TYR364      0.0417
    139  CZ       182.4440  182.1600   86.6960 C.ar  364  TYR364      0.1957
    140  OH       181.4860  182.0730   87.6730 O.3   364  TYR364     -0.2866
    141  N        180.7240  189.2680   81.8530 N.3   372  ILE372     -0.1245
    142  CA       180.6180  189.6240   83.2660 C.3   372  ILE372      0.1561
    143  C        180.9650  191.0980   83.4750 C.2   372  ILE372      0.2260
    144  O        180.3370  191.7860   84.2880 O.2   372  ILE372     -0.2867
    145  CB       181.5040  188.6920   84.1130 C.3   372  ILE372      0.0252
    146  CG1      181.0350  187.2500   83.9740 C.3   372  ILE372      0.0019
    147  CG2      181.4660  189.0640   85.5790 C.3   372  ILE372      0.0019
    148  CD1      181.9810  186.2490   84.5820 C.3   372  ILE372      0.0001
    149  N        177.8720  193.1240   82.3420 N.3   375  ILE375     -0.1231
    150  CA       176.7890  193.0640   83.3250 C.3   375  ILE375      0.1692
    151  C        177.1390  193.8630   84.5780 C.2   375  ILE375      0.2591
    152  O        176.3000  194.6020   85.1130 O.2   375  ILE375     -0.2718
    153  CB       176.4380  191.5990   83.6410 C.3   375  ILE375      0.0266
    154  CG1      175.7580  190.9640   82.4300 C.3   375  ILE375      0.0019
    155  CG2      175.5460  191.4790   84.8610 C.3   375  ILE375      0.0020
    156  CD1      175.4930  189.4970   82.5780 C.3   375  ILE375      0.0001
    157  N        178.3910  193.7750   85.0350 N.am  376  ARG376     -0.1980
    158  CA       178.8270  194.5440   86.1960 C.3   376  ARG376      0.1597
    159  C        178.8530  196.0410   85.9070 C.2   376  ARG376      0.2287
    160  O        178.5600  196.8490   86.7950 O.2   376  ARG376     -0.2864
    161  CB       180.2060  194.0600   86.6400 C.3   376  ARG376      0.0334
    162  CG       180.7360  194.7090   87.8950 C.3   376  ARG376      0.0492
    163  CD       179.9900  194.2320   89.1160 C.3   376  ARG376      0.2205
    164  NE       180.4710  194.8990   90.3170 N.pl3 376  ARG376     -0.0865
    165  CZ       179.9320  194.7480   91.5190 C.cat 376  ARG376      0.5346
    166  NH1      178.9010  193.9350   91.6830 N.pl3 376  ARG376      0.1354
    167  NH2      180.4300  195.3990   92.5590 N.pl3 376  ARG376      0.1354
    168  N        190.0960  187.6640   87.9030 N.3   401  LEU401     -0.1231
    169  CA       188.7000  188.0200   87.6710 C.3   401  LEU401      0.1693
    170  C        188.2510  189.1400   88.5970 C.2   401  LEU401      0.2591
    171  O        187.5730  190.0770   88.1650 O.2   401  LEU401     -0.2718
    172  CB       187.7990  186.7980   87.8450 C.3   401  LEU401      0.0284
    173  CG       186.3050  187.0780   87.6700 C.3   401  LEU401      0.0019
    174  CD1      186.0080  187.6120   86.2850 C.3   401  LEU401      0.0001
    175  CD2      185.4930  185.8340   87.9390 C.3   401  LEU401      0.0001
    176  N        188.6240  189.0670   89.8760 N.am  402  ARG402     -0.1980
    177  CA       188.2380  190.0930   90.8360 C.3   402  ARG402      0.1597
    178  C        188.9250  191.4260   90.5890 C.2   402  ARG402      0.2287
    179  O        188.4840  192.4380   91.1390 O.2   402  ARG402     -0.2864
    180  CB       188.5420  189.6290   92.2580 C.3   402  ARG402      0.0334
    181  CG       187.6340  188.5370   92.7750 C.3   402  ARG402      0.0492
    182  CD       188.0810  188.0810   94.1490 C.3   402  ARG402      0.2205
    183  NE       187.2190  187.0430   94.6980 N.pl3 402  ARG402     -0.0865
    184  CZ       187.4560  186.4030   95.8390 C.cat 402  ARG402      0.5346
    185  NH1      188.5390  186.6830   96.5470 N.pl3 402  ARG402      0.1354
    186  NH2      186.6140  185.4760   96.2680 N.pl3 402  ARG402      0.1354
    187  N        186.9370  193.5810   87.7540 N.3   405  LEU405     -0.1245
    188  CA       185.7090  194.1510   88.2840 C.3   405  LEU405      0.1561
    189  C        185.9770  195.2780   89.2700 C.2   405  LEU405      0.2260
    190  O        185.0270  195.8210   89.8430 O.2   405  LEU405     -0.2867
    191  CB       184.8650  193.0690   88.9620 C.3   405  LEU405      0.0270
    192  CG       184.3960  191.9240   88.0660 C.3   405  LEU405      0.0019
    193  CD1      183.5940  190.9130   88.8660 C.3   405  LEU405      0.0001
    194  CD2      183.5960  192.4410   86.8920 C.3   405  LEU405      0.0001
@<TRIPOS>BOND
     1    54    53    1
     2   141   142    1
     3   131   132    2
     4   131   130    1
     5    55    53    1
     6    53    50    1
     7   149   150    1
     8   154   156    1
     9   154   153    1
    10    51    50    1
    11    51    52    2
    12    50    49    1
    13   130   133    1
    14   130   129    1
    15   142   143    1
    16   142   145    1
    17   150   153    1
    18   150   151    1
    19    41    40    2
    20    56    57    1
    21   143   144    2
    22   153   155    1
    23   133   134    1
    24    49    40   am
    25   146   145    1
    26   146   148    1
    27   145   147    1
    28    40    39    1
    29   135   134   ar
    30   135   137   ar
    31    57    58    1
    32    57    60    1
    33   151   157   am
    34   151   152    2
    35    58    59    2
    36   134   136   ar
    37   157   158    1
    38   137   139   ar
    39    39    38    1
    40    39    42    1
    41    34    35    1
    42    37    36    2
    43    60    61    1
    44   159   158    1
    45   159   160    2
    46    38    36   am
    47    36    35    1
    48    42    43    1
    49   136   138   ar
    50   158   161    1
    51   174   173    1
    52   161   162    1
    53   139   138   ar
    54   139   140    1
    55    63    62    2
    56   194   192    1
    57    62    61    1
    58    62    64   am
    59    43    44   ar
    60    43    45   ar
    61   173   172    1
    62   173   175    1
    63   169   172    1
    64   169   168    1
    65   169   170    1
    66   187   188    1
    67   162   163    1
    68   192   193    1
    69   192   191    1
    70    44    46   ar
    71   171   170    2
    72    45    47   ar
    73   188   191    1
    74   188   189    1
    75    23    21   ar
    76    23    25   ar
    77   170   176   am
    78    20    21    1
    79    20    17    1
    80    21    22   ar
    81    25    24   ar
    82    19    18    2
    83   163   164    1
    84   189   190    2
    85    46    48   ar
    86    47    48   ar
    87    83    82    2
    88    86    84    1
    89    24    22   ar
    90   176   177    1
    91    17    18    1
    92    17    16    1
    93    18    26   am
    94    79    78    2
    95    33    31    1
    96    84    81    1
    97    84    85    1
    98   164   165    2
    99    81    82    1
   100    81    80    1
   101   178   177    1
   102   178   179    2
   103    82    87   am
   104   177   180    1
   105    26    27    1
   106    27    28    1
   107    27    30    1
   108    78    80   am
   109    78    77    1
   110    28    29    2
   111    31    30    1
   112   165   166    1
   113   165   167    1
   114    87    88    1
   115    88    89    1
   116    30    32    1
   117    72    71    2
   118   180   181    1
   119    77    76    1
   120    65    66    1
   121   111   108    1
   122   181   182    1
   123    90    89    2
   124    66    67    1
   125    89    91   am
   126    71    76   am
   127    71    70    1
   128     4     3    2
   129    68    67    2
   130    67    69   am
   131    69    75    1
   132    69    70    1
   133   110   109    2
   134   109   108    1
   135    75    74    1
   136   108   107    1
   137    91    92    1
   138   182   183    1
   139     8     7    1
   140     8     9    2
   141    70    73    1
   142     3     6   am
   143     3     2    1
   144    74    73    1
   145    13    15   ar
   146    13    11   ar
   147     7     6    1
   148     7    10    1
   149   183   184    2
   150    15    14   ar
   151     2     5    1
   152     2     1    1
   153   107   102   am
   154    92    93    1
   155    92    95    1
   156    96    95    1
   157    96    97    1
   158    11    10    1
   159    11    12   ar
   160    99    98    1
   161    14    12   ar
   162   184   186    1
   163   184   185    1
   164    93    94    2
   165    93   100   am
   166    97    98    1
   167   102   103    2
   168   102   101    1
   169   100   101    1
   170   105   104    1
   171   101   104    1
   172   125   122    1
   173   125   126    1
   174   124   123    2
   175   122   123    1
   176   122   121    1
   177   104   106    1
   178   128   126   am
   179   126   127    2
   180   120   118   ar
   181   118   119   ar
   182   118   117    1
   183   112   113    1
   184   117   116    1
   185   113   116    1
   186   113   114    1
   187   114   115    2
