@<TRIPOS>MOLECULE
tmp/6fhtA01.pdb
 86 82 0 0 0
SMALL
GASTEIGER

@<TRIPOS>ATOM
      1  N          7.8840  -55.7230   36.4760 N.3   164  GLN164     -0.1245
      2  CA         6.6770  -54.9060   36.4300 C.3   164  GLN164      0.1566
      3  C          5.9110  -55.1380   35.1330 C.2   164  GLN164      0.2260
      4  O          4.7030  -55.3900   35.1490 O.2   164  GLN164     -0.2867
      5  CB         7.0540  -53.4340   36.5680 C.3   164  GLN164      0.0367
      6  CG         5.9430  -52.5680   37.0080 C.3   164  GLN164      0.0905
      7  CD         5.5140  -52.9170   38.4050 C.2   164  GLN164      0.2608
      8  OE1        6.3310  -53.3650   39.2270 O.2   164  GLN164     -0.2717
      9  NE2        4.2230  -52.7360   38.6880 N.am  164  GLN164     -0.0878
     10  N          4.4280  -58.8030   34.7710 N.3   167  ARG167     -0.1231
     11  CA         3.2210  -58.9170   35.5850 C.3   167  ARG167      0.1694
     12  C          2.0330  -58.1750   34.9590 C.2   167  ARG167      0.2592
     13  O          0.9130  -58.7050   34.9410 O.2   167  ARG167     -0.2718
     14  CB         3.4920  -58.4180   36.9980 C.3   167  ARG167      0.0321
     15  CG         2.2890  -58.5450   37.8860 C.3   167  ARG167      0.0489
     16  CD         2.6470  -58.8540   39.3370 C.3   167  ARG167      0.2205
     17  NE         1.4340  -59.2710   40.0260 N.pl3 167  ARG167     -0.0865
     18  CZ         0.6330  -58.4320   40.6740 C.cat 167  ARG167      0.5346
     19  NH1        0.9590  -57.1420   40.7510 N.pl3 167  ARG167      0.1354
     20  NH2       -0.4770  -58.8790   41.2500 N.pl3 167  ARG167      0.1354
     21  N          2.2470  -56.9650   34.4180 N.am  168  GLU168     -0.1966
     22  CA         1.1390  -56.2590   33.7520 C.3   168  GLU168      0.1733
     23  C          0.6730  -56.9990   32.4970 C.2   168  GLU168      0.2616
     24  O         -0.5200  -57.0120   32.1870 O.2   168  GLU168     -0.2715
     25  CB         1.5280  -54.8240   33.3920 C.3   168  GLU168      0.0429
     26  CG         1.3020  -53.8150   34.5140 C.3   168  GLU168      0.1163
     27  CD         2.1880  -52.5650   34.3970 C.2   168  GLU168      0.3649
     28  OE1        2.5400  -52.1810   33.2560 O.co2 168  GLU168     -0.2457
     29  OE2        2.5380  -51.9710   35.4490 O.co2 168  GLU168     -0.2457
     30  N          1.5990  -57.6140   31.7570 N.am  169  LEU169     -0.1963
     31  CA         1.2090  -58.2910   30.5270 C.3   169  LEU169      0.1728
     32  C          0.4280  -59.5640   30.8040 C.2   169  LEU169      0.2617
     33  O         -0.4750  -59.9090   30.0300 O.2   169  LEU169     -0.2715
     34  CB         2.4430  -58.6210   29.6920 C.3   169  LEU169      0.0311
     35  CG         3.1000  -57.3770   29.1030 C.3   169  LEU169      0.0022
     36  CD1        4.3980  -57.6980   28.3550 C.3   169  LEU169      0.0001
     37  CD2        2.0680  -56.7440   28.1880 C.3   169  LEU169      0.0001
     38  N          0.7460  -60.2530   31.9070 N.am  170  THR170     -0.1937
     39  CA         0.3120  -61.6200   32.1700 C.3   170  THR170      0.2028
     40  C         -0.7090  -61.7350   33.2840 C.2   170  THR170      0.2642
     41  O         -1.5530  -62.6280   33.2340 O.2   170  THR170     -0.2714
     42  CB         1.5110  -62.5130   32.5330 C.3   170  THR170      0.1808
     43  OG1        2.0670  -62.0910   33.7840 O.3   170  THR170     -0.2208
     44  CG2        2.5780  -62.4320   31.4910 C.3   170  THR170      0.0379
     45  N         -0.6770  -60.8490   34.2670 N.am  171  GLY171     -0.1954
     46  CA        -1.5290  -61.0100   35.4190 C.3   171  GLY171      0.1869
     47  C         -0.9840  -61.9440   36.4870 C.2   171  GLY171      0.2309
     48  O         -1.6380  -62.1050   37.5280 O.2   171  GLY171     -0.2863
     49  N          0.5070  -63.6190   39.6400 N.3   173  ASP173     -0.1239
     50  CA         0.5280  -63.1860   41.0220 C.3   173  ASP173      0.1674
     51  C          1.9400  -62.8700   41.5000 C.2   173  ASP173      0.2266
     52  O          2.1080  -62.0950   42.4490 O.2   173  ASP173     -0.2867
     53  CB        -0.1200  -64.2550   41.9130 C.3   173  ASP173      0.1410
     54  CG        -1.6510  -64.3870   41.7010 C.2   173  ASP173      0.3668
     55  OD1       -2.3210  -63.3980   41.2920 O.co2 173  ASP173     -0.2456
     56  OD2       -2.1920  -65.4900   41.9770 O.co2 173  ASP173     -0.2456
     57  N          1.6440  -68.2790   39.6840 N.3   293  HIS293     -0.1241
     58  CA         0.2460  -67.9620   39.9370 C.3   293  HIS293      0.1621
     59  C         -0.2310  -68.8850   41.0500 C.2   293  HIS293      0.2264
     60  O          0.1920  -70.0460   41.1120 O.2   293  HIS293     -0.2867
     61  CB        -0.6080  -68.1150   38.6590 C.3   293  HIS293      0.0745
     62  CG        -1.6750  -67.0760   38.5180 C.ar  293  HIS293      0.0817
     63  ND1       -1.4230  -65.7210   38.6340 N.ar  293  HIS293     -0.2268
     64  CD2       -3.0020  -67.1890   38.2650 C.ar  293  HIS293      0.1154
     65  CE1       -2.5510  -65.0470   38.4690 C.ar  293  HIS293      0.1986
     66  NE2       -3.5240  -65.9130   38.2400 N.ar  293  HIS293     -0.2212
     67  N         -3.2560  -71.7010   35.4210 N.3   297  TYR297     -0.1241
     68  CA        -3.2180  -70.6570   34.4050 C.3   297  TYR297      0.1605
     69  C         -2.5190  -71.2300   33.1790 C.2   297  TYR297      0.2264
     70  O         -1.3320  -71.5670   33.2390 O.2   297  TYR297     -0.2867
     71  CB        -2.4980  -69.4360   34.9600 C.3   297  TYR297      0.0534
     72  CG        -2.4610  -68.1930   34.0960 C.ar  297  TYR297     -0.0201
     73  CD1       -3.1820  -68.1070   32.9190 C.ar  297  TYR297     -0.0009
     74  CD2       -1.6630  -67.0990   34.4690 C.ar  297  TYR297     -0.0009
     75  CE1       -3.1390  -66.9530   32.1330 C.ar  297  TYR297      0.0417
     76  CE2       -1.6030  -65.9480   33.7010 C.ar  297  TYR297      0.0417
     77  CZ        -2.3390  -65.8850   32.5300 C.ar  297  TYR297      0.1957
     78  OH        -2.2560  -64.7650   31.7670 O.3   297  TYR297     -0.2866
     79  N          0.5880  -64.8520   23.9200 N.3   303  LEU303     -0.1245
     80  CA         1.0830  -64.0830   25.0330 C.3   303  LEU303      0.1561
     81  C          2.4390  -64.6140   25.4900 C.2   303  LEU303      0.2260
     82  O          3.3260  -63.8280   25.8370 O.2   303  LEU303     -0.2867
     83  CB         0.0310  -64.1110   26.1350 C.3   303  LEU303      0.0270
     84  CG         0.4920  -63.5230   27.4520 C.3   303  LEU303      0.0019
     85  CD1        0.9240  -62.0510   27.2610 C.3   303  LEU303      0.0001
     86  CD2       -0.5950  -63.7210   28.4810 C.3   303  LEU303      0.0001
@<TRIPOS>BOND
     1    79    80    1
     2    80    81    1
     3    80    83    1
     4    81    82    2
     5    83    84    1
     6    85    84    1
     7    84    86    1
     8    37    35    1
     9    36    35    1
    10    35    34    1
    11    34    31    1
    12    33    32    2
    13    31    32    1
    14    31    30    1
    15    32    38   am
    16    44    42    1
    17    30    23   am
    18    78    77    1
    19    38    39    1
    20    75    77   ar
    21    75    73   ar
    22    39    42    1
    23    39    40    1
    24    24    23    2
    25    23    22    1
    26    77    76   ar
    27    42    43    1
    28    73    72   ar
    29    69    70    2
    30    69    68    1
    31    41    40    2
    32    28    27   ar
    33    40    45   am
    34    25    22    1
    35    25    26    1
    36    76    74   ar
    37    22    21    1
    38    72    74   ar
    39    72    71    1
    40    45    46    1
    41    27    26    1
    42    27    29   ar
    43    68    71    1
    44    68    67    1
    45    21    12   am
    46    10    11    1
    47    13    12    2
    48    12    11    1
    49     3     4    2
    50     3     2    1
    51    46    47    1
    52    11    14    1
    53     2     1    1
    54     2     5    1
    55    47    48    2
    56     5     6    1
    57    14    15    1
    58     6     7    1
    59    15    16    1
    60    66    64   ar
    61    66    65   ar
    62    64    62   ar
    63     7     9   am
    64     7     8    2
    65    65    63   ar
    66    62    63   ar
    67    62    61    1
    68    61    58    1
    69    16    17    1
    70    49    50    1
    71    57    58    1
    72    58    59    1
    73    17    18    2
    74    18    19    1
    75    18    20    1
    76    50    51    1
    77    50    53    1
    78    59    60    2
    79    55    54   ar
    80    51    52    2
    81    54    53    1
    82    54    56   ar
