@<TRIPOS>MOLECULE
tmp/6fhuB00.pdb
 90 88 0 0 0
SMALL
GASTEIGER

@<TRIPOS>ATOM
      1  N         38.5770   29.9070   55.8220 N.3    13  ASP13      -0.1225
      2  CA        38.9720   28.5420   55.4300 C.3    13  ASP13       0.1805
      3  C         37.8750   27.4630   55.4500 C.2    13  ASP13       0.2597
      4  O         38.1020   26.3770   54.9320 O.2    13  ASP13      -0.2718
      5  CB        40.1920   28.0830   56.2100 C.3    13  ASP13       0.1424
      6  CG        39.8990   27.8130   57.6650 C.2    13  ASP13       0.3668
      7  OD1       38.9570   28.3880   58.2650 O.co2  13  ASP13      -0.2456
      8  OD2       40.6510   27.0110   58.2270 O.co2  13  ASP13      -0.2456
      9  N         36.6860   27.7730   55.9800 N.am   14  GLU14      -0.1979
     10  CA        35.5050   26.9130   55.7900 C.3    14  GLU14       0.1602
     11  C         35.0710   26.8570   54.2920 C.2    14  GLU14       0.2287
     12  O         34.3070   25.9410   53.8780 O.2    14  GLU14      -0.2864
     13  CB        34.3230   27.3990   56.6430 C.3    14  GLU14       0.0415
     14  CG        34.5150   27.3440   58.1590 C.3    14  GLU14       0.1163
     15  CD        34.4130   25.9410   58.7740 C.2    14  GLU14       0.3649
     16  OE1       34.0990   24.9610   58.0510 O.co2  14  GLU14      -0.2457
     17  OE2       34.6510   25.8150   60.0040 O.co2  14  GLU14      -0.2457
     18  N         37.5460   27.2010   51.8000 N.3    16  LEU16      -0.1231
     19  CA        38.8040   26.9870   51.1160 C.3    16  LEU16       0.1693
     20  C         38.9260   25.5140   50.7960 C.2    16  LEU16       0.2592
     21  O         39.3860   24.7330   51.6110 O.2    16  LEU16      -0.2718
     22  CB        39.9710   27.4830   51.9880 C.3    16  LEU16       0.0284
     23  CG        41.3860   27.4410   51.4190 C.3    16  LEU16       0.0019
     24  CD1       41.4790   28.2310   50.1160 C.3    16  LEU16       0.0001
     25  CD2       42.3520   28.0000   52.4460 C.3    16  LEU16       0.0001
     26  N         38.4980   25.1510   49.5940 N.am   17  LEU17      -0.1966
     27  CA        38.5400   23.7670   49.1190 C.3    17  LEU17       0.1728
     28  C         39.9950   23.3060   48.9240 C.2    17  LEU17       0.2616
     29  O         40.8210   24.0790   48.4320 O.2    17  LEU17      -0.2715
     30  CB        37.6790   23.6440   47.8610 C.3    17  LEU17       0.0311
     31  CG        37.7760   22.5490   46.8150 C.3    17  LEU17       0.0022
     32  CD1       37.2830   21.2010   47.3430 C.3    17  LEU17       0.0001
     33  CD2       36.9610   22.9730   45.5920 C.3    17  LEU17       0.0001
     34  N         40.3100   22.0930   49.3960 N.am   18  LEU18      -0.1977
     35  CA        41.6650   21.5250   49.3570 C.3    18  LEU18       0.1596
     36  C         41.8090   20.4450   48.2720 C.2    18  LEU18       0.2287
     37  O         40.9590   19.5470   48.1730 O.2    18  LEU18      -0.2864
     38  CB        42.0330   20.9120   50.7130 C.3    18  LEU18       0.0297
     39  CG        42.0390   21.8370   51.9360 C.3    18  LEU18       0.0022
     40  CD1       42.4230   21.0910   53.2160 C.3    18  LEU18       0.0001
     41  CD2       42.9800   23.0100   51.7120 C.3    18  LEU18       0.0001
     42  N         42.9260   17.1470   46.5040 N.3    20  ASP20      -0.1239
     43  CA        43.2530   15.8020   46.9770 C.3    20  ASP20       0.1674
     44  C         44.5790   15.2580   46.4210 C.2    20  ASP20       0.2266
     45  O         45.1990   14.3790   47.0330 O.2    20  ASP20      -0.2867
     46  CB        42.0980   14.8450   46.6790 C.3    20  ASP20       0.1410
     47  CG        40.9070   15.0800   47.5970 C.2    20  ASP20       0.3668
     48  OD1       41.0730   14.9450   48.8270 O.co2  20  ASP20      -0.2456
     49  OD2       39.8120   15.4030   47.1120 O.co2  20  ASP20      -0.2456
     50  N         30.8310   23.3530   48.6310 N.3    38  VAL38      -0.1231
     51  CA        31.9830   22.4680   48.6210 C.3    38  VAL38       0.1678
     52  C         31.5460   21.1280   48.0320 C.2    38  VAL38       0.2434
     53  O         30.5830   20.5450   48.5250 O.2    38  VAL38      -0.2733
     54  CB        32.5360   22.2820   50.0480 C.3    38  VAL38       0.0265
     55  CG1       33.6750   21.2680   50.0690 C.3    38  VAL38       0.0020
     56  CG2       33.0030   23.6360   50.6000 C.3    38  VAL38       0.0020
     57  N         32.2040   20.6600   46.9510 N.am   39  PRO39      -0.2718
     58  CA        31.7940   19.3720   46.3980 C.3    39  PRO39       0.1535
     59  C         32.1520   18.2040   47.3110 C.2    39  PRO39       0.2598
     60  O         33.1530   18.2680   48.0340 O.2    39  PRO39      -0.2715
     61  CB        32.5970   19.2490   45.0900 C.3    39  PRO39       0.0310
     62  CG        33.4400   20.4640   44.9790 C.3    39  PRO39       0.0237
     63  CD        33.4210   21.1710   46.2920 C.3    39  PRO39       0.0939
     64  N         31.3350   17.1580   47.2550 N.am   40  GLU40      -0.1964
     65  CA        31.5870   15.9370   47.9940 C.3    40  GLU40       0.1733
     66  C         32.5770   15.0640   47.2210 C.2    40  GLU40       0.2616
     67  O         32.7630   15.2400   46.0160 O.2    40  GLU40      -0.2715
     68  CB        30.2750   15.2030   48.2700 C.3    40  GLU40       0.0429
     69  CG        29.2910   16.0060   49.1280 C.3    40  GLU40       0.1163
     70  CD        27.9890   15.2650   49.3690 C.2    40  GLU40       0.3649
     71  OE1       28.0230   14.0370   49.6350 O.co2  40  GLU40      -0.2457
     72  OE2       26.9260   15.9040   49.2790 O.co2  40  GLU40      -0.2457
     73  N         33.2320   14.1560   47.9430 N.am   41  GLY41      -0.1955
     74  CA        34.2290   13.2470   47.3880 C.3    41  GLY41       0.1869
     75  C         35.5150   13.9220   46.9510 C.2    41  GLY41       0.2309
     76  O         35.8910   14.9500   47.4970 O.2    41  GLY41      -0.2863
     77  N         38.3040   16.0600   44.8500 N.3    43  TRP43      -0.1241
     78  CA        38.4450   17.2170   43.9300 C.3    43  TRP43       0.1605
     79  C         39.9350   17.4360   43.5830 C.2    43  TRP43       0.2264
     80  O         40.7830   17.4530   44.4840 O.2    43  TRP43      -0.2867
     81  CB        37.8290   18.4930   44.5260 C.3    43  TRP43       0.0550
     82  CG        38.0160   19.6870   43.6320 C.ar   43  TRP43       0.0003
     83  CD1       37.2890   20.0040   42.5110 C.ar   43  TRP43       0.0946
     84  CD2       39.0040   20.7190   43.7710 C.ar   43  TRP43       0.0152
     85  NE1       37.7700   21.1610   41.9440 N.ar   43  TRP43      -0.2442
     86  CE2       38.8220   21.6210   42.6950 C.ar   43  TRP43       0.0810
     87  CE3       40.0340   20.9640   44.6960 C.ar   43  TRP43       0.0012
     88  CZ2       39.6360   22.7580   42.5250 C.ar   43  TRP43       0.0191
     89  CZ3       40.8370   22.0900   44.5320 C.ar   43  TRP43       0.0001
     90  CH2       40.6330   22.9740   43.4540 C.ar   43  TRP43       0.0015
@<TRIPOS>BOND
     1    85    83   ar
     2    85    86   ar
     3    83    82   ar
     4    88    86   ar
     5    88    90   ar
     6    86    84   ar
     7    90    89   ar
     8    79    78    1
     9    79    80    2
    10    82    84   ar
    11    82    81    1
    12    84    87   ar
    13    78    81    1
    14    78    77    1
    15    89    87   ar
    16    62    61    1
    17    62    63    1
    18    61    58    1
    19    33    31    1
    20    67    66    2
    21    63    57    1
    22    58    57    1
    23    58    59    1
    24    44    43    1
    25    44    45    2
    26    42    43    1
    27    46    43    1
    28    46    47    1
    29    31    32    1
    30    31    30    1
    31    75    74    1
    32    75    76    2
    33    57    52   am
    34    49    47   ar
    35    66    73   am
    36    66    65    1
    37    64    59   am
    38    64    65    1
    39    59    60    2
    40    74    73    1
    41    47    48   ar
    42    30    27    1
    43    65    68    1
    44    52    53    2
    45    52    51    1
    46    37    36    2
    47    68    69    1
    48    36    35    1
    49    29    28    2
    50    51    50    1
    51    51    54    1
    52    28    27    1
    53    28    34   am
    54    27    26    1
    55    69    70    1
    56    72    70   ar
    57    35    34    1
    58    35    38    1
    59    70    71   ar
    60    26    20   am
    61    54    55    1
    62    54    56    1
    63    24    23    1
    64    38    39    1
    65    20    19    1
    66    20    21    2
    67    19    18    1
    68    19    22    1
    69    23    22    1
    70    23    25    1
    71    41    39    1
    72    39    40    1
    73    12    11    2
    74    11    10    1
    75     4     3    2
    76     2     3    1
    77     2     1    1
    78     2     5    1
    79     3     9   am
    80    10     9    1
    81    10    13    1
    82     5     6    1
    83    13    14    1
    84     6     8   ar
    85     6     7   ar
    86    16    15   ar
    87    14    15    1
    88    15    17   ar
