@<TRIPOS>MOLECULE
tmp/6fhuD00.pdb
 105 103 0 0 0
SMALL
GASTEIGER

@<TRIPOS>ATOM
      1  N         27.7860   24.3450   21.6030 N.3     2  VAL2       -0.1245
      2  CA        28.3100   24.4380   22.9620 C.3     2  VAL2        0.1561
      3  C         28.5500   25.9100   23.2900 C.2     2  VAL2        0.2260
      4  O         29.0360   26.6540   22.4590 O.2     2  VAL2       -0.2867
      5  CB        29.6050   23.6090   23.1480 C.3     2  VAL2        0.0252
      6  CG1       30.1660   23.7750   24.5490 C.3     2  VAL2        0.0019
      7  CG2       29.3370   22.1330   22.8850 C.3     2  VAL2        0.0019
      8  N         36.2050   27.5090   19.2230 N.3    13  ASP13      -0.1225
      9  CA        35.8320   26.2030   19.7810 C.3    13  ASP13       0.1805
     10  C         36.9740   25.1870   20.0050 C.2    13  ASP13       0.2597
     11  O         36.7990   24.2410   20.7800 O.2    13  ASP13      -0.2718
     12  CB        34.6640   25.5830   19.0100 C.3    13  ASP13       0.1424
     13  CG        35.0340   25.1750   17.6140 C.2    13  ASP13       0.3668
     14  OD1       35.4650   26.0520   16.8350 O.co2  13  ASP13      -0.2456
     15  OD2       34.8870   23.9810   17.2940 O.co2  13  ASP13      -0.2456
     16  N         38.1450   25.3930   19.4030 N.am   14  GLU14      -0.1979
     17  CA        39.3510   24.6220   19.8060 C.3    14  GLU14       0.1602
     18  C         39.7890   24.9120   21.2550 C.2    14  GLU14       0.2287
     19  O         40.5490   24.1370   21.8210 O.2    14  GLU14      -0.2864
     20  CB        40.5620   24.8750   18.8810 C.3    14  GLU14       0.0415
     21  CG        40.5740   24.0790   17.5770 C.3    14  GLU14       0.1163
     22  CD        39.5740   24.5900   16.5660 C.2    14  GLU14       0.3649
     23  OE1       39.1570   23.7820   15.7160 O.co2  14  GLU14      -0.2457
     24  OE2       39.1940   25.7870   16.6150 O.co2  14  GLU14      -0.2457
     25  N         37.3320   25.4870   23.6430 N.3    16  LEU16      -0.1231
     26  CA        36.0700   25.3060   24.3650 C.3    16  LEU16       0.1693
     27  C         35.8820   23.8630   24.8540 C.2    16  LEU16       0.2592
     28  O         35.6900   22.9430   24.0540 O.2    16  LEU16      -0.2718
     29  CB        34.9300   25.7030   23.4510 C.3    16  LEU16       0.0284
     30  CG        33.5190   25.7280   23.9850 C.3    16  LEU16       0.0019
     31  CD1       33.3670   26.6280   25.2040 C.3    16  LEU16       0.0001
     32  CD2       32.6120   26.2050   22.8540 C.3    16  LEU16       0.0001
     33  N         35.9640   23.6680   26.1690 N.am   17  LEU17      -0.1966
     34  CA        35.8290   22.3270   26.7690 C.3    17  LEU17       0.1728
     35  C         34.3790   21.9070   26.7360 C.2    17  LEU17       0.2616
     36  O         33.5060   22.7480   26.8950 O.2    17  LEU17      -0.2715
     37  CB        36.2990   22.3240   28.2220 C.3    17  LEU17       0.0311
     38  CG        37.7550   22.6840   28.4890 C.3    17  LEU17       0.0022
     39  CD1       37.9850   22.7330   29.9820 C.3    17  LEU17       0.0001
     40  CD2       38.6930   21.6740   27.8520 C.3    17  LEU17       0.0001
     41  N         34.1300   20.6180   26.5420 N.am   18  LEU18      -0.1977
     42  CA        32.7890   20.0610   26.6300 C.3    18  LEU18       0.1596
     43  C         32.7970   19.1510   27.8630 C.2    18  LEU18       0.2287
     44  O         33.6690   18.2880   28.0040 O.2    18  LEU18      -0.2864
     45  CB        32.4030   19.3130   25.3410 C.3    18  LEU18       0.0297
     46  CG        31.1090   18.4590   25.3980 C.3    18  LEU18       0.0022
     47  CD1       29.8900   19.2510   25.8950 C.3    18  LEU18       0.0001
     48  CD2       30.8060   17.7810   24.0620 C.3    18  LEU18       0.0001
     49  N         32.3660   16.2660   30.4120 N.3    20  ASP20      -0.1239
     50  CA        32.2180   14.8140   30.2850 C.3    20  ASP20       0.1674
     51  C         30.9760   14.2310   30.9790 C.2    20  ASP20       0.2266
     52  O         30.7330   13.0340   30.8750 O.2    20  ASP20      -0.2867
     53  CB        33.4980   14.1220   30.7570 C.3    20  ASP20       0.1410
     54  CG        34.6430   14.3200   29.7780 C.2    20  ASP20       0.3668
     55  OD1       34.4960   13.8220   28.6510 O.co2  20  ASP20      -0.2456
     56  OD2       35.6560   14.9910   30.1150 O.co2  20  ASP20      -0.2456
     57  N         44.2480   22.2690   27.0560 N.3    38  VAL38      -0.1231
     58  CA        43.1630   21.3130   27.2460 C.3    38  VAL38       0.1678
     59  C         43.7030   20.1200   28.0380 C.2    38  VAL38       0.2434
     60  O         44.6580   19.4910   27.6010 O.2    38  VAL38      -0.2733
     61  CB        42.5970   20.8150   25.9000 C.3    38  VAL38       0.0265
     62  CG1       41.5250   19.7480   26.1120 C.3    38  VAL38       0.0020
     63  CG2       42.0250   21.9810   25.1000 C.3    38  VAL38       0.0020
     64  N         43.1080   19.8080   29.2070 N.am   39  PRO39      -0.2718
     65  CA        43.6110   18.6600   29.9700 C.3    39  PRO39       0.1535
     66  C         43.4380   17.3200   29.2360 C.2    39  PRO39       0.2598
     67  O         42.5760   17.2030   28.3520 O.2    39  PRO39      -0.2715
     68  CB        42.7770   18.7010   31.2620 C.3    39  PRO39       0.0310
     69  CG        41.5480   19.4600   30.9180 C.3    39  PRO39       0.0237
     70  CD        41.9600   20.4550   29.8700 C.3    39  PRO39       0.0939
     71  N         44.2790   16.3410   29.5900 N.am   40  GLU40      -0.1964
     72  CA        44.2880   15.0180   28.9480 C.3    40  GLU40       0.1733
     73  C         43.1670   14.1130   29.4690 C.2    40  GLU40       0.2617
     74  O         42.5560   13.3740   28.6890 O.2    40  GLU40      -0.2715
     75  CB        45.6390   14.3110   29.1620 C.3    40  GLU40       0.0429
     76  CG        46.8770   15.1510   28.8260 C.3    40  GLU40       0.1163
     77  CD        46.9860   15.5340   27.3560 C.2    40  GLU40       0.3649
     78  OE1       46.5090   14.7800   26.4870 O.co2  40  GLU40      -0.2457
     79  OE2       47.5690   16.5910   27.0630 O.co2  40  GLU40      -0.2457
     80  N         42.9230   14.1540   30.7800 N.am   41  GLY41      -0.1940
     81  CA        41.8530   13.3700   31.4080 C.3    41  GLY41       0.2014
     82  C         40.5170   14.1010   31.3790 C.2    41  GLY41       0.2639
     83  O         40.3640   15.0910   30.6610 O.2    41  GLY41      -0.2714
     84  N         39.5560   13.6150   32.1610 N.am   42  ASP42      -0.1957
     85  CA        38.1780   14.1320   32.1140 C.3    42  ASP42       0.1840
     86  C         38.0630   15.4840   32.7810 C.2    42  ASP42       0.2622
     87  O         38.7850   15.7590   33.7360 O.2    42  ASP42      -0.2715
     88  CB        37.2020   13.1630   32.7850 C.3    42  ASP42       0.1450
     89  CG        37.0700   11.8280   32.0420 C.2    42  ASP42       0.3671
     90  OD1       37.6910   11.6670   30.9640 O.co2  42  ASP42      -0.2456
     91  OD2       36.3240   10.9440   32.5420 O.co2  42  ASP42      -0.2456
     92  N         37.1530   16.3170   32.2680 N.am   43  TRP43      -0.1974
     93  CA        36.8200   17.6120   32.8780 C.3    43  TRP43       0.1640
     94  C         35.3150   17.6760   33.1710 C.2    43  TRP43       0.2290
     95  O         34.4940   17.3670   32.3010 O.2    43  TRP43      -0.2864
     96  CB        37.2140   18.7970   31.9630 C.3    43  TRP43       0.0576
     97  CG        36.7710   20.1090   32.5620 C.ar   43  TRP43       0.0006
     98  CD1       37.3730   20.7740   33.5850 C.ar   43  TRP43       0.0946
     99  CD2       35.5890   20.8600   32.2290 C.ar   43  TRP43       0.0152
    100  NE1       36.6490   21.8990   33.9030 N.ar   43  TRP43      -0.2442
    101  CE2       35.5510   21.9760   33.0860 C.ar   43  TRP43       0.0810
    102  CE3       34.5650   20.6980   31.2880 C.ar   43  TRP43       0.0012
    103  CZ2       34.5300   22.9390   33.0270 C.ar   43  TRP43       0.0191
    104  CZ3       33.5440   21.6600   31.2230 C.ar   43  TRP43       0.0001
    105  CH2       33.5360   22.7610   32.0880 C.ar   43  TRP43       0.0015
@<TRIPOS>BOND
     1    23    22   ar
     2    22    24   ar
     3    22    21    1
     4    14    13   ar
     5    15    13   ar
     6    21    20    1
     7    13    12    1
     8    20    17    1
     9    12     9    1
    10     8     9    1
    11    16    17    1
    12    16    10   am
    13     9    10    1
    14    17    18    1
    15    10    11    2
    16    18    19    2
    17     1     2    1
    18     4     3    2
    19    32    30    1
    20     7     5    1
    21     2     5    1
    22     2     3    1
    23     5     6    1
    24    29    30    1
    25    29    26    1
    26    25    26    1
    27    30    31    1
    28    28    27    2
    29    48    46    1
    30    26    27    1
    31    27    33   am
    32    63    61    1
    33    45    46    1
    34    45    42    1
    35    46    47    1
    36    61    62    1
    37    61    58    1
    38    33    34    1
    39    78    77   ar
    40    41    42    1
    41    41    35   am
    42    42    43    1
    43    35    34    1
    44    35    36    2
    45    34    37    1
    46    57    58    1
    47    79    77   ar
    48    58    59    1
    49    77    76    1
    50    60    59    2
    51    40    38    1
    52    43    44    2
    53    59    64   am
    54    37    38    1
    55    67    66    2
    56    38    39    1
    57    55    54   ar
    58    74    73    2
    59    76    75    1
    60    72    75    1
    61    72    73    1
    62    72    71    1
    63    64    70    1
    64    64    65    1
    65    66    71   am
    66    66    65    1
    67    73    80   am
    68    54    56   ar
    69    54    53    1
    70    70    69    1
    71    65    68    1
    72    50    49    1
    73    50    53    1
    74    50    51    1
    75    83    82    2
    76    80    81    1
    77    52    51    2
    78    69    68    1
    79    90    89   ar
    80   104   102   ar
    81   104   105   ar
    82   102    99   ar
    83    82    81    1
    84    82    84   am
    85    96    97    1
    86    96    93    1
    87    89    91   ar
    88    89    88    1
    89   105   103   ar
    90    85    84    1
    91    85    86    1
    92    85    88    1
    93    99    97   ar
    94    99   101   ar
    95    92    86   am
    96    92    93    1
    97    95    94    2
    98    97    98   ar
    99    86    87    2
   100    93    94    1
   101   103   101   ar
   102   101   100   ar
   103    98   100   ar
