@<TRIPOS>MOLECULE
tmp/6fhvA02.pdb
 176 176 0 0 0
SMALL
GASTEIGER

@<TRIPOS>ATOM
      1  N        -30.3300  -13.4410  -35.2500 N.3    37  ALA37      -0.1245
      2  CA       -31.0250  -12.1130  -35.2850 C.3    37  ALA37       0.1562
      3  C        -32.0140  -12.0090  -36.4600 C.2    37  ALA37       0.2260
      4  O        -33.0590  -11.3510  -36.3440 O.2    37  ALA37      -0.2867
      5  CB       -30.0200  -10.9930  -35.4010 C.3    37  ALA37       0.0290
      6  N        -27.0750  -10.6840  -41.1350 N.3    46  TYR46      -0.1241
      7  CA       -27.4490  -10.7500  -39.7030 C.3    46  TYR46       0.1605
      8  C        -27.4470  -12.2210  -39.2230 C.2    46  TYR46       0.2264
      9  O        -28.0420  -12.5330  -38.1700 O.2    46  TYR46      -0.2867
     10  CB       -28.8630  -10.1500  -39.4490 C.3    46  TYR46       0.0534
     11  CG       -29.0180   -8.6130  -39.3720 C.ar   46  TYR46      -0.0201
     12  CD1      -28.1020   -7.7280  -39.9460 C.ar   46  TYR46      -0.0009
     13  CD2      -30.1340   -8.0580  -38.7390 C.ar   46  TYR46      -0.0009
     14  CE1      -28.2990   -6.3550  -39.9020 C.ar   46  TYR46       0.0417
     15  CE2      -30.3400   -6.6790  -38.6940 C.ar   46  TYR46       0.0417
     16  CZ       -29.4360   -5.8160  -39.2760 C.ar   46  TYR46       0.1957
     17  OH       -29.6710   -4.4390  -39.2230 O.3    46  TYR46      -0.2866
     18  N        -26.5710  -12.5270  -31.3070 N.3    50  TRP50      -0.1241
     19  CA       -26.2560  -11.3860  -30.4690 C.3    50  TRP50       0.1605
     20  C        -26.7270  -11.7030  -29.0650 C.2    50  TRP50       0.2264
     21  O        -27.8540  -12.2180  -28.8820 O.2    50  TRP50      -0.2867
     22  CB       -26.9900  -10.1270  -30.9300 C.3    50  TRP50       0.0550
     23  CG       -26.2830   -9.2320  -31.9530 C.ar   50  TRP50       0.0003
     24  CD1      -25.6290   -8.0670  -31.6790 C.ar   50  TRP50       0.0946
     25  CD2      -26.2430   -9.3920  -33.3830 C.ar   50  TRP50       0.0152
     26  NE1      -25.1480   -7.5130  -32.8350 N.ar   50  TRP50      -0.2442
     27  CE2      -25.5160   -8.3010  -33.9020 C.ar   50  TRP50       0.0810
     28  CE3      -26.7160  -10.3730  -34.2770 C.ar   50  TRP50       0.0012
     29  CZ2      -25.2800   -8.1410  -35.2860 C.ar   50  TRP50       0.0191
     30  CZ3      -26.4910  -10.2080  -35.6450 C.ar   50  TRP50       0.0001
     31  CH2      -25.7900   -9.1030  -36.1350 C.ar   50  TRP50       0.0015
     32  N        -27.6320   -9.5670  -26.7420 N.3    52  ARG52      -0.1231
     33  CA       -28.8620   -8.7530  -26.5000 C.3    52  ARG52       0.1694
     34  C        -30.1360   -9.3400  -27.1140 C.2    52  ARG52       0.2592
     35  O        -31.1210   -9.5940  -26.3910 O.2    52  ARG52      -0.2718
     36  CB       -28.7080   -7.3240  -27.0090 C.3    52  ARG52       0.0321
     37  CG       -29.9520   -6.4330  -26.9170 C.3    52  ARG52       0.0489
     38  CD       -29.8250   -5.2640  -27.9090 C.3    52  ARG52       0.2205
     39  NE       -28.6130   -4.6220  -27.5520 N.pl3  52  ARG52      -0.0865
     40  CZ       -27.4440   -4.5920  -28.1890 C.cat  52  ARG52       0.5346
     41  NH1      -27.2370   -4.9530  -29.4570 N.pl3  52  ARG52       0.1354
     42  NH2      -26.4680   -4.0650  -27.4850 N.pl3  52  ARG52       0.1354
     43  N        -30.1380   -9.5210  -28.4390 N.am   53  ASP53      -0.1974
     44  CA       -31.3770  -10.0210  -29.1270 C.3    53  ASP53       0.1709
     45  C        -31.7980  -11.3410  -28.5050 C.2    53  ASP53       0.2293
     46  O        -32.9810  -11.5650  -28.2000 O.2    53  ASP53      -0.2864
     47  CB       -31.2180  -10.1600  -30.6540 C.3    53  ASP53       0.1436
     48  CG       -30.7860   -8.8690  -31.3430 C.2    53  ASP53       0.3671
     49  OD1      -29.9640   -8.1060  -30.7220 O.co2  53  ASP53      -0.2456
     50  OD2      -31.2660   -8.6280  -32.5150 O.co2  53  ASP53      -0.2456
     51  N        -15.8450   -4.1570  -34.8390 N.3   123  TRP123     -0.1227
     52  CA       -17.2460   -4.0220  -34.5140 C.3   123  TRP123      0.1737
     53  C        -17.3900   -3.0630  -33.3480 C.2   123  TRP123      0.2596
     54  O        -16.4130   -2.8120  -32.6510 O.2   123  TRP123     -0.2718
     55  CB       -17.8460   -5.3870  -34.1200 C.3   123  TRP123      0.0564
     56  CG       -19.3690   -5.4580  -34.3350 C.ar  123  TRP123      0.0003
     57  CD1      -20.3520   -5.4740  -33.3640 C.ar  123  TRP123      0.0946
     58  CD2      -20.0380   -5.4870  -35.5790 C.ar  123  TRP123      0.0152
     59  NE1      -21.5920   -5.5090  -33.9560 N.ar  123  TRP123     -0.2442
     60  CE2      -21.4310   -5.5200  -35.3130 C.ar  123  TRP123      0.0810
     61  CE3      -19.6040   -5.4790  -36.9170 C.ar  123  TRP123      0.0012
     62  CZ2      -22.3960   -5.5370  -36.3430 C.ar  123  TRP123      0.0191
     63  CZ3      -20.5710   -5.5030  -37.9410 C.ar  123  TRP123      0.0001
     64  CH2      -21.9490   -5.5320  -37.6320 C.ar  123  TRP123      0.0015
     65  N        -18.6020   -2.5480  -33.1250 N.am  124  GLY124     -0.1957
     66  CA       -18.8930   -1.7140  -31.9530 C.3   124  GLY124      0.1869
     67  C        -18.8950   -2.4970  -30.6380 C.2   124  GLY124      0.2309
     68  O        -19.9800   -2.8770  -30.1410 O.2   124  GLY124     -0.2863
     69  N        -26.9320    0.2100  -27.8230 N.3   180  LEU180     -0.1231
     70  CA       -27.6440   -0.9380  -28.3870 C.3   180  LEU180      0.1693
     71  C        -27.7710   -0.9460  -29.9410 C.2   180  LEU180      0.2592
     72  O        -27.9860   -2.0020  -30.5010 O.2   180  LEU180     -0.2718
     73  CB       -29.0100   -1.1210  -27.7110 C.3   180  LEU180      0.0284
     74  CG       -30.1900   -0.2120  -28.0450 C.3   180  LEU180      0.0019
     75  CD1      -31.4220   -0.6830  -27.2400 C.3   180  LEU180      0.0001
     76  CD2      -29.8910    1.2590  -27.7850 C.3   180  LEU180      0.0001
     77  N        -27.6430    0.2300  -30.5740 N.am  181  TRP181     -0.1962
     78  CA       -27.5620    0.4040  -32.0320 C.3   181  TRP181      0.1771
     79  C        -26.1320    0.1950  -32.5830 C.2   181  TRP181      0.2620
     80  O        -25.8930    0.2620  -33.7930 O.2   181  TRP181     -0.2715
     81  CB       -28.1310    1.7700  -32.4460 C.3   181  TRP181      0.0590
     82  CG       -29.4880    2.1190  -31.8450 C.ar  181  TRP181      0.0006
     83  CD1      -29.8510    3.3150  -31.3090 C.ar  181  TRP181      0.0946
     84  CD2      -30.6120    1.2420  -31.6760 C.ar  181  TRP181      0.0152
     85  NE1      -31.1400    3.2480  -30.8120 N.ar  181  TRP181     -0.2442
     86  CE2      -31.6150    1.9770  -31.0040 C.ar  181  TRP181      0.0810
     87  CE3      -30.8770   -0.0990  -32.0510 C.ar  181  TRP181      0.0012
     88  CZ2      -32.8740    1.4290  -30.7120 C.ar  181  TRP181      0.0191
     89  CZ3      -32.0900   -0.6630  -31.7210 C.ar  181  TRP181      0.0001
     90  CH2      -33.0900    0.0940  -31.0700 C.ar  181  TRP181      0.0015
     91  N        -25.1750   -0.0340  -31.6820 N.am  182  GLU182     -0.1963
     92  CA       -23.8150   -0.4550  -32.0220 C.3   182  GLU182      0.1733
     93  C        -22.9800    0.6700  -32.6620 C.2   182  GLU182      0.2616
     94  O        -22.0700    0.3940  -33.4740 O.2   182  GLU182     -0.2715
     95  CB       -23.8520   -1.7270  -32.9040 C.3   182  GLU182      0.0429
     96  CG       -24.9390   -2.7420  -32.5190 C.3   182  GLU182      0.1163
     97  CD       -24.8120   -4.0770  -33.2240 C.2   182  GLU182      0.3649
     98  OE1      -25.4650   -4.2690  -34.3030 O.co2 182  GLU182     -0.2457
     99  OE2      -24.0850   -4.9320  -32.6750 O.co2 182  GLU182     -0.2457
    100  N        -23.2700    1.9200  -32.2780 N.am  183  GLU183     -0.1977
    101  CA       -22.7330    3.0900  -32.9800 C.3   183  GLU183      0.1602
    102  C        -22.0160    4.1130  -32.0900 C.2   183  GLU183      0.2287
    103  O        -20.9650    4.6510  -32.4730 O.2   183  GLU183     -0.2864
    104  CB       -23.8760    3.8000  -33.7240 C.3   183  GLU183      0.0415
    105  CG       -24.3750    3.0810  -34.9760 C.3   183  GLU183      0.1163
    106  CD       -25.6970    3.6250  -35.5470 C.2   183  GLU183      0.3649
    107  OE1      -26.4170    4.4110  -34.8700 O.co2 183  GLU183     -0.2457
    108  OE2      -26.0240    3.2360  -36.7020 O.co2 183  GLU183     -0.2457
    109  N        -35.4990    4.8950  -34.7200 N.3   310  ARG310     -0.1245
    110  CA       -34.4800    4.8690  -33.6610 C.3   310  ARG310      0.1563
    111  C        -34.1460    6.2230  -33.0650 C.2   310  ARG310      0.2260
    112  O        -34.1210    6.3690  -31.8610 O.2   310  ARG310     -0.2867
    113  CB       -33.1740    4.3300  -34.1970 C.3   310  ARG310      0.0307
    114  CG       -33.1270    2.8750  -34.6520 C.3   310  ARG310      0.0489
    115  CD       -32.0140    2.8130  -35.7010 C.3   310  ARG310      0.2205
    116  NE       -31.0160    1.8400  -35.3960 N.pl3 310  ARG310     -0.0865
    117  CZ       -29.7850    1.8340  -35.8890 C.cat 310  ARG310      0.5346
    118  NH1      -29.3290    2.7530  -36.7600 N.pl3 310  ARG310      0.1354
    119  NH2      -29.0100    0.8710  -35.4790 N.pl3 310  ARG310      0.1354
    120  N        -29.1540    4.9910  -41.3300 N.3   316  TYR316     -0.1241
    121  CA       -28.9670    3.5530  -41.6000 C.3   316  TYR316      0.1605
    122  C        -30.1270    2.9900  -42.4650 C.2   316  TYR316      0.2264
    123  O        -31.2900    2.9400  -42.0180 O.2   316  TYR316     -0.2867
    124  CB       -28.8350    2.7370  -40.3040 C.3   316  TYR316      0.0534
    125  CG       -28.6900    1.2240  -40.4960 C.ar  316  TYR316     -0.0201
    126  CD1      -27.6420    0.6730  -41.2850 C.ar  316  TYR316     -0.0009
    127  CD2      -29.5850    0.3260  -39.9040 C.ar  316  TYR316     -0.0009
    128  CE1      -27.4990   -0.7170  -41.4700 C.ar  316  TYR316      0.0417
    129  CE2      -29.4420   -1.0610  -40.1000 C.ar  316  TYR316      0.0417
    130  CZ       -28.3910   -1.5650  -40.8670 C.ar  316  TYR316      0.1957
    131  OH       -28.2640   -2.9080  -41.0420 O.3   316  TYR316     -0.2866
    132  N        -38.8970    1.7230  -37.5420 N.3   322  TRP322     -0.1241
    133  CA       -38.5780    0.3420  -37.1460 C.3   322  TRP322      0.1605
    134  C        -39.8670   -0.2480  -36.5310 C.2   322  TRP322      0.2264
    135  O        -40.5340    0.4430  -35.7540 O.2   322  TRP322     -0.2867
    136  CB       -37.4250    0.3150  -36.1130 C.3   322  TRP322      0.0550
    137  CG       -36.0430    0.4570  -36.7290 C.ar  322  TRP322      0.0003
    138  CD1      -35.6490    1.3930  -37.6440 C.ar  322  TRP322      0.0946
    139  CD2      -34.8610   -0.3050  -36.4150 C.ar  322  TRP322      0.0152
    140  NE1      -34.3250    1.2270  -37.9760 N.ar  322  TRP322     -0.2442
    141  CE2      -33.8050    0.2020  -37.2360 C.ar  322  TRP322      0.0810
    142  CE3      -34.5880   -1.3800  -35.5460 C.ar  322  TRP322      0.0012
    143  CZ2      -32.5360   -0.3290  -37.2280 C.ar  322  TRP322      0.0191
    144  CZ3      -33.2970   -1.9280  -35.5570 C.ar  322  TRP322      0.0001
    145  CH2      -32.2940   -1.3910  -36.3850 C.ar  322  TRP322      0.0015
    146  N        -36.9170   -5.6960  -40.1730 N.3   405  GLU405     -0.1245
    147  CA       -36.3460   -4.6980  -39.2720 C.3   405  GLU405      0.1567
    148  C        -37.0420   -3.3520  -39.4300 C.2   405  GLU405      0.2260
    149  O        -37.4440   -2.7540  -38.4200 O.2   405  GLU405     -0.2867
    150  CB       -34.8510   -4.5640  -39.5000 C.3   405  GLU405      0.0388
    151  CG       -34.0820   -3.6950  -38.5160 C.3   405  GLU405      0.1160
    152  CD       -32.6330   -3.4780  -38.9330 C.2   405  GLU405      0.3649
    153  OE1      -32.3730   -2.8090  -39.9680 O.co2 405  GLU405     -0.2457
    154  OE2      -31.7450   -3.9470  -38.1850 O.co2 405  GLU405     -0.2457
    155  N        -36.9020  -10.2700  -38.4180 N.3   420  LEU420     -0.1245
    156  CA       -36.0830   -9.9170  -37.2940 C.3   420  LEU420      0.1561
    157  C        -36.7100  -10.4740  -36.0070 C.2   420  LEU420      0.2260
    158  O        -37.8460  -10.1120  -35.6090 O.2   420  LEU420     -0.2867
    159  CB       -35.9140   -8.4060  -37.2060 C.3   420  LEU420      0.0270
    160  CG       -34.8750   -7.9230  -36.2070 C.3   420  LEU420      0.0019
    161  CD1      -33.4670   -8.0730  -36.8170 C.3   420  LEU420      0.0001
    162  CD2      -35.1690   -6.4920  -35.7840 C.3   420  LEU420      0.0001
    163  N        -36.2030   -9.9630  -32.9310 N.3   422  TRP422     -0.1241
    164  CA       -36.5880   -8.9410  -31.9570 C.3   422  TRP422      0.1605
    165  C        -37.8540   -8.2040  -32.4200 C.2   422  TRP422      0.2264
    166  O        -38.6590   -7.7890  -31.5780 O.2   422  TRP422     -0.2867
    167  CB       -35.3910   -8.0170  -31.7170 C.3   422  TRP422      0.0550
    168  CG       -35.5080   -6.9170  -30.6710 C.ar  422  TRP422      0.0003
    169  CD1      -36.5650   -6.6380  -29.8330 C.ar  422  TRP422      0.0946
    170  CD2      -34.4900   -5.9560  -30.3520 C.ar  422  TRP422      0.0152
    171  NE1      -36.2750   -5.5440  -29.0440 N.ar  422  TRP422     -0.2442
    172  CE2      -35.0020   -5.1150  -29.3400 C.ar  422  TRP422      0.0810
    173  CE3      -33.2020   -5.7230  -30.8330 C.ar  422  TRP422      0.0012
    174  CZ2      -34.2530   -4.0450  -28.8020 C.ar  422  TRP422      0.0191
    175  CZ3      -32.4700   -4.6570  -30.3180 C.ar  422  TRP422      0.0001
    176  CH2      -33.0000   -3.8240  -29.3360 C.ar  422  TRP422      0.0015
@<TRIPOS>BOND
     1   122   123    2
     2   122   121    1
     3   121   120    1
     4   121   124    1
     5   128   126   ar
     6   128   130   ar
     7   126   125   ar
     8     6     7    1
     9   131   130    1
    10   130   129   ar
    11   125   124    1
    12   125   127   ar
    13   146   147    1
    14   129   127   ar
    15   153   152   ar
    16    12    14   ar
    17    12    11   ar
    18    14    16   ar
    19     7    10    1
    20     7     8    1
    21   150   147    1
    22   150   151    1
    23    10    11    1
    24   148   147    1
    25   148   149    2
    26    11    13   ar
    27    16    17    1
    28    16    15   ar
    29     8     9    2
    30   152   151    1
    31   152   154   ar
    32    13    15   ar
    33   155   156    1
    34   140   138   ar
    35   140   141   ar
    36    63    64   ar
    37    63    61   ar
    38   138   137   ar
    39    64    62   ar
    40   132   133    1
    41   156   159    1
    42   156   157    1
    43   141   143   ar
    44   141   139   ar
    45   143   145   ar
    46   159   160    1
    47   133   134    1
    48   133   136    1
    49    61    58   ar
    50   161   160    1
    51   118   117    1
    52   137   139   ar
    53   137   136    1
    54   108   106   ar
    55   134   135    2
    56     3     4    2
    57     3     2    1
    58   139   142   ar
    59   145   144   ar
    60    62    60   ar
    61   160   162    1
    62    31    30   ar
    63    31    29   ar
    64   157   158    2
    65   117   119    1
    66   117   116    2
    67   115   116    1
    68   115   114    1
    69    30    28   ar
    70    58    60   ar
    71    58    56   ar
    72   144   142   ar
    73   106   105    1
    74   106   107   ar
    75     5     2    1
    76    60    59   ar
    77    29    27   ar
    78     2     1    1
    79   105   104    1
    80    51    52    1
    81   109   110    1
    82   114   113    1
    83    52    55    1
    84    52    53    1
    85    56    55    1
    86    56    57   ar
    87    98    97   ar
    88    28    25   ar
    89   113   110    1
    90    59    57   ar
    91    27    25   ar
    92    27    26   ar
    93    80    79    2
    94   104   101    1
    95   110   111    1
    96    94    93    2
    97    25    23   ar
    98    53    65   am
    99    53    54    2
   100    97    99   ar
   101    97    96    1
   102    65    66    1
   103   111   112    2
   104   101   100    1
   105   101   102    1
   106   163   164    1
   107    95    96    1
   108    95    92    1
   109    26    24   ar
   110    93   100   am
   111    93    92    1
   112    79    78    1
   113    79    91   am
   114    50    48   ar
   115   103   102    2
   116    81    78    1
   117    81    82    1
   118   165   164    1
   119   165   166    2
   120    87    89   ar
   121    87    84   ar
   122    78    77    1
   123    92    91    1
   124   164   167    1
   125    66    67    1
   126    23    24   ar
   127    23    22    1
   128    82    84   ar
   129    82    83   ar
   130    89    90   ar
   131   167   168    1
   132    84    86   ar
   133    48    49   ar
   134    48    47    1
   135    83    85   ar
   136    18    19    1
   137    90    88   ar
   138    86    85   ar
   139    86    88   ar
   140    22    19    1
   141   173   170   ar
   142   173   175   ar
   143   168   170   ar
   144   168   169   ar
   145    47    44    1
   146    67    68    2
   147    77    71   am
   148    72    71    2
   149    19    20    1
   150   170   172   ar
   151   175   176   ar
   152    71    70    1
   153   169   171   ar
   154    41    40    1
   155   172   171   ar
   156   172   174   ar
   157   176   174   ar
   158    44    45    1
   159    44    43    1
   160    20    21    2
   161    45    46    2
   162    43    34   am
   163    70    69    1
   164    70    73    1
   165    40    39    2
   166    40    42    1
   167    74    76    1
   168    74    73    1
   169    74    75    1
   170    38    39    1
   171    38    37    1
   172    34    33    1
   173    34    35    2
   174    36    37    1
   175    36    33    1
   176    32    33    1
