@<TRIPOS>MOLECULE
tmp/6fhvA04.pdb
 96 92 0 0 0
SMALL
GASTEIGER

@<TRIPOS>ATOM
      1  N        -19.6870   -1.6980  -14.8370 N.3   173  TRP173     -0.1227
      2  CA       -20.8080   -0.7960  -15.0930 C.3   173  TRP173      0.1737
      3  C        -20.3800    0.6580  -15.2890 C.2   173  TRP173      0.2595
      4  O        -21.0460    1.3720  -16.0170 O.2   173  TRP173     -0.2718
      5  CB       -21.9130   -0.8600  -14.0050 C.3   173  TRP173      0.0564
      6  CG       -21.5480   -0.2540  -12.6600 C.ar  173  TRP173      0.0003
      7  CD1      -21.0820   -0.9220  -11.5610 C.ar  173  TRP173      0.0946
      8  CD2      -21.6440    1.1300  -12.2710 C.ar  173  TRP173      0.0152
      9  NE1      -20.8510   -0.0460  -10.5340 N.ar  173  TRP173     -0.2442
     10  CE2      -21.2140    1.2130  -10.9240 C.ar  173  TRP173      0.0810
     11  CE3      -22.0140    2.3180  -12.9420 C.ar  173  TRP173      0.0012
     12  CZ2      -21.1380    2.4360  -10.2270 C.ar  173  TRP173      0.0191
     13  CZ3      -21.9630    3.5200  -12.2520 C.ar  173  TRP173      0.0001
     14  CH2      -21.5350    3.5780  -10.8990 C.ar  173  TRP173      0.0015
     15  N        -19.2950    1.0800  -14.6420 N.am  174  ASN174     -0.1960
     16  CA       -18.8280    2.4820  -14.6790 C.3   174  ASN174      0.1819
     17  C        -17.7350    2.7100  -15.7540 C.2   174  ASN174      0.2621
     18  O        -16.9410    3.6660  -15.6630 O.2   174  ASN174     -0.2715
     19  CB       -18.3030    2.8760  -13.2730 C.3   174  ASN174      0.1195
     20  CG       -18.1010    4.3780  -13.0850 C.2   174  ASN174      0.2630
     21  OD1      -17.0780    4.7900  -12.5390 O.2   174  ASN174     -0.2716
     22  ND2      -19.0670    5.1980  -13.5150 N.am  174  ASN174     -0.0877
     23  N        -17.6600    1.7950  -16.7130 N.am  175  ASN175     -0.1958
     24  CA       -16.8930    1.9920  -17.9680 C.3   175  ASN175      0.1819
     25  C        -17.8260    2.2720  -19.1690 C.2   175  ASN175      0.2621
     26  O        -18.9140    1.7060  -19.2560 O.2   175  ASN175     -0.2715
     27  CB       -16.1000    0.7350  -18.2910 C.3   175  ASN175      0.1195
     28  CG       -14.9170    0.5120  -17.3440 C.2   175  ASN175      0.2630
     29  OD1      -15.0700    0.2240  -16.1670 O.2   175  ASN175     -0.2716
     30  ND2      -13.7290    0.5520  -17.9020 N.am  175  ASN175     -0.0877
     31  N        -17.3640    3.1050  -20.0940 N.am  176  THR176     -0.1951
     32  CA       -17.9930    3.2870  -21.4050 C.3   176  THR176      0.1897
     33  C        -18.0270    2.0030  -22.3030 C.2   176  THR176      0.2313
     34  O        -17.3000    1.0320  -22.1080 O.2   176  THR176     -0.2863
     35  CB       -17.2800    4.4150  -22.2140 C.3   176  THR176      0.1794
     36  OG1      -15.9250    4.0200  -22.4760 O.3   176  THR176     -0.2208
     37  CG2      -17.2640    5.7360  -21.4180 C.3   176  THR176      0.0378
     38  N        -21.8510    6.2610  -22.4920 N.3   187  SER187     -0.1217
     39  CA       -22.6750    5.6540  -21.4270 C.3   187  SER187      0.1889
     40  C        -24.1320    5.8120  -21.8590 C.2   187  SER187      0.2288
     41  O        -24.6030    6.9530  -22.1040 O.2   187  SER187     -0.2866
     42  CB       -22.4370    6.3690  -20.0850 C.3   187  SER187      0.2089
     43  OG       -21.0810    6.3200  -19.6100 O.3   187  SER187     -0.2183
     44  N        -27.3560    1.3180  -18.4990 N.3   192  ILE192     -0.1245
     45  CA       -27.3180    1.5570  -17.0380 C.3   192  ILE192      0.1561
     46  C        -28.6150    1.0660  -16.3770 C.2   192  ILE192      0.2260
     47  O        -28.5630    0.4230  -15.3170 O.2   192  ILE192     -0.2867
     48  CB       -27.0600    3.0560  -16.7320 C.3   192  ILE192      0.0252
     49  CG1      -25.7350    3.5180  -17.3880 C.3   192  ILE192      0.0019
     50  CG2      -27.0590    3.3560  -15.2370 C.3   192  ILE192      0.0019
     51  CD1      -24.5490    2.5880  -17.1260 C.3   192  ILE192      0.0001
     52  N        -25.3440    3.0430   -6.2510 N.3   222  GLN222     -0.1245
     53  CA       -24.4490    3.9160   -7.0790 C.3   222  GLN222      0.1566
     54  C        -24.7320    3.8770   -8.6210 C.2   222  GLN222      0.2260
     55  O        -24.6150    4.9110   -9.3170 O.2   222  GLN222     -0.2867
     56  CB       -22.9830    3.6970   -6.7260 C.3   222  GLN222      0.0367
     57  CG       -22.6310    4.2560   -5.3260 C.3   222  GLN222      0.0905
     58  CD       -22.7630    5.7690   -5.1970 C.2   222  GLN222      0.2608
     59  OE1      -22.6210    6.5090   -6.1730 O.2   222  GLN222     -0.2717
     60  NE2      -23.0030    6.2420   -3.9840 N.am  222  GLN222     -0.0878
     61  N        -25.9860    7.2040  -10.7150 N.3   226  PHE226     -0.1241
     62  CA       -25.5170    7.6110  -12.0450 C.3   226  PHE226      0.1605
     63  C        -26.6710    7.7590  -13.0470 C.2   226  PHE226      0.2264
     64  O        -26.6680    8.6870  -13.8520 O.2   226  PHE226     -0.2867
     65  CB       -24.4530    6.6310  -12.5730 C.3   226  PHE226      0.0534
     66  CG       -23.9230    6.9680  -13.9520 C.ar  226  PHE226     -0.0203
     67  CD1      -23.5110    8.2530  -14.2760 C.ar  226  PHE226     -0.0042
     68  CD2      -23.7660    5.9630  -14.9230 C.ar  226  PHE226     -0.0042
     69  CE1      -23.0160    8.5680  -15.5370 C.ar  226  PHE226     -0.0003
     70  CE2      -23.2140    6.2570  -16.1890 C.ar  226  PHE226     -0.0003
     71  CZ       -22.8550    7.5660  -16.4990 C.ar  226  PHE226     -0.0000
     72  N        -21.1760   11.0110  -21.5780 N.3   241  ASN241     -0.1240
     73  CA       -19.7500   10.6020  -21.6220 C.3   241  ASN241      0.1653
     74  C        -19.2160   10.3330  -23.0450 C.2   241  ASN241      0.2266
     75  O        -18.4430    9.3740  -23.2520 O.2   241  ASN241     -0.2867
     76  CB       -19.5140    9.3370  -20.7350 C.3   241  ASN241      0.1155
     77  CG       -19.5820    9.6650  -19.2480 C.2   241  ASN241      0.2627
     78  OD1      -19.1860   10.7410  -18.8790 O.2   241  ASN241     -0.2716
     79  ND2      -20.1710    8.8030  -18.4440 N.am  241  ASN241     -0.0877
     80  N        -23.0440   10.9070   -5.4340 N.3   454  CYS454     -0.1221
     81  CA       -22.6030    9.8540   -6.3220 C.3   454  CYS454      0.1808
     82  C        -21.0730    9.6860   -6.1560 C.2   454  CYS454      0.2602
     83  O        -20.3180   10.6380   -6.1610 O.2   454  CYS454     -0.2717
     84  CB       -23.0510   10.0860   -7.7910 C.3   454  CYS454      0.0970
     85  SG       -24.8400   10.3620   -8.0910 S.3   454  CYS454     -0.0800
     86  N        -20.6440    8.4550   -5.9690 N.am  455  SER455     -0.1938
     87  CA       -19.2370    8.1150   -5.7870 C.3   455  SER455      0.2055
     88  C        -19.1080    6.6480   -6.1700 C.2   455  SER455      0.2642
     89  O        -19.5610    5.7730   -5.4180 O.2   455  SER455     -0.2714
     90  CB       -18.8140    8.3410   -4.3330 C.3   455  SER455      0.2130
     91  OG       -17.4220    8.1920   -4.2410 O.3   455  SER455     -0.2179
     92  N        -18.5540    6.3840   -7.3500 N.am  456  ALA456     -0.1977
     93  CA       -18.4940    5.0360   -7.8750 C.3   456  ALA456      0.1597
     94  C        -17.3210    4.2190   -7.2880 C.2   456  ALA456      0.2287
     95  O        -16.2230    4.7320   -7.1820 O.2   456  ALA456     -0.2864
     96  CB       -18.4150    5.0930   -9.4010 C.3   456  ALA456      0.0319
@<TRIPOS>BOND
     1    75    74    2
     2    74    73    1
     3    38    39    1
     4    36    35    1
     5    33    34    2
     6    33    32    1
     7    35    37    1
     8    35    32    1
     9    41    40    2
    10    40    39    1
    11    73    72    1
    12    73    76    1
    13    39    42    1
    14    32    31    1
    15    76    77    1
    16    31    25   am
    17    42    43    1
    18    26    25    2
    19    77    78    2
    20    77    79   am
    21    25    24    1
    22    44    45    1
    23    27    24    1
    24    27    28    1
    25    24    23    1
    26    30    28   am
    27    49    51    1
    28    49    48    1
    29    28    29    2
    30    45    48    1
    31    45    46    1
    32    48    50    1
    33    23    17   am
    34    71    70   ar
    35    71    69   ar
    36    46    47    2
    37    70    68   ar
    38     4     3    2
    39    17    18    2
    40    17    16    1
    41    69    67   ar
    42     3     2    1
    43     3    15   am
    44     2     1    1
    45     2     5    1
    46    68    66   ar
    47    16    15    1
    48    16    19    1
    49    67    66   ar
    50     5     6    1
    51    66    65    1
    52    64    63    2
    53    22    20   am
    54    19    20    1
    55    20    21    2
    56    63    62    1
    57    11     8   ar
    58    11    13   ar
    59     6     8   ar
    60     6     7   ar
    61    65    62    1
    62     8    10   ar
    63    13    14   ar
    64    62    61    1
    65     7     9   ar
    66    10     9   ar
    67    10    12   ar
    68    14    12   ar
    69    96    93    1
    70    55    54    2
    71    54    53    1
    72    85    84    1
    73    93    92    1
    74    93    94    1
    75    84    81    1
    76    92    88   am
    77    94    95    2
    78    53    56    1
    79    53    52    1
    80    56    57    1
    81    81    82    1
    82    81    80    1
    83    59    58    2
    84    88    87    1
    85    88    89    2
    86    83    82    2
    87    82    86   am
    88    86    87    1
    89    87    90    1
    90    57    58    1
    91    58    60   am
    92    90    91    1
