@<TRIPOS>MOLECULE
tmp/6fhwB02.pdb
 102 97 0 0 0
SMALL
GASTEIGER

@<TRIPOS>ATOM
      1  N         12.6630   -0.5450  -24.3840 N.3   170  TRP170     -0.1227
      2  CA        13.9680    0.0290  -24.0020 C.3   170  TRP170      0.1737
      3  C         13.8830    0.8760  -22.7310 C.2   170  TRP170      0.2595
      4  O         14.8070    0.8560  -21.9150 O.2   170  TRP170     -0.2718
      5  CB        14.5930    0.8630  -25.1320 C.3   170  TRP170      0.0564
      6  CG        13.9460    2.1990  -25.3600 C.ar  170  TRP170      0.0003
      7  CD1       12.8990    2.4750  -26.1880 C.ar  170  TRP170      0.0946
      8  CD2       14.3100    3.4400  -24.7430 C.ar  170  TRP170      0.0152
      9  NE1       12.5860    3.8110  -26.1260 N.ar  170  TRP170     -0.2442
     10  CE2       13.4370    4.4270  -25.2470 C.ar  170  TRP170      0.0810
     11  CE3       15.2880    3.8110  -23.8100 C.ar  170  TRP170      0.0012
     12  CZ2       13.5120    5.7700  -24.8510 C.ar  170  TRP170      0.0191
     13  CZ3       15.3650    5.1470  -23.4150 C.ar  170  TRP170      0.0001
     14  CH2       14.4790    6.1100  -23.9360 C.ar  170  TRP170      0.0015
     15  N         12.7760    1.6070  -22.5760 N.am  171  ASN171     -0.1960
     16  CA        12.6020    2.5540  -21.4710 C.3   171  ASN171      0.1819
     17  C         12.0090    1.9290  -20.1970 C.2   171  ASN171      0.2621
     18  O         11.8400    2.6220  -19.1930 O.2   171  ASN171     -0.2715
     19  CB        11.7420    3.7410  -21.9330 C.3   171  ASN171      0.1195
     20  CG        11.8650    4.9620  -21.0290 C.2   171  ASN171      0.2630
     21  OD1       10.9090    5.7200  -20.8920 O.2   171  ASN171     -0.2716
     22  ND2       13.0400    5.1550  -20.4090 N.am  171  ASN171     -0.0877
     23  N         11.6760    0.6390  -20.2410 N.am  172  GLN172     -0.1963
     24  CA        11.3600   -0.1250  -19.0320 C.3   172  GLN172      0.1733
     25  C         12.6050   -0.8890  -18.5890 C.2   172  GLN172      0.2617
     26  O         13.4070   -1.3190  -19.4230 O.2   172  GLN172     -0.2715
     27  CB        10.1980   -1.0820  -19.2850 C.3   172  GLN172      0.0408
     28  CG         8.9230   -0.3720  -19.7130 C.3   172  GLN172      0.0908
     29  CD         7.7040   -1.2740  -19.6770 C.2   172  GLN172      0.2608
     30  OE1        7.4010   -1.8920  -18.6540 O.2   172  GLN172     -0.2717
     31  NE2        6.9880   -1.3430  -20.7930 N.am  172  GLN172     -0.0878
     32  N         12.7600   -1.0560  -17.2780 N.am  173  SER173     -0.1950
     33  CA        13.9780   -1.6360  -16.7070 C.3   173  SER173      0.1924
     34  C         14.0970   -3.1370  -16.9680 C.2   173  SER173      0.2314
     35  O         13.1270   -3.7990  -17.3410 O.2   173  SER173     -0.2863
     36  CB        14.0450   -1.3700  -15.2020 C.3   173  SER173      0.2116
     37  OG        15.3140   -1.7260  -14.6860 O.3   173  SER173     -0.2180
     38  N         18.5120   -0.2140  -15.2780 N.3   184  SER184     -0.1217
     39  CA        18.9160    0.2470  -16.6020 C.3   184  SER184      0.1889
     40  C         20.4380    0.1400  -16.7330 C.2   184  SER184      0.2288
     41  O         21.1720    0.8730  -16.0680 O.2   184  SER184     -0.2866
     42  CB        18.4650    1.6890  -16.8270 C.3   184  SER184      0.2089
     43  OG        17.0550    1.7990  -16.7520 O.3   184  SER184     -0.2183
     44  N         21.7340   -0.7070  -22.9930 N.3   189  ILE189     -0.1245
     45  CA        21.2450    0.5020  -23.6760 C.3   189  ILE189      0.1561
     46  C         22.0830    0.8430  -24.9160 C.2   189  ILE189      0.2260
     47  O         21.5210    1.1540  -25.9690 O.2   189  ILE189     -0.2867
     48  CB        21.1570    1.7130  -22.7020 C.3   189  ILE189      0.0252
     49  CG1       20.0510    1.4810  -21.6570 C.3   189  ILE189      0.0019
     50  CG2       20.9060    3.0280  -23.4410 C.3   189  ILE189      0.0019
     51  CD1       18.6250    1.6120  -22.1630 C.3   189  ILE189      0.0001
     52  N         15.9480    8.9270  -28.5600 N.3   218  GLU218     -0.1245
     53  CA        15.5920    8.8740  -27.1330 C.3   218  GLU218      0.1567
     54  C         16.4160    7.8560  -26.3360 C.2   218  GLU218      0.2260
     55  O         16.6750    8.0680  -25.1470 O.2   218  GLU218     -0.2867
     56  CB        14.0950    8.5810  -26.9570 C.3   218  GLU218      0.0388
     57  CG        13.1680    9.6610  -27.5110 C.3   218  GLU218      0.1160
     58  CD        13.2520   10.9890  -26.7700 C.2   218  GLU218      0.3649
     59  OE1       12.7770   12.0000  -27.3290 O.co2 218  GLU218     -0.2457
     60  OE2       13.7810   11.0380  -25.6360 O.co2 218  GLU218     -0.2457
     61  N         19.0350    8.9740  -23.3130 N.3   222  PHE222     -0.1241
     62  CA        19.1550    8.3180  -22.0060 C.3   222  PHE222      0.1605
     63  C         20.5670    7.7770  -21.7230 C.2   222  PHE222      0.2264
     64  O         20.9880    7.7300  -20.5640 O.2   222  PHE222     -0.2867
     65  CB        18.1150    7.1980  -21.8640 C.3   222  PHE222      0.0534
     66  CG        18.2410    6.4170  -20.5870 C.ar  222  PHE222     -0.0203
     67  CD1       18.0910    7.0460  -19.3570 C.ar  222  PHE222     -0.0042
     68  CD2       18.5410    5.0630  -20.6100 C.ar  222  PHE222     -0.0042
     69  CE1       18.2210    6.3370  -18.1720 C.ar  222  PHE222     -0.0003
     70  CE2       18.6750    4.3470  -19.4310 C.ar  222  PHE222     -0.0003
     71  CZ        18.5140    4.9850  -18.2070 C.ar  222  PHE222     -0.0000
     72  N         22.9550    9.8570  -19.4440 N.3   225  SER225     -0.1217
     73  CA        22.7800    9.8390  -17.9800 C.3   225  SER225      0.1889
     74  C         23.7480    8.9170  -17.2230 C.2   225  SER225      0.2288
     75  O         23.9380    9.0840  -16.0160 O.2   225  SER225     -0.2866
     76  CB        21.3450    9.4350  -17.6220 C.3   225  SER225      0.2089
     77  OG        20.4010   10.2970  -18.2310 O.3   225  SER225     -0.2183
     78  N         19.8010    4.2960  -12.3660 N.3   237  ASN237     -0.1240
     79  CA        18.3680    4.2500  -12.0460 C.3   237  ASN237      0.1653
     80  C         18.0360    3.2420  -10.9270 C.2   237  ASN237      0.2266
     81  O         16.8820    2.8290  -10.7900 O.2   237  ASN237     -0.2867
     82  CB        17.5190    3.9940  -13.3150 C.3   237  ASN237      0.1155
     83  CG        16.2280    4.7930  -13.3330 C.2   237  ASN237      0.2627
     84  OD1       15.1360    4.2350  -13.4380 O.2   237  ASN237     -0.2716
     85  ND2       16.3500    6.1150  -13.2540 N.am  237  ASN237     -0.0877
     86  N         15.3880   14.8910  -23.0170 N.3   452  CYS452     -0.1221
     87  CA        15.0010   13.4830  -23.1380 C.3   452  CYS452      0.1808
     88  C         13.5400   13.2910  -22.7490 C.2   452  CYS452      0.2602
     89  O         13.0110   14.0190  -21.9040 O.2   452  CYS452     -0.2717
     90  CB        15.8800   12.5840  -22.2630 C.3   452  CYS452      0.0970
     91  SG        17.6650   12.7580  -22.4910 S.3   452  CYS452     -0.0800
     92  N         12.9060   12.3000  -23.3720 N.am  453  SER453     -0.1938
     93  CA        11.4920   11.9980  -23.1660 C.3   453  SER453      0.2055
     94  C         11.3100   10.4970  -22.9740 C.2   453  SER453      0.2642
     95  O         11.8510    9.6990  -23.7450 O.2   453  SER453     -0.2714
     96  CB        10.6650   12.4690  -24.3650 C.3   453  SER453      0.2130
     97  OG        10.7170   13.8780  -24.5050 O.3   453  SER453     -0.2179
     98  N         10.5570   10.1240  -21.9410 N.am  454  ALA454     -0.1977
     99  CA        10.2120    8.7270  -21.6930 C.3   454  ALA454      0.1597
    100  C          9.2280    8.2690  -22.7650 C.2   454  ALA454      0.2287
    101  O          8.1240    8.8080  -22.8570 O.2   454  ALA454     -0.2864
    102  CB         9.6020    8.5640  -20.3060 C.3   454  ALA454      0.0319
@<TRIPOS>BOND
     1    52    53    1
     2    57    56    1
     3    57    58    1
     4    59    58   ar
     5    53    56    1
     6    53    54    1
     7    58    60   ar
     8    54    55    2
     9     7     9   ar
    10     7     6   ar
    11     9    10   ar
    12    47    46    2
    13     6     5    1
    14     6     8   ar
    15    10    12   ar
    16    10     8   ar
    17     5     2    1
    18    46    45    1
    19    12    14   ar
    20     8    11   ar
    21    97    96    1
    22     1     2    1
    23    96    93    1
    24     2     3    1
    25    14    13   ar
    26    11    13   ar
    27    95    94    2
    28    45    44    1
    29    45    48    1
    30    50    48    1
    31    92    93    1
    32    92    88   am
    33    61    62    1
    34    93    94    1
    35    87    86    1
    36    87    88    1
    37    87    90    1
    38    94    98   am
    39   101   100    2
    40   100    99    1
    41    88    89    2
    42     3    15   am
    43     3     4    2
    44    48    49    1
    45    15    16    1
    46    91    90    1
    47    51    49    1
    48    62    65    1
    49    62    63    1
    50    98    99    1
    51    19    16    1
    52    19    20    1
    53    65    66    1
    54    63    64    2
    55    99   102    1
    56    16    17    1
    57    20    21    2
    58    20    22   am
    59    31    29   am
    60    68    66   ar
    61    68    70   ar
    62    66    67   ar
    63    23    17   am
    64    23    24    1
    65    17    18    2
    66    28    29    1
    67    28    27    1
    68    29    30    2
    69    72    73    1
    70    70    71   ar
    71    26    25    2
    72    67    69   ar
    73    27    24    1
    74    24    25    1
    75    25    32   am
    76    77    76    1
    77    71    69   ar
    78    73    76    1
    79    73    74    1
    80    35    34    2
    81    32    33    1
    82    74    75    2
    83    34    33    1
    84    42    43    1
    85    42    39    1
    86    40    39    1
    87    40    41    2
    88    33    36    1
    89    39    38    1
    90    36    37    1
    91    84    83    2
    92    83    82    1
    93    83    85   am
    94    82    79    1
    95    78    79    1
    96    79    80    1
    97    80    81    2
