@<TRIPOS>MOLECULE
tmp/6fhwB00.pdb
 194 195 0 0 0
SMALL
GASTEIGER

@<TRIPOS>ATOM
      1  N         26.6880  -22.1080  -23.8110 N.3    38  ALA38      -0.1245
      2  CA        27.6930  -21.2260  -23.2100 C.3    38  ALA38       0.1562
      3  C         28.9380  -22.0230  -22.8440 C.2    38  ALA38       0.2260
      4  O         30.0380  -21.6930  -23.2820 O.2    38  ALA38      -0.2867
      5  CB        27.1380  -20.5150  -21.9860 C.3    38  ALA38       0.0290
      6  N         26.3600  -24.7840  -16.7430 N.3    47  TYR47      -0.1241
      7  CA        26.2010  -23.8390  -17.8540 C.3    47  TYR47       0.1605
      8  C         25.6950  -24.5400  -19.1280 C.2    47  TYR47       0.2264
      9  O         25.8030  -23.9820  -20.2230 O.2    47  TYR47      -0.2867
     10  CB        27.5410  -23.1330  -18.1400 C.3    47  TYR47       0.0534
     11  CG        27.8540  -21.9040  -17.3000 C.ar   47  TYR47      -0.0201
     12  CD1       27.4710  -21.8090  -15.9600 C.ar   47  TYR47      -0.0009
     13  CD2       28.5820  -20.8430  -17.8450 C.ar   47  TYR47      -0.0009
     14  CE1       27.7780  -20.6850  -15.2040 C.ar   47  TYR47       0.0417
     15  CE2       28.8960  -19.7200  -17.0920 C.ar   47  TYR47       0.0417
     16  CZ        28.4940  -19.6480  -15.7700 C.ar   47  TYR47       0.1957
     17  OH        28.7920  -18.5440  -15.0060 O.3    47  TYR47      -0.2866
     18  N         22.3080  -19.2710  -23.8040 N.3    51  TRP51      -0.1241
     19  CA        22.0040  -17.8800  -23.4580 C.3    51  TRP51       0.1605
     20  C         21.8490  -17.1030  -24.7570 C.2    51  TRP51       0.2264
     21  O         22.7420  -17.1490  -25.6030 O.2    51  TRP51      -0.2867
     22  CB        23.1280  -17.2450  -22.6310 C.3    51  TRP51       0.0550
     23  CG        23.0590  -17.4800  -21.1580 C.ar   51  TRP51       0.0003
     24  CD1       22.6210  -16.6020  -20.2110 C.ar   51  TRP51       0.0946
     25  CD2       23.4720  -18.6560  -20.4550 C.ar   51  TRP51       0.0152
     26  NE1       22.7260  -17.1620  -18.9620 N.ar   51  TRP51      -0.2442
     27  CE2       23.2480  -18.4210  -19.0820 C.ar   51  TRP51       0.0810
     28  CE3       24.0100  -19.8860  -20.8520 C.ar   51  TRP51       0.0012
     29  CZ2       23.5380  -19.3740  -18.1020 C.ar   51  TRP51       0.0191
     30  CZ3       24.3000  -20.8340  -19.8770 C.ar   51  TRP51       0.0001
     31  CH2       24.0610  -20.5710  -18.5170 C.ar   51  TRP51       0.0015
     32  N         22.0980  -13.9720  -25.2150 N.3    53  ARG53      -0.1231
     33  CA        23.2210  -13.0280  -25.2780 C.3    53  ARG53       0.1694
     34  C         24.4680  -13.7150  -25.8310 C.2    53  ARG53       0.2592
     35  O         25.0070  -13.2840  -26.8490 O.2    53  ARG53      -0.2718
     36  CB        23.5180  -12.4290  -23.8970 C.3    53  ARG53       0.0321
     37  CG        24.7840  -11.5730  -23.8200 C.3    53  ARG53       0.0489
     38  CD        24.9680  -10.8670  -22.4800 C.3    53  ARG53       0.2205
     39  NE        24.7260  -11.7350  -21.3210 N.pl3  53  ARG53      -0.0865
     40  CZ        23.5680  -11.8660  -20.6640 C.cat  53  ARG53       0.5346
     41  NH1       22.4730  -11.1920  -21.0240 N.pl3  53  ARG53       0.1354
     42  NH2       23.5000  -12.7000  -19.6300 N.pl3  53  ARG53       0.1354
     43  N         24.9170  -14.7740  -25.1530 N.am   54  ASP54      -0.1974
     44  CA        26.1110  -15.5370  -25.5660 C.3    54  ASP54       0.1709
     45  C         25.9900  -16.0760  -26.9900 C.2    54  ASP54       0.2293
     46  O         26.9450  -16.0030  -27.7600 O.2    54  ASP54      -0.2864
     47  CB        26.3890  -16.7140  -24.6170 C.3    54  ASP54       0.1436
     48  CG        26.9510  -16.2770  -23.2700 C.2    54  ASP54       0.3671
     49  OD1       26.5140  -15.2350  -22.7370 O.co2  54  ASP54      -0.2456
     50  OD2       27.8270  -16.9930  -22.7390 O.co2  54  ASP54      -0.2456
     51  N         13.9520  -20.3220  -11.6230 N.3   119  PRO119     -0.2102
     52  CA        14.0420  -18.9020  -11.2890 C.3   119  PRO119      0.1504
     53  C         15.3480  -18.2900  -11.7870 C.2   119  PRO119      0.2576
     54  O         16.4020  -18.9240  -11.6920 O.2   119  PRO119     -0.2718
     55  CB        13.9870  -18.9000   -9.7620 C.3   119  PRO119      0.0282
     56  CG        14.6160  -20.1910   -9.3780 C.3   119  PRO119      0.0208
     57  CD        14.2380  -21.1730  -10.4520 C.3   119  PRO119      0.0893
     58  N         15.2650  -17.0710  -12.3140 N.am  120  TRP120     -0.1963
     59  CA        16.3900  -16.4300  -12.9940 C.3   120  TRP120      0.1771
     60  C         16.2020  -14.9120  -13.0500 C.2   120  TRP120      0.2620
     61  O         15.0930  -14.4080  -12.8480 O.2   120  TRP120     -0.2715
     62  CB        16.5250  -17.0040  -14.4120 C.3   120  TRP120      0.0590
     63  CG        17.9060  -16.9400  -14.9680 C.ar  120  TRP120      0.0006
     64  CD1       18.3810  -16.0390  -15.8710 C.ar  120  TRP120      0.0946
     65  CD2       18.9960  -17.8170  -14.6610 C.ar  120  TRP120      0.0152
     66  NE1       19.6990  -16.2960  -16.1470 N.ar  120  TRP120     -0.2442
     67  CE2       20.1040  -17.3860  -15.4230 C.ar  120  TRP120      0.0810
     68  CE3       19.1450  -18.9290  -13.8190 C.ar  120  TRP120      0.0012
     69  CZ2       21.3530  -18.0190  -15.3610 C.ar  120  TRP120      0.0191
     70  CZ3       20.3870  -19.5650  -13.7610 C.ar  120  TRP120      0.0001
     71  CH2       21.4730  -19.1070  -14.5300 C.ar  120  TRP120      0.0015
     72  N         17.2930  -14.1930  -13.3090 N.am  121  GLY121     -0.1954
     73  CA        17.2540  -12.7400  -13.4740 C.3   121  GLY121      0.1869
     74  C         16.6710  -12.3530  -14.8180 C.2   121  GLY121      0.2309
     75  O         17.4060  -12.1880  -15.7930 O.2   121  GLY121     -0.2863
     76  N         17.3080   -6.6830  -16.2810 N.3   175  PHE175     -0.1241
     77  CA        18.5550   -7.1330  -15.6520 C.3   175  PHE175      0.1605
     78  C         19.7380   -6.8090  -16.5580 C.2   175  PHE175      0.2264
     79  O         19.6160   -6.8420  -17.7850 O.2   175  PHE175     -0.2867
     80  CB        18.5190   -8.6370  -15.3610 C.3   175  PHE175      0.0534
     81  CG        17.8010   -8.9960  -14.0920 C.ar  175  PHE175     -0.0203
     82  CD1       16.4130   -9.0230  -14.0510 C.ar  175  PHE175     -0.0042
     83  CD2       18.5110   -9.3200  -12.9380 C.ar  175  PHE175     -0.0042
     84  CE1       15.7430   -9.3560  -12.8820 C.ar  175  PHE175     -0.0003
     85  CE2       17.8450   -9.6570  -11.7680 C.ar  175  PHE175     -0.0003
     86  CZ        16.4600   -9.6730  -11.7390 C.ar  175  PHE175     -0.0000
     87  N         23.7970   -7.3600  -18.0580 N.3   177  LEU177     -0.1231
     88  CA        24.4760   -8.5100  -18.6890 C.3   177  LEU177      0.1693
     89  C         25.0160   -9.5530  -17.6970 C.2   177  LEU177      0.2592
     90  O         25.1540  -10.7230  -18.0560 O.2   177  LEU177     -0.2718
     91  CB        25.6000   -8.0540  -19.6410 C.3   177  LEU177      0.0284
     92  CG        26.9810   -7.6610  -19.0960 C.3   177  LEU177      0.0019
     93  CD1       27.9750   -7.5150  -20.2400 C.3   177  LEU177      0.0001
     94  CD2       26.9160   -6.3790  -18.2830 C.3   177  LEU177      0.0001
     95  N         25.3190   -9.1290  -16.4680 N.am  178  TRP178     -0.1962
     96  CA        25.7630  -10.0450  -15.4040 C.3   178  TRP178      0.1771
     97  C         24.6230  -10.7820  -14.6750 C.2   178  TRP178      0.2620
     98  O         24.8940  -11.5960  -13.7920 O.2   178  TRP178     -0.2715
     99  CB        26.6320   -9.3090  -14.3740 C.3   178  TRP178      0.0590
    100  CG        27.7370   -8.4760  -14.9620 C.ar  178  TRP178      0.0006
    101  CD1       28.0060   -7.1680  -14.6820 C.ar  178  TRP178      0.0946
    102  CD2       28.7080   -8.8860  -15.9360 C.ar  178  TRP178      0.0152
    103  NE1       29.0870   -6.7400  -15.4100 N.ar  178  TRP178     -0.2442
    104  CE2       29.5380   -7.7720  -16.1890 C.ar  178  TRP178      0.0810
    105  CE3       28.9640  -10.0870  -16.6130 C.ar  178  TRP178      0.0012
    106  CZ2       30.6060   -7.8200  -17.0930 C.ar  178  TRP178      0.0191
    107  CZ3       30.0250  -10.1340  -17.5140 C.ar  178  TRP178      0.0001
    108  CH2       30.8320   -9.0070  -17.7440 C.ar  178  TRP178      0.0015
    109  N         23.3680  -10.4990  -15.0410 N.am  179  GLU179     -0.1963
    110  CA        22.1830  -11.2410  -14.5680 C.3   179  GLU179      0.1733
    111  C         21.9160  -11.0610  -13.0670 C.2   179  GLU179      0.2616
    112  O         21.4680  -11.9910  -12.3920 O.2   179  GLU179     -0.2715
    113  CB        22.2890  -12.7350  -14.9250 C.3   179  GLU179      0.0429
    114  CG        22.8740  -13.0100  -16.3020 C.3   179  GLU179      0.1163
    115  CD        22.5650  -14.4020  -16.8000 C.2   179  GLU179      0.3649
    116  OE1       23.4570  -15.2720  -16.7370 O.co2 179  GLU179     -0.2457
    117  OE2       21.4260  -14.6300  -17.2500 O.co2 179  GLU179     -0.2457
    118  N         22.1620   -9.8490  -12.5660 N.am  180  GLU180     -0.1977
    119  CA        22.1560   -9.5640  -11.1290 C.3   180  GLU180      0.1602
    120  C         21.3300   -8.3280  -10.7850 C.2   180  GLU180      0.2287
    121  O         20.2990   -8.4360  -10.1200 O.2   180  GLU180     -0.2864
    122  CB        23.5930   -9.3760  -10.6440 C.3   180  GLU180      0.0415
    123  CG        24.3950  -10.6690  -10.5920 C.3   180  GLU180      0.1163
    124  CD        25.8970  -10.4690  -10.6900 C.2   180  GLU180      0.3649
    125  OE1       26.3590   -9.3760  -11.0930 O.co2 180  GLU180     -0.2457
    126  OE2       26.6250  -11.4260  -10.3610 O.co2 180  GLU180     -0.2457
    127  N         34.8780   -7.9550  -13.5090 N.3   306  ARG306     -0.1245
    128  CA        33.6040   -7.3340  -13.8930 C.3   306  ARG306      0.1563
    129  C         33.1970   -6.1760  -12.9900 C.2   306  ARG306      0.2260
    130  O         32.7500   -5.1590  -13.4970 O.2   306  ARG306     -0.2867
    131  CB        32.4690   -8.3500  -14.0800 C.3   306  ARG306      0.0307
    132  CG        32.1570   -9.3020  -12.9420 C.3   306  ARG306      0.0489
    133  CD        30.9680  -10.1540  -13.3610 C.3   306  ARG306      0.2205
    134  NE        30.3420  -10.8770  -12.2590 N.pl3 306  ARG306     -0.0865
    135  CZ        29.3370  -11.7420  -12.3940 C.cat 306  ARG306      0.5346
    136  NH1       28.8210  -12.0240  -13.5900 N.pl3 306  ARG306      0.1354
    137  NH2       28.8440  -12.3380  -11.3180 N.pl3 306  ARG306      0.1354
    138  N         30.9130  -13.5460   -7.1740 N.3   312  TYR312     -0.1241
    139  CA        30.5690  -14.7860   -7.8690 C.3   312  TYR312      0.1605
    140  C         31.8070  -15.6620   -8.0360 C.2   312  TYR312      0.2264
    141  O         32.6940  -15.3520   -8.8350 O.2   312  TYR312     -0.2867
    142  CB        29.9340  -14.4830   -9.2280 C.3   312  TYR312      0.0534
    143  CG        29.4920  -15.7010  -10.0140 C.ar  312  TYR312     -0.0201
    144  CD1       28.5570  -16.5940   -9.4900 C.ar  312  TYR312     -0.0009
    145  CD2       29.9930  -15.9530  -11.2940 C.ar  312  TYR312     -0.0009
    146  CE1       28.1420  -17.7070  -10.2120 C.ar  312  TYR312      0.0417
    147  CE2       29.5830  -17.0620  -12.0220 C.ar  312  TYR312      0.0417
    148  CZ        28.6600  -17.9370  -11.4790 C.ar  312  TYR312      0.1957
    149  OH        28.2560  -19.0370  -12.2020 O.3   312  TYR312     -0.2866
    150  N         38.0330  -11.9340  -15.3040 N.3   318  TRP318     -0.1241
    151  CA        37.4090  -12.7400  -16.3580 C.3   318  TRP318      0.1605
    152  C         38.2880  -12.7200  -17.6070 C.2   318  TRP318      0.2264
    153  O         38.9090  -11.6990  -17.9190 O.2   318  TRP318     -0.2867
    154  CB        36.0180  -12.1880  -16.6960 C.3   318  TRP318      0.0550
    155  CG        34.9760  -12.4200  -15.6310 C.ar  318  TRP318      0.0003
    156  CD1       35.0750  -12.1190  -14.3020 C.ar  318  TRP318      0.0946
    157  CD2       33.6700  -12.9800  -15.8150 C.ar  318  TRP318      0.0152
    158  NE1       33.9200  -12.4700  -13.6460 N.ar  318  TRP318     -0.2442
    159  CE2       33.0400  -13.0000  -14.5520 C.ar  318  TRP318      0.0810
    160  CE3       32.9730  -13.4740  -16.9250 C.ar  318  TRP318      0.0012
    161  CZ2       31.7460  -13.4940  -14.3660 C.ar  318  TRP318      0.0191
    162  CZ3       31.6800  -13.9610  -16.7410 C.ar  318  TRP318      0.0001
    163  CH2       31.0820  -13.9650  -15.4690 C.ar  318  TRP318      0.0015
    164  N         35.6080  -19.3480  -17.8330 N.3   403  GLU403     -0.1245
    165  CA        34.9570  -18.0580  -17.6060 C.3   403  GLU403      0.1567
    166  C         35.9100  -17.1050  -16.8910 C.2   403  GLU403      0.2260
    167  O         36.1880  -16.0070  -17.3830 O.2   403  GLU403     -0.2867
    168  CB        33.6840  -18.2440  -16.7750 C.3   403  GLU403      0.0388
    169  CG        32.8730  -16.9770  -16.5650 C.3   403  GLU403      0.1160
    170  CD        31.6020  -17.2340  -15.7910 C.2   403  GLU403      0.3649
    171  OE1       30.5120  -16.9720  -16.3390 O.co2 403  GLU403     -0.2457
    172  OE2       31.6960  -17.6990  -14.6390 O.co2 403  GLU403     -0.2457
    173  N         34.2600  -21.8160  -21.8370 N.3   418  LEU418     -0.1245
    174  CA        33.1740  -20.8600  -22.0610 C.3   418  LEU418      0.1561
    175  C         33.2550  -20.3100  -23.4860 C.2   418  LEU418      0.2260
    176  O         34.3080  -19.8350  -23.9130 O.2   418  LEU418     -0.2867
    177  CB        33.2230  -19.7160  -21.0410 C.3   418  LEU418      0.0270
    178  CG        32.1240  -18.6450  -21.1360 C.3   418  LEU418      0.0019
    179  CD1       30.7340  -19.2450  -20.9780 C.3   418  LEU418      0.0001
    180  CD2       32.3490  -17.5580  -20.1000 C.3   418  LEU418      0.0001
    181  N         31.8200  -17.6570  -24.8390 N.3   420  TRP420     -0.1241
    182  CA        32.0690  -16.2090  -24.8160 C.3   420  TRP420      0.1605
    183  C         33.5680  -15.9190  -24.7840 C.2   420  TRP420      0.2264
    184  O         34.0760  -15.2100  -25.6500 O.2   420  TRP420     -0.2867
    185  CB        31.3810  -15.5630  -23.6040 C.3   420  TRP420      0.0550
    186  CG        31.2070  -14.0540  -23.6550 C.ar  420  TRP420      0.0003
    187  CD1       31.9500  -13.1400  -24.3580 C.ar  420  TRP420      0.0946
    188  CD2       30.2390  -13.2960  -22.9250 C.ar  420  TRP420      0.0152
    189  NE1       31.4880  -11.8720  -24.1240 N.ar  420  TRP420     -0.2442
    190  CE2       30.4410  -11.9360  -23.2440 C.ar  420  TRP420      0.0810
    191  CE3       29.2110  -13.6350  -22.0350 C.ar  420  TRP420      0.0012
    192  CZ2       29.6510  -10.9140  -22.7060 C.ar  420  TRP420      0.0191
    193  CZ3       28.4260  -12.6190  -21.4980 C.ar  420  TRP420      0.0001
    194  CH2       28.6520  -11.2740  -21.8360 C.ar  420  TRP420      0.0015
@<TRIPOS>BOND
     1    46    45    2
     2    45    44    1
     3    35    34    2
     4    34    33    1
     5    34    43   am
     6   184   183    2
     7    21    20    2
     8    44    43    1
     9    44    47    1
    10    33    32    1
    11    33    36    1
    12   181   182    1
    13   182   183    1
    14   182   185    1
    15    20    19    1
    16    47    48    1
    17   187   189   ar
    18   187   186   ar
    19   189   190   ar
    20   176   175    2
    21    36    37    1
    22    37    38    1
    23     1     2    1
    24    18    19    1
    25   186   185    1
    26   186   188   ar
    27   175   174    1
    28    19    22    1
    29     4     3    2
    30    48    50   ar
    31    48    49   ar
    32   190   188   ar
    33   190   192   ar
    34     2     3    1
    35     2     5    1
    36   188   191   ar
    37   192   194   ar
    38    22    23    1
    39    38    39    1
    40   174   173    1
    41   174   177    1
    42   191   193   ar
    43   194   193   ar
    44    39    40    2
    45    23    25   ar
    46    23    24   ar
    47   178   177    1
    48   178   179    1
    49   178   180    1
    50    41    40    1
    51    28    25   ar
    52    28    30   ar
    53    40    42    1
    54    25    27   ar
    55    93    92    1
    56     9     8    2
    57    24    26   ar
    58    30    31   ar
    59    91    92    1
    60    91    88    1
    61     8     7    1
    62    92    94    1
    63    27    26   ar
    64    27    29   ar
    65    88    87    1
    66    88    89    1
    67    31    29   ar
    68    10     7    1
    69    10    11    1
    70    90    89    2
    71   153   152    2
    72     7     6    1
    73    13    11   ar
    74    13    15   ar
    75   164   165    1
    76    79    78    2
    77   108   107   ar
    78   108   106   ar
    79    89    95   am
    80   152   151    1
    81   165   166    1
    82   165   168    1
    83   107   105   ar
    84   167   166    2
    85    11    12   ar
    86   117   115   ar
    87   106   104   ar
    88    15    16   ar
    89   160   162   ar
    90   160   157   ar
    91   115   116   ar
    92   115   114    1
    93   168   169    1
    94   162   163   ar
    95   154   151    1
    96   154   155    1
    97   105   102   ar
    98   169   170    1
    99    78    77    1
   100    95    96    1
   101   151   150    1
   102   171   170   ar
   103   114   113    1
   104    76    77    1
   105   104   102   ar
   106   104   103   ar
   107    66    64   ar
   108    66    67   ar
   109    12    14   ar
   110   102   100   ar
   111    64    63   ar
   112   157   155   ar
   113   157   159   ar
   114    75    74    2
   115   170   172   ar
   116    16    14   ar
   117    16    17    1
   118    77    80    1
   119   155   156   ar
   120   163   161   ar
   121    67    69   ar
   122    67    65   ar
   123   103   101   ar
   124    96    97    1
   125    96    99    1
   126    69    71   ar
   127    80    81    1
   128   109    97   am
   129   109   110    1
   130    63    65   ar
   131    63    62    1
   132   100   101   ar
   133   100    99    1
   134   113   110    1
   135    74    73    1
   136    97    98    2
   137    65    68   ar
   138   110   111    1
   139   159   161   ar
   140   159   158   ar
   141    71    70   ar
   142    62    59    1
   143   156   158   ar
   144    81    82   ar
   145    81    83   ar
   146   131   128    1
   147   131   132    1
   148    82    84   ar
   149   128   127    1
   150   128   129    1
   151    68    70   ar
   152   136   135    1
   153   130   129    2
   154    73    72    1
   155   133   132    1
   156   133   134    1
   157    72    60   am
   158   111   118   am
   159   111   112    2
   160    60    59    1
   161    60    61    2
   162    59    58    1
   163    83    85   ar
   164    84    86   ar
   165   118   119    1
   166   135   134    2
   167   135   137    1
   168    58    53   am
   169   149   148    1
   170   147   148   ar
   171   147   145   ar
   172    53    54    2
   173    53    52    1
   174    85    86   ar
   175    51    52    1
   176    51    57    1
   177   148   146   ar
   178   145   143   ar
   179    52    55    1
   180   119   120    1
   181   119   122    1
   182   125   124   ar
   183   120   121    2
   184   124   123    1
   185   124   126   ar
   186   122   123    1
   187    57    56    1
   188   146   144   ar
   189   143   144   ar
   190   143   142    1
   191    55    56    1
   192   142   139    1
   193   141   140    2
   194   140   139    1
   195   139   138    1
