@<TRIPOS>MOLECULE
tmp/6fhyB04.pdb
 81 82 0 0 0
SMALL
GASTEIGER

@<TRIPOS>ATOM
      1  N          0.2560   13.4710    1.1580 N.3   289  ASN289     -0.1225
      2  CA         0.2640   13.0880   -0.2640 C.3   289  ASN289      0.1785
      3  C         -0.6280   13.9900   -1.1250 C.2   289  ASN289      0.2598
      4  O         -0.8750   15.1560   -0.7760 O.2   289  ASN289     -0.2718
      5  CB        -0.1110   11.6050   -0.4360 C.3   289  ASN289      0.1169
      6  CG         0.6160   10.7120    0.5370 C.2   289  ASN289      0.2627
      7  OD1        1.8390   10.7740    0.6410 O.2   289  ASN289     -0.2716
      8  ND2       -0.1300    9.9000    1.2830 N.am  289  ASN289     -0.0877
      9  N         -1.1060   13.4480   -2.2430 N.am  290  GLY290     -0.1942
     10  CA        -1.7760   14.2210   -3.2570 C.3   290  GLY290      0.2014
     11  C         -0.8030   15.0650   -4.0500 C.2   290  GLY290      0.2639
     12  O          0.3790   15.2110   -3.7040 O.2   290  GLY290     -0.2714
     13  N         -1.3150   15.6120   -5.1360 N.am  291  VAL291     -0.1963
     14  CA        -0.5930   16.5820   -5.9370 C.3   291  VAL291      0.1727
     15  C         -1.5810   17.7110   -6.1040 C.2   291  VAL291      0.2616
     16  O         -2.6080   17.5190   -6.7510 O.2   291  VAL291     -0.2715
     17  CB        -0.2110   15.9980   -7.3200 C.3   291  VAL291      0.0290
     18  CG1        0.5880   17.0130   -8.1340 C.3   291  VAL291      0.0023
     19  CG2        0.5280   14.6560   -7.1640 C.3   291  VAL291      0.0023
     20  N         -1.2880   18.8780   -5.5200 N.am  292  ILE292     -0.1977
     21  CA        -2.2700   19.9800   -5.4860 C.3   292  ILE292      0.1596
     22  C         -1.7920   21.2640   -6.1570 C.2   292  ILE292      0.2287
     23  O         -0.5930   21.5260   -6.2430 O.2   292  ILE292     -0.2864
     24  CB        -2.7970   20.2730   -4.0510 C.3   292  ILE292      0.0276
     25  CG1       -1.6690   20.6500   -3.0900 C.3   292  ILE292      0.0022
     26  CG2       -3.5820   19.0750   -3.5270 C.3   292  ILE292      0.0022
     27  CD1       -2.1630   21.2410   -1.7730 C.3   292  ILE292      0.0001
     28  N         -6.9400   20.0770   -7.4360 N.3   312  GLY312     -0.1210
     29  CA        -6.0360   19.0470   -7.9950 C.3   312  GLY312      0.1956
     30  C         -5.4150   19.4180   -9.3370 C.2   312  GLY312      0.2613
     31  O         -5.6200   20.5310   -9.8530 O.2   312  GLY312     -0.2717
     32  N         -4.6880   18.4620   -9.9190 N.am  313  THR313     -0.1938
     33  CA        -3.9820   18.6730  -11.1880 C.3   313  THR313      0.2028
     34  C         -4.9410   18.7200  -12.3470 C.2   313  THR313      0.2642
     35  O         -4.6060   19.2830  -13.3790 O.2   313  THR313     -0.2714
     36  CB        -2.9080   17.5960  -11.4590 C.3   313  THR313      0.1808
     37  OG1       -3.4770   16.2900  -11.2800 O.3   313  THR313     -0.2208
     38  CG2       -1.7470   17.7930  -10.5180 C.3   313  THR313      0.0379
     39  N         -6.1360   18.1590  -12.1720 N.am  314  ASP314     -0.1971
     40  CA        -7.2380   18.3060  -13.1530 C.3   314  ASP314      0.1709
     41  C         -8.1380   19.5410  -12.9380 C.2   314  ASP314      0.2293
     42  O         -9.1750   19.6770  -13.5880 O.2   314  ASP314     -0.2864
     43  CB        -8.1080   17.0460  -13.1650 C.3   314  ASP314      0.1436
     44  CG        -8.6470   16.6830  -11.7880 C.2   314  ASP314      0.3671
     45  OD1       -8.4960   17.4780  -10.8280 O.co2 314  ASP314     -0.2456
     46  OD2       -9.2000   15.5830  -11.6700 O.co2 314  ASP314     -0.2456
     47  N        -10.4600   18.5230   -4.6930 N.3   318  TRP318     -0.1241
     48  CA       -10.2360   17.2430   -4.0240 C.3   318  TRP318      0.1605
     49  C        -10.3370   17.3750   -2.4970 C.2   318  TRP318      0.2264
     50  O        -10.2400   18.4720   -1.9480 O.2   318  TRP318     -0.2867
     51  CB        -8.8820   16.6690   -4.4380 C.3   318  TRP318      0.0550
     52  CG        -8.8380   16.2390   -5.8720 C.ar  318  TRP318      0.0003
     53  CD1       -8.9190   17.0380   -6.9690 C.ar  318  TRP318      0.0946
     54  CD2       -8.7050   14.8970   -6.3590 C.ar  318  TRP318      0.0152
     55  NE1       -8.8370   16.2780   -8.1220 N.ar  318  TRP318     -0.2442
     56  CE2       -8.7110   14.9600   -7.7760 C.ar  318  TRP318      0.0810
     57  CE3       -8.5730   13.6490   -5.7380 C.ar  318  TRP318      0.0012
     58  CZ2       -8.5800   13.8150   -8.5880 C.ar  318  TRP318      0.0191
     59  CZ3       -8.4480   12.4970   -6.5510 C.ar  318  TRP318      0.0001
     60  CH2       -8.4510   12.6000   -7.9590 C.ar  318  TRP318      0.0015
     61  N         -8.0430    8.3610    1.9180 N.3   329  PRO329     -0.2102
     62  CA        -7.5170    8.5390    0.5540 C.3   329  PRO329      0.1504
     63  C         -8.1250    9.7740   -0.0930 C.2   329  PRO329      0.2575
     64  O         -9.3310   10.0020    0.0560 O.2   329  PRO329     -0.2718
     65  CB        -7.9980    7.2870   -0.2000 C.3   329  PRO329      0.0282
     66  CG        -8.5040    6.3360    0.8260 C.3   329  PRO329      0.0208
     67  CD        -8.7600    7.0860    2.0930 C.3   329  PRO329      0.0893
     68  N         -7.3120   10.5540   -0.8010 N.am  330  TRP330     -0.1977
     69  CA        -7.8140   11.7180   -1.5210 C.3   330  TRP330      0.1640
     70  C         -8.9540   11.2730   -2.4480 C.2   330  TRP330      0.2290
     71  O         -8.8510   10.2180   -3.0900 O.2   330  TRP330     -0.2864
     72  CB        -6.7020   12.3540   -2.3500 C.3   330  TRP330      0.0576
     73  CG        -5.7610   13.2430   -1.6180 C.ar  330  TRP330      0.0006
     74  CD1       -4.5280   12.9240   -1.1560 C.ar  330  TRP330      0.0946
     75  CD2       -5.9570   14.6260   -1.3240 C.ar  330  TRP330      0.0152
     76  NE1       -3.9440   14.0190   -0.5770 N.ar  330  TRP330     -0.2442
     77  CE2       -4.8090   15.0770   -0.6600 C.ar  330  TRP330      0.0810
     78  CE3       -7.0070   15.5250   -1.5480 C.ar  330  TRP330      0.0012
     79  CZ2       -4.6750   16.3930   -0.2160 C.ar  330  TRP330      0.0191
     80  CZ3       -6.8860   16.8230   -1.0970 C.ar  330  TRP330      0.0001
     81  CH2       -5.7180   17.2550   -0.4530 C.ar  330  TRP330      0.0015
@<TRIPOS>BOND
     1    42    41    2
     2    35    34    2
     3    43    40    1
     4    43    44    1
     5    40    41    1
     6    40    39    1
     7    34    39   am
     8    34    33    1
     9    44    46   ar
    10    44    45   ar
    11    36    37    1
    12    36    33    1
    13    36    38    1
    14    33    32    1
    15    32    30   am
    16    31    30    2
    17    30    29    1
    18    58    60   ar
    19    58    56   ar
    20    18    17    1
    21    55    56   ar
    22    55    53   ar
    23    29    28    1
    24    60    59   ar
    25    56    54   ar
    26    17    19    1
    27    17    14    1
    28    53    52   ar
    29    16    15    2
    30    59    57   ar
    31    54    52   ar
    32    54    57   ar
    33    23    22    2
    34    22    21    1
    35    15    14    1
    36    15    20   am
    37    14    13    1
    38    52    51    1
    39    20    21    1
    40    21    24    1
    41    13    11   am
    42    47    48    1
    43    51    48    1
    44    24    26    1
    45    24    25    1
    46    11    12    2
    47    11    10    1
    48    48    49    1
    49    10     9    1
    50    71    70    2
    51    25    27    1
    52    49    50    2
    53    70    69    1
    54    72    73    1
    55    72    69    1
    56     9     3   am
    57    73    75   ar
    58    73    74   ar
    59    78    75   ar
    60    78    80   ar
    61    69    68    1
    62    75    77   ar
    63    74    76   ar
    64     3     4    2
    65     3     2    1
    66    80    81   ar
    67    68    63   am
    68    77    76   ar
    69    77    79   ar
    70    81    79   ar
    71     5     2    1
    72     5     6    1
    73     2     1    1
    74    65    62    1
    75    65    66    1
    76    63    64    2
    77    63    62    1
    78     6     7    2
    79     6     8   am
    80    62    61    1
    81    66    67    1
    82    61    67    1
