@<TRIPOS>MOLECULE
tmp/6fhyB02.pdb
 77 77 0 0 0
SMALL
GASTEIGER

@<TRIPOS>ATOM
      1  N          6.1430   43.6650   12.6920 N.3   193  ASN193     -0.1225
      2  CA         7.4500   43.3620   12.0840 C.3   193  ASN193      0.1785
      3  C          7.4580   42.0570   11.2950 C.2   193  ASN193      0.2598
      4  O          6.4030   41.6050   10.8100 O.2   193  ASN193     -0.2718
      5  CB         8.5400   43.3870   13.1670 C.3   193  ASN193      0.1169
      6  CG         8.4110   44.5780   14.0670 C.2   193  ASN193      0.2627
      7  OD1        8.1330   44.4460   15.2570 O.2   193  ASN193     -0.2716
      8  ND2        8.5620   45.7520   13.4980 N.am  193  ASN193     -0.0877
      9  N          8.6430   41.4680   11.1490 N.am  194  GLY194     -0.1942
     10  CA         8.8380   40.2560   10.3680 C.3   194  GLY194      0.2014
     11  C          8.7250   40.5640    8.8840 C.2   194  GLY194      0.2639
     12  O          8.5210   41.7140    8.4820 O.2   194  GLY194     -0.2714
     13  N          8.8880   39.5270    8.0720 N.am  195  ILE195     -0.1963
     14  CA         8.6000   39.6040    6.6360 C.3   195  ILE195      0.1727
     15  C          7.6060   38.5010    6.3100 C.2   195  ILE195      0.2616
     16  O          7.8510   37.3400    6.6340 O.2   195  ILE195     -0.2715
     17  CB         9.8760   39.4540    5.7580 C.3   195  ILE195      0.0290
     18  CG1       10.9210   40.5150    6.1080 C.3   195  ILE195      0.0022
     19  CG2        9.5430   39.5920    4.2710 C.3   195  ILE195      0.0023
     20  CD1       12.3160   40.1340    5.6470 C.3   195  ILE195      0.0001
     21  N          6.4760   38.8540    5.6940 N.am  196  ILE196     -0.1977
     22  CA         5.5230   37.8310    5.2630 C.3   196  ILE196      0.1596
     23  C          5.3760   37.8080    3.7490 C.2   196  ILE196      0.2287
     24  O          5.3580   38.8430    3.0960 O.2   196  ILE196     -0.2864
     25  CB         4.1450   37.9050    5.9770 C.3   196  ILE196      0.0276
     26  CG1        3.4370   39.2380    5.7460 C.3   196  ILE196      0.0022
     27  CG2        4.3350   37.6520    7.4670 C.3   196  ILE196      0.0022
     28  CD1        2.0110   39.2670    6.2950 C.3   196  ILE196      0.0001
     29  N          7.0590   32.9210    5.6590 N.3   216  GLY216     -0.1210
     30  CA         8.1420   33.8850    5.8580 C.3   216  GLY216      0.1956
     31  C          9.0010   34.0660    4.6110 C.2   216  GLY216      0.2612
     32  O          8.7990   33.3910    3.5960 O.2   216  GLY216     -0.2717
     33  N          9.9690   34.9730    4.7080 N.am  217  ALA217     -0.1965
     34  CA        10.9840   35.1950    3.6530 C.3   217  ALA217      0.1728
     35  C         11.7730   33.9160    3.2970 C.2   217  ALA217      0.2616
     36  O         12.1220   33.6930    2.1370 O.2   217  ALA217     -0.2715
     37  CB        11.9400   36.2960    4.0840 C.3   217  ALA217      0.0334
     38  N         12.0220   33.0780    4.3020 N.am  218  ASP218     -0.1971
     39  CA        12.6490   31.7650    4.1190 C.3   218  ASP218      0.1709
     40  C         11.6860   30.6520    3.6790 C.2   218  ASP218      0.2293
     41  O         12.0650   29.4850    3.6490 O.2   218  ASP218     -0.2864
     42  CB        13.3880   31.3680    5.4110 C.3   218  ASP218      0.1436
     43  CG        12.4510   31.1390    6.6040 C.2   218  ASP218      0.3671
     44  OD1       11.2170   31.2910    6.4640 O.co2 218  ASP218     -0.2456
     45  OD2       12.9530   30.8110    7.6970 O.co2 218  ASP218     -0.2456
     46  N          5.6250   30.5550    9.6890 N.3   222  TRP222     -0.1241
     47  CA         5.8550   31.3240   10.8920 C.3   222  TRP222      0.1605
     48  C          4.5420   31.6940   11.5670 C.2   222  TRP222      0.2264
     49  O          3.4890   31.7380   10.9200 O.2   222  TRP222     -0.2867
     50  CB         6.5900   32.6090   10.5440 C.3   222  TRP222      0.0550
     51  CG         7.9930   32.4000   10.0880 C.ar  222  TRP222      0.0003
     52  CD1        8.4070   31.9610    8.8700 C.ar  222  TRP222      0.0946
     53  CD2        9.1670   32.6570   10.8480 C.ar  222  TRP222      0.0152
     54  NE1        9.7830   31.9170    8.8240 N.ar  222  TRP222     -0.2442
     55  CE2       10.2750   32.3420   10.0310 C.ar  222  TRP222      0.0810
     56  CE3        9.3940   33.1230   12.1480 C.ar  222  TRP222      0.0012
     57  CZ2       11.5980   32.4720   10.4770 C.ar  222  TRP222      0.0191
     58  CZ3       10.7140   33.2590   12.5900 C.ar  222  TRP222      0.0001
     59  CH2       11.7970   32.9280   11.7500 C.ar  222  TRP222      0.0015
     60  N          7.2470   37.5130   19.9900 N.3   236  GLY236     -0.1210
     61  CA         8.0270   37.6480   18.7860 C.3   236  GLY236      0.1956
     62  C          7.5970   36.5710   17.8190 C.2   236  GLY236      0.2611
     63  O          6.9230   35.6030   18.1910 O.2   236  GLY236     -0.2717
     64  N          8.0140   36.7410   16.5710 N.am  237  TRP237     -0.1976
     65  CA         7.8370   35.7180   15.5480 C.3   237  TRP237      0.1640
     66  C          8.5920   34.4330   15.8910 C.2   237  TRP237      0.2290
     67  O          9.7130   34.4810   16.3930 O.2   237  TRP237     -0.2864
     68  CB         8.3280   36.2470   14.1940 C.3   237  TRP237      0.0576
     69  CG         7.3990   37.1720   13.5050 C.ar  237  TRP237      0.0006
     70  CD1        7.4950   38.5220   13.4390 C.ar  237  TRP237      0.0946
     71  CD2        6.2390   36.8140   12.7460 C.ar  237  TRP237      0.0152
     72  NE1        6.4690   39.0400   12.6840 N.ar  237  TRP237     -0.2442
     73  CE2        5.6790   38.0110   12.2500 C.ar  237  TRP237      0.0810
     74  CE3        5.6210   35.5990   12.4360 C.ar  237  TRP237      0.0012
     75  CZ2        4.5230   38.0300   11.4590 C.ar  237  TRP237      0.0191
     76  CZ3        4.4720   35.6150   11.6470 C.ar  237  TRP237      0.0001
     77  CH2        3.9340   36.8280   11.1720 C.ar  237  TRP237      0.0015
@<TRIPOS>BOND
     1    36    35    2
     2    24    23    2
     3    35    34    1
     4    35    38   am
     5    32    31    2
     6    41    40    2
     7    34    37    1
     8    34    33    1
     9    40    39    1
    10    23    22    1
    11    39    38    1
    12    39    42    1
    13    19    17    1
    14    31    33   am
    15    31    30    1
    16    22    21    1
    17    22    25    1
    18    42    43    1
    19    20    18    1
    20    29    30    1
    21    21    15   am
    22    26    25    1
    23    26    28    1
    24    17    18    1
    25    17    14    1
    26    25    27    1
    27    15    16    2
    28    15    14    1
    29    44    43   ar
    30    43    45   ar
    31    14    13    1
    32    13    11   am
    33    12    11    2
    34    54    52   ar
    35    54    55   ar
    36    52    51   ar
    37    11    10    1
    38    46    47    1
    39    55    57   ar
    40    55    53   ar
    41    51    50    1
    42    51    53   ar
    43    10     9    1
    44    57    59   ar
    45    50    47    1
    46     4     3    2
    47    53    56   ar
    48    47    48    1
    49    49    48    2
    50     9     3   am
    51    77    75   ar
    52    77    76   ar
    53     3     2    1
    54    75    73   ar
    55    76    74   ar
    56    59    58   ar
    57     2     1    1
    58     2     5    1
    59    56    58   ar
    60    73    72   ar
    61    73    71   ar
    62    74    71   ar
    63    72    70   ar
    64    71    69   ar
    65     5     6    1
    66    70    69   ar
    67     8     6   am
    68    69    68    1
    69     6     7    2
    70    68    65    1
    71    65    66    1
    72    65    64    1
    73    66    67    2
    74    64    62   am
    75    62    63    2
    76    62    61    1
    77    61    60    1
