@<TRIPOS>MOLECULE
tmp/6fhyB03.pdb
 91 91 0 0 0
SMALL
GASTEIGER

@<TRIPOS>ATOM
      1  N          9.0100   25.9960   10.9640 N.3   241  ASN241     -0.1225
      2  CA         9.8430   25.3360    9.9510 C.3   241  ASN241      0.1785
      3  C          9.0130   24.9410    8.7280 C.2   241  ASN241      0.2598
      4  O          7.9810   25.5700    8.4560 O.2   241  ASN241     -0.2718
      5  CB        10.5860   24.1510   10.5770 C.3   241  ASN241      0.1169
      6  CG        11.2760   24.5330   11.8640 C.2   241  ASN241      0.2627
      7  OD1       12.1160   25.4280   11.8740 O.2   241  ASN241     -0.2716
      8  ND2       10.9040   23.8810   12.9640 N.am  241  ASN241     -0.0877
      9  N          9.4470   23.9070    8.0060 N.am  242  GLY242     -0.1942
     10  CA         8.8600   23.5380    6.7240 C.3   242  GLY242      0.2014
     11  C          9.3450   24.4600    5.6070 C.2   242  GLY242      0.2639
     12  O          9.9620   25.4910    5.8450 O.2   242  GLY242     -0.2714
     13  N          9.0760   24.0730    4.3760 N.am  243  VAL243     -0.1963
     14  CA         9.2840   24.9530    3.2220 C.3   243  VAL243      0.1727
     15  C          8.0150   24.7960    2.4230 C.2   243  VAL243      0.2616
     16  O          7.7450   23.7150    1.9260 O.2   243  VAL243     -0.2715
     17  CB        10.5220   24.5510    2.3800 C.3   243  VAL243      0.0290
     18  CG1       10.6990   25.4910    1.1920 C.3   243  VAL243      0.0023
     19  CG2       11.7750   24.5660    3.2450 C.3   243  VAL243      0.0023
     20  N          7.2260   25.8640    2.3300 N.am  244  ILE244     -0.1977
     21  CA         5.8780   25.7640    1.7850 C.3   244  ILE244      0.1596
     22  C          5.7120   26.6060    0.5260 C.2   244  ILE244      0.2287
     23  O          6.2990   27.6860    0.3970 O.2   244  ILE244     -0.2864
     24  CB         4.7780   26.0720    2.8500 C.3   244  ILE244      0.0276
     25  CG1        4.8710   27.4870    3.4120 C.3   244  ILE244      0.0022
     26  CG2        4.8480   25.0470    3.9680 C.3   244  ILE244      0.0022
     27  CD1        3.6470   27.8950    4.2240 C.3   244  ILE244      0.0001
     28  N          0.7610   23.4700    1.0110 N.3   263  ARG263     -0.1231
     29  CA         1.4040   22.7560   -0.0760 C.3   263  ARG263      0.1694
     30  C          2.9210   22.6990    0.1530 C.2   263  ARG263      0.2593
     31  O          3.5470   23.6930    0.5710 O.2   263  ARG263     -0.2718
     32  CB         1.0870   23.3840   -1.4230 C.3   263  ARG263      0.0321
     33  CG         1.5250   22.4560   -2.5480 C.3   263  ARG263      0.0489
     34  CD         1.0670   22.9380   -3.8900 C.3   263  ARG263      0.2205
     35  NE         1.7730   24.1490   -4.2620 N.pl3 263  ARG263     -0.0865
     36  CZ         1.7170   24.6970   -5.4670 C.cat 263  ARG263      0.5346
     37  NH1        0.9700   24.1440   -6.4220 N.pl3 263  ARG263      0.1354
     38  NH2        2.4050   25.8080   -5.7100 N.pl3 263  ARG263      0.1354
     39  N          3.4920   21.5280   -0.1080 N.am  264  GLY264     -0.1942
     40  CA         4.9420   21.3200    0.0360 C.3   264  GLY264      0.2014
     41  C          5.7570   21.5970   -1.2260 C.2   264  GLY264      0.2640
     42  O          5.1990   21.7960   -2.3140 O.2   264  GLY264     -0.2714
     43  N          7.0850   21.5760   -1.0760 N.am  265  THR265     -0.1936
     44  CA         8.0150   21.7120   -2.2230 C.3   265  THR265      0.2028
     45  C          7.8300   20.5860   -3.2530 C.2   265  THR265      0.2642
     46  O          8.1690   20.7660   -4.4150 O.2   265  THR265     -0.2714
     47  CB         9.5080   21.7940   -1.7930 C.3   265  THR265      0.1808
     48  OG1        9.8640   20.6450   -1.0160 O.3   265  THR265     -0.2208
     49  CG2        9.7730   23.0320   -0.9670 C.3   265  THR265      0.0379
     50  N          7.2760   19.4420   -2.8370 N.am  266  ASP266     -0.1971
     51  CA         6.8780   18.3640   -3.7710 C.3   266  ASP266      0.1709
     52  C          5.4400   18.4520   -4.2790 C.2   266  ASP266      0.2293
     53  O          4.9400   17.5010   -4.8860 O.2   266  ASP266     -0.2864
     54  CB         7.1060   16.9780   -3.1340 C.3   266  ASP266      0.1436
     55  CG         6.3260   16.7770   -1.8300 C.2   266  ASP266      0.3671
     56  OD1        5.5580   17.6820   -1.4250 O.co2 266  ASP266     -0.2456
     57  OD2        6.4880   15.7040   -1.2070 O.co2 266  ASP266     -0.2456
     58  N          1.0320   18.9110    3.0560 N.3   270  TRP270     -0.1241
     59  CA         1.7360   18.6370    4.3040 C.3   270  TRP270      0.1605
     60  C          1.0230   19.3100    5.4770 C.2   270  TRP270      0.2264
     61  O          0.2900   20.2840    5.2850 O.2   270  TRP270     -0.2867
     62  CB         3.1680   19.1580    4.2310 C.3   270  TRP270      0.0550
     63  CG         4.0320   18.3810    3.2880 C.ar  270  TRP270      0.0003
     64  CD1        3.9500   18.3490    1.9220 C.ar  270  TRP270      0.0946
     65  CD2        5.1010   17.5100    3.6450 C.ar  270  TRP270      0.0152
     66  NE1        4.9150   17.5040    1.4010 N.ar  270  TRP270     -0.2442
     67  CE2        5.6420   16.9860    2.4410 C.ar  270  TRP270      0.0810
     68  CE3        5.6690   17.1310    4.8620 C.ar  270  TRP270      0.0012
     69  CZ2        6.7170   16.0910    2.4310 C.ar  270  TRP270      0.0191
     70  CZ3        6.7400   16.2410    4.8530 C.ar  270  TRP270      0.0001
     71  CH2        7.2460   15.7250    3.6430 C.ar  270  TRP270      0.0015
     72  N          6.7090   17.6220   14.0070 N.3   284  SER284     -0.1202
     73  CA         7.4060   17.8500   12.7470 C.3   284  SER284      0.2020
     74  C          6.3730   17.7260   11.6300 C.2   284  SER284      0.2618
     75  O          5.2860   17.1590   11.8100 O.2   284  SER284     -0.2717
     76  CB         8.5680   16.8730   12.5440 C.3   284  SER284      0.2103
     77  OG         8.1150   15.5380   12.5620 O.3   284  SER284     -0.2182
     78  N          6.7110   18.2840   10.4820 N.am  285  TRP285     -0.1975
     79  CA         5.8400   18.2360    9.3310 C.3   285  TRP285      0.1640
     80  C          5.7680   16.8420    8.7590 C.2   285  TRP285      0.2290
     81  O          6.7520   16.1180    8.7620 O.2   285  TRP285     -0.2864
     82  CB         6.3470   19.1780    8.2660 C.3   285  TRP285      0.0576
     83  CG         6.1420   20.6330    8.5420 C.ar  285  TRP285      0.0006
     84  CD1        6.9540   21.4470    9.2590 C.ar  285  TRP285      0.0946
     85  CD2        5.0840   21.4650    8.0380 C.ar  285  TRP285      0.0152
     86  NE1        6.4780   22.7280    9.2390 N.ar  285  TRP285     -0.2442
     87  CE2        5.3330   22.7720    8.4940 C.ar  285  TRP285      0.0810
     88  CE3        3.9590   21.2320    7.2410 C.ar  285  TRP285      0.0012
     89  CZ2        4.4790   23.8480    8.2030 C.ar  285  TRP285      0.0191
     90  CZ3        3.1180   22.3030    6.9440 C.ar  285  TRP285      0.0001
     91  CH2        3.3840   23.5890    7.4270 C.ar  285  TRP285      0.0015
@<TRIPOS>BOND
     1    37    36    1
     2    38    36    1
     3    36    35    2
     4    53    52    2
     5    46    45    2
     6    52    51    1
     7    35    34    1
     8    34    33    1
     9    51    54    1
    10    51    50    1
    11    45    50   am
    12    45    44    1
    13    54    55    1
    14    33    32    1
    15    42    41    2
    16    44    47    1
    17    44    43    1
    18    55    56   ar
    19    55    57   ar
    20    47    48    1
    21    47    49    1
    22    32    29    1
    23    41    43   am
    24    41    40    1
    25    39    40    1
    26    39    30   am
    27    29    30    1
    28    29    28    1
    29    30    31    2
    30    23    22    2
    31    22    21    1
    32    18    17    1
    33    66    64   ar
    34    66    67   ar
    35    21    20    1
    36    21    24    1
    37    64    63   ar
    38    16    15    2
    39    20    15   am
    40    17    14    1
    41    17    19    1
    42    15    14    1
    43    69    67   ar
    44    69    71   ar
    45    67    65   ar
    46    24    25    1
    47    24    26    1
    48    58    59    1
    49    14    13    1
    50    63    65   ar
    51    63    62    1
    52    25    27    1
    53    71    70   ar
    54    65    68   ar
    55    62    59    1
    56    59    60    1
    57    13    11   am
    58    70    68   ar
    59    61    60    2
    60    11    12    2
    61    11    10    1
    62    10     9    1
    63    90    88   ar
    64    90    91   ar
    65    88    85   ar
    66    91    89   ar
    67     9     3   am
    68    85    87   ar
    69    85    83   ar
    70    89    87   ar
    71    82    83    1
    72    82    79    1
    73     4     3    2
    74    87    86   ar
    75    83    84   ar
    76     3     2    1
    77    80    81    2
    78    80    79    1
    79    86    84   ar
    80    79    78    1
    81     2     5    1
    82     2     1    1
    83    78    74   am
    84     5     6    1
    85    74    75    2
    86    74    73    1
    87     6     7    2
    88     6     8   am
    89    76    77    1
    90    76    73    1
    91    73    72    1
