@<TRIPOS>MOLECULE
tmp/6fhyB00.pdb
 84 84 0 0 0
SMALL
GASTEIGER

@<TRIPOS>ATOM
      1  N        -24.5070   31.9500  -10.0620 N.3    50  LYS50      -0.1231
      2  CA       -24.3770   32.9810  -11.0860 C.3    50  LYS50       0.1693
      3  C        -23.4130   34.0860  -10.6170 C.2    50  LYS50       0.2593
      4  O        -22.5060   33.8350   -9.8020 O.2    50  LYS50      -0.2718
      5  CB       -25.7510   33.5560  -11.5150 C.3    50  LYS50       0.0285
      6  CG       -26.9510   32.6180  -11.5150 C.3    50  LYS50       0.0035
      7  CD       -26.8660   31.5690  -12.5980 C.3    50  LYS50       0.0206
      8  CE       -28.2410   30.9710  -12.8780 C.3    50  LYS50       0.1093
      9  NZ       -28.0800   29.5800  -13.3750 N.3    50  LYS50      -0.1314
     10  N        -23.6150   35.2980  -11.1390 N.am   51  GLY51      -0.1942
     11  CA       -22.6960   36.3940  -10.9530 C.3    51  GLY51       0.2014
     12  C        -21.5000   36.2910  -11.8650 C.2    51  GLY51       0.2639
     13  O        -21.2270   35.2360  -12.4530 O.2    51  GLY51      -0.2714
     14  N        -20.7860   37.4050  -11.9850 N.am   52  GLN52      -0.1963
     15  CA       -19.4400   37.3950  -12.5320 C.3    52  GLN52       0.1733
     16  C        -18.5520   38.0800  -11.5200 C.2    52  GLN52       0.2616
     17  O        -18.7150   39.2780  -11.2480 O.2    52  GLN52      -0.2715
     18  CB       -19.3720   38.1080  -13.8750 C.3    52  GLN52       0.0408
     19  CG       -20.4860   37.7160  -14.8320 C.3    52  GLN52       0.0908
     20  CD       -20.1700   38.1090  -16.2560 C.2    52  GLN52       0.2608
     21  OE1      -19.9830   37.2540  -17.1180 O.2    52  GLN52      -0.2717
     22  NE2      -20.0950   39.4110  -16.5100 N.am   52  GLN52      -0.0878
     23  N        -17.6140   37.3190  -10.9640 N.am   53  VAL53      -0.1977
     24  CA       -16.7420   37.8370   -9.9070 C.3    53  VAL53       0.1596
     25  C        -15.2800   37.9580  -10.3150 C.2    53  VAL53       0.2287
     26  O        -14.8090   37.2580  -11.2140 O.2    53  VAL53      -0.2864
     27  CB       -16.8640   37.0340   -8.5840 C.3    53  VAL53       0.0276
     28  CG1      -18.3080   37.0070   -8.1180 C.3    53  VAL53       0.0022
     29  CG2      -16.3130   35.6170   -8.7040 C.3    53  VAL53       0.0022
     30  N        -17.0980   42.4710   -7.8360 N.3    73  GLY73      -0.1210
     31  CA       -17.7310   42.3440   -9.1540 C.3    73  GLY73       0.1956
     32  C        -16.8850   42.8790  -10.3040 C.2    73  GLY73       0.2613
     33  O        -15.7450   43.3530  -10.1030 O.2    73  GLY73      -0.2717
     34  N        -17.4540   42.8050  -11.5180 N.am   74  THR74      -0.1938
     35  CA       -16.7710   43.2980  -12.7350 C.3    74  THR74       0.2028
     36  C        -16.6080   44.8150  -12.7940 C.2    74  THR74       0.2642
     37  O        -15.7810   45.3100  -13.5380 O.2    74  THR74      -0.2714
     38  CB       -17.4860   42.8400  -14.0260 C.3    74  THR74       0.1808
     39  OG1      -18.8660   43.2220  -13.9890 O.3    74  THR74      -0.2208
     40  CG2      -17.4270   41.3440  -14.1590 C.3    74  THR74       0.0379
     41  N        -17.4010   45.5410  -12.0110 N.am   75  ASP75      -0.1971
     42  CA       -17.2530   46.9800  -11.8480 C.3    75  ASP75       0.1709
     43  C        -16.3660   47.3280  -10.6500 C.2    75  ASP75       0.2293
     44  O        -16.3240   48.4780  -10.2420 O.2    75  ASP75      -0.2864
     45  CB       -18.6370   47.6200  -11.6820 C.3    75  ASP75       0.1436
     46  CG       -19.4200   47.0360  -10.5110 C.2    75  ASP75       0.3671
     47  OD1      -18.8770   46.1690   -9.7730 O.co2  75  ASP75      -0.2456
     48  OD2      -20.5890   47.4200  -10.3530 O.co2  75  ASP75      -0.2456
     49  N        -19.9870   43.1090   -4.0310 N.3    79  TRP79      -0.1241
     50  CA       -21.3050   42.5280   -4.2710 C.3    79  TRP79       0.1605
     51  C        -21.5810   41.4290   -3.2510 C.2    79  TRP79       0.2264
     52  O        -20.6630   40.8580   -2.6550 O.2    79  TRP79      -0.2867
     53  CB       -21.4080   41.9510   -5.6900 C.3    79  TRP79       0.0550
     54  CG       -21.5180   42.9850   -6.7670 C.ar   79  TRP79       0.0003
     55  CD1      -20.5160   43.8000   -7.2200 C.ar   79  TRP79       0.0946
     56  CD2      -22.6710   43.3000   -7.5620 C.ar   79  TRP79       0.0152
     57  NE1      -20.9710   44.6030   -8.2370 N.ar   79  TRP79      -0.2442
     58  CE2      -22.2880   44.3240   -8.4660 C.ar   79  TRP79       0.0810
     59  CE3      -23.9850   42.8190   -7.6060 C.ar   79  TRP79       0.0012
     60  CZ2      -23.1710   44.8750   -9.3990 C.ar   79  TRP79       0.0191
     61  CZ3      -24.8680   43.3770   -8.5300 C.ar   79  TRP79       0.0001
     62  CH2      -24.4580   44.4030   -9.4020 C.ar   79  TRP79       0.0015
     63  N        -31.1720   37.5940   -5.0980 N.3    92  ASN92      -0.1225
     64  CA       -30.3870   38.0760   -6.2330 C.3    92  ASN92       0.1785
     65  C        -29.0680   38.6460   -5.7440 C.2    92  ASN92       0.2597
     66  O        -28.9630   39.0820   -4.5930 O.2    92  ASN92      -0.2718
     67  CB       -31.1180   39.2070   -6.9530 C.3    92  ASN92       0.1169
     68  CG       -32.3980   38.7450   -7.6200 C.2    92  ASN92       0.2627
     69  OD1      -32.4140   37.7190   -8.2890 O.2    92  ASN92      -0.2716
     70  ND2      -33.4760   39.5010   -7.4460 N.am   92  ASN92      -0.0877
     71  N        -28.0690   38.6410   -6.6190 N.am   93  TRP93      -0.1976
     72  CA       -26.8510   39.4270   -6.3960 C.3    93  TRP93       0.1640
     73  C        -27.2280   40.8990   -6.2870 C.2    93  TRP93       0.2290
     74  O        -28.1150   41.3700   -6.9890 O.2    93  TRP93      -0.2864
     75  CB       -25.8400   39.2380   -7.5230 C.3    93  TRP93       0.0576
     76  CG       -25.0550   37.9760   -7.4590 C.ar   93  TRP93       0.0006
     77  CD1      -25.3220   36.8250   -8.1300 C.ar   93  TRP93       0.0946
     78  CD2      -23.8730   37.7260   -6.6830 C.ar   93  TRP93       0.0152
     79  NE1      -24.3750   35.8810   -7.8480 N.ar   93  TRP93      -0.2442
     80  CE2      -23.4810   36.3980   -6.9480 C.ar   93  TRP93       0.0810
     81  CE3      -23.1090   38.4950   -5.7950 C.ar   93  TRP93       0.0012
     82  CZ2      -22.3590   35.8210   -6.3700 C.ar   93  TRP93       0.0191
     83  CZ3      -21.9960   37.9220   -5.2080 C.ar   93  TRP93       0.0001
     84  CH2      -21.6260   36.5900   -5.5040 C.ar   93  TRP93       0.0015
@<TRIPOS>BOND
     1    21    20    2
     2    22    20   am
     3    20    19    1
     4    19    18    1
     5    40    38    1
     6    38    39    1
     7    38    35    1
     8    18    15    1
     9    37    36    2
    10     9     8    1
    11     8     7    1
    12    36    35    1
    13    36    41   am
    14    35    34    1
    15     7     6    1
    16    15    14    1
    17    15    16    1
    18    13    12    2
    19    41    42    1
    20    14    12   am
    21    12    11    1
    22    42    45    1
    23    42    43    1
    24    45    46    1
    25    16    17    2
    26    16    23   am
    27    34    32   am
    28     5     6    1
    29     5     2    1
    30    26    25    2
    31    10    11    1
    32    10     3   am
    33     2     3    1
    34     2     1    1
    35    23    24    1
    36    43    44    2
    37     3     4    2
    38    46    48   ar
    39    46    47   ar
    40    25    24    1
    41    32    33    2
    42    32    31    1
    43    24    27    1
    44    62    60   ar
    45    62    61   ar
    46    60    58   ar
    47    31    30    1
    48    29    27    1
    49    27    28    1
    50    61    59   ar
    51    58    57   ar
    52    58    56   ar
    53    69    68    2
    54    57    55   ar
    55    77    79   ar
    56    77    76   ar
    57    79    80   ar
    58    68    70   am
    59    68    67    1
    60    59    56   ar
    61    56    54   ar
    62    75    76    1
    63    75    72    1
    64    76    78   ar
    65    55    54   ar
    66    74    73    2
    67    67    64    1
    68    80    78   ar
    69    80    82   ar
    70    54    53    1
    71    78    81   ar
    72    71    72    1
    73    71    65   am
    74    72    73    1
    75    82    84   ar
    76    64    65    1
    77    64    63    1
    78    81    83   ar
    79    65    66    2
    80    53    50    1
    81    84    83   ar
    82    50    49    1
    83    50    51    1
    84    51    52    2
