@<TRIPOS>MOLECULE
tmp/6fhyB05.pdb
 82 82 0 0 0
SMALL
GASTEIGER

@<TRIPOS>ATOM
      1  N        -15.8970   29.3550  -10.8710 N.3    24  GLY24      -0.1210
      2  CA       -15.8410   28.5120  -12.0520 C.3    24  GLY24       0.1956
      3  C        -15.1420   29.1880  -13.2230 C.2    24  GLY24       0.2613
      4  O        -14.7790   30.3660  -13.1660 O.2    24  GLY24      -0.2717
      5  N        -14.9930   28.4290  -14.3030 N.am   25  THR25      -0.1938
      6  CA       -14.3920   28.9200  -15.5390 C.3    25  THR25       0.2028
      7  C        -15.2580   29.9870  -16.1890 C.2    25  THR25       0.2642
      8  O        -14.7510   30.8250  -16.9320 O.2    25  THR25      -0.2714
      9  CB       -14.1850   27.7810  -16.5490 C.3    25  THR25       0.1808
     10  OG1      -15.4270   27.0910  -16.7480 O.3    25  THR25      -0.2208
     11  CG2      -13.1210   26.8040  -16.0520 C.3    25  THR25       0.0379
     12  N        -16.5590   29.9720  -15.8960 N.am   26  ASP26      -0.1971
     13  CA       -17.4570   31.0390  -16.3630 C.3    26  ASP26       0.1709
     14  C        -17.4200   32.3350  -15.5200 C.2    26  ASP26       0.2293
     15  O        -18.2060   33.2420  -15.7700 O.2    26  ASP26      -0.2864
     16  CB       -18.9040   30.5190  -16.4860 C.3    26  ASP26       0.1436
     17  CG       -19.4450   29.9520  -15.1810 C.2    26  ASP26       0.3671
     18  OD1      -18.7440   30.0380  -14.1540 O.co2  26  ASP26      -0.2456
     19  OD2      -20.5530   29.3930  -15.1840 O.co2  26  ASP26      -0.2456
     20  N        -19.7250   29.1760   -7.7350 N.3    30  TRP30      -0.1241
     21  CA       -20.3040   27.8360   -7.6080 C.3    30  TRP30       0.1605
     22  C        -20.1340   27.3330   -6.1890 C.2    30  TRP30       0.2264
     23  O        -19.2080   27.7400   -5.4660 O.2    30  TRP30      -0.2867
     24  CB       -19.6620   26.8260   -8.5790 C.3    30  TRP30       0.0550
     25  CG       -19.9440   27.1090  -10.0240 C.ar   30  TRP30       0.0003
     26  CD1      -19.4710   28.1670  -10.7360 C.ar   30  TRP30       0.0946
     27  CD2      -20.7200   26.3140  -10.9560 C.ar   30  TRP30       0.0152
     28  NE1      -19.9060   28.1010  -12.0370 N.ar   30  TRP30      -0.2442
     29  CE2      -20.6800   26.9850  -12.2040 C.ar   30  TRP30       0.0810
     30  CE3      -21.4360   25.1040  -10.8610 C.ar   30  TRP30       0.0012
     31  CZ2      -21.3410   26.4980  -13.3590 C.ar   30  TRP30       0.0191
     32  CZ3      -22.1090   24.6240  -12.0070 C.ar   30  TRP30       0.0001
     33  CH2      -22.0440   25.3220  -13.2420 C.ar   30  TRP30       0.0015
     34  N        -22.8380   18.0490   -5.2700 N.3    45  GLY45      -0.1210
     35  CA       -22.3410   18.4070   -6.5900 C.3    45  GLY45       0.1956
     36  C        -22.3330   19.9160   -6.7340 C.2    45  GLY45       0.2611
     37  O        -22.9740   20.6370   -5.9690 O.2    45  GLY45      -0.2717
     38  N        -21.5800   20.3750   -7.7220 N.am   46  TRP46      -0.1976
     39  CA       -21.4100   21.7850   -7.9930 C.3    46  TRP46       0.1640
     40  C        -22.6390   22.3420   -8.6720 C.2    46  TRP46       0.2290
     41  O        -23.1150   21.7680   -9.6530 O.2    46  TRP46      -0.2864
     42  CB       -20.1840   22.0000   -8.8790 C.3    46  TRP46       0.0576
     43  CG       -18.9350   21.6830   -8.1570 C.ar   46  TRP46       0.0006
     44  CD1      -18.2000   20.5460   -8.2580 C.ar   46  TRP46       0.0946
     45  CD2      -18.3000   22.4930   -7.1680 C.ar   46  TRP46       0.0152
     46  NE1      -17.1290   20.6050   -7.4060 N.ar   46  TRP46      -0.2442
     47  CE2      -17.1680   21.7920   -6.7220 C.ar   46  TRP46       0.0810
     48  CE3      -18.5740   23.7540   -6.6260 C.ar   46  TRP46       0.0012
     49  CZ2      -16.3000   22.3050   -5.7490 C.ar   46  TRP46       0.0191
     50  CZ3      -17.7030   24.2730   -5.6710 C.ar   46  TRP46       0.0001
     51  CH2      -16.5820   23.5440   -5.2390 C.ar   46  TRP46       0.0015
     52  N        -14.2210   15.7820   -5.8300 N.3   333  LEU333     -0.1231
     53  CA       -15.5680   16.3350   -5.8510 C.3   333  LEU333      0.1693
     54  C        -15.8850   16.9320   -7.2270 C.2   333  LEU333      0.2593
     55  O        -16.9050   17.5990   -7.3970 O.2   333  LEU333     -0.2718
     56  CB       -15.7110   17.4150   -4.7600 C.3   333  LEU333      0.0284
     57  CG       -15.4340   17.0290   -3.2980 C.3   333  LEU333      0.0019
     58  CD1      -15.7190   18.1980   -2.3390 C.3   333  LEU333      0.0001
     59  CD2      -16.2600   15.8190   -2.9050 C.3   333  LEU333      0.0001
     60  N        -15.0070   16.7120   -8.2040 N.am  334  GLY334     -0.1942
     61  CA       -15.2180   17.2200   -9.5490 C.3   334  GLY334      0.2014
     62  C        -15.2300   18.7410   -9.5770 C.2   334  GLY334      0.2639
     63  O        -14.6730   19.4010   -8.6810 O.2   334  GLY334     -0.2714
     64  N        -15.8820   19.2790  -10.6060 N.am  335  GLY335     -0.1939
     65  CA       -15.8490   20.6900  -10.9330 C.3   335  GLY335      0.2014
     66  C        -14.5680   21.1260  -11.6090 C.2   335  GLY335      0.2639
     67  O        -13.5900   20.3750  -11.6770 O.2   335  GLY335     -0.2714
     68  N        -14.5840   22.3500  -12.1210 N.am  336  VAL336     -0.1963
     69  CA       -13.3770   23.0150  -12.6010 C.3   336  VAL336      0.1727
     70  C        -13.3140   24.3940  -11.9720 C.2   336  VAL336      0.2616
     71  O        -14.1760   25.2350  -12.2430 O.2   336  VAL336     -0.2715
     72  CB       -13.3650   23.1660  -14.1370 C.3   336  VAL336      0.0290
     73  CG1      -12.0450   23.7920  -14.5970 C.3   336  VAL336      0.0023
     74  CG2      -13.5780   21.8120  -14.8120 C.3   336  VAL336      0.0023
     75  N        -12.2820   24.6260  -11.1610 N.am  337  LEU337     -0.1977
     76  CA       -12.1340   25.8740  -10.4310 C.3   337  LEU337      0.1596
     77  C        -10.9040   26.6680  -10.8380 C.2   337  LEU337      0.2287
     78  O         -9.8480   26.0970  -11.1470 O.2   337  LEU337     -0.2864
     79  CB       -12.0610   25.5920   -8.9380 C.3   337  LEU337      0.0297
     80  CG       -13.2440   24.8680   -8.2890 C.3   337  LEU337      0.0022
     81  CD1      -12.8980   24.5740   -6.8400 C.3   337  LEU337      0.0001
     82  CD2      -14.5130   25.7020   -8.3850 C.3   337  LEU337      0.0001
@<TRIPOS>BOND
     1     8     7    2
     2    10     9    1
     3     9    11    1
     4     9     6    1
     5    16    13    1
     6    16    17    1
     7    13    12    1
     8    13    14    1
     9     7    12   am
    10     7     6    1
    11    15    14    2
    12     6     5    1
    13    19    17   ar
    14    17    18   ar
    15    74    72    1
    16    73    72    1
    17     5     3   am
    18    72    69    1
    19    31    33   ar
    20    31    29   ar
    21    33    32   ar
    22     3     4    2
    23     3     2    1
    24    69    68    1
    25    69    70    1
    26    71    70    2
    27    29    28   ar
    28    29    27   ar
    29    68    66   am
    30     2     1    1
    31    28    26   ar
    32    32    30   ar
    33    70    75   am
    34    67    66    2
    35    66    65    1
    36    75    76    1
    37    78    77    2
    38    27    30   ar
    39    27    25   ar
    40    65    64    1
    41    77    76    1
    42    26    25   ar
    43    64    62   am
    44    76    79    1
    45    25    24    1
    46    41    40    2
    47    62    61    1
    48    62    63    2
    49    61    60    1
    50    79    80    1
    51    42    43    1
    52    42    39    1
    53    40    39    1
    54    24    21    1
    55    82    80    1
    56    80    81    1
    57    44    43   ar
    58    44    46   ar
    59    60    54   am
    60    43    45   ar
    61    39    38    1
    62    20    21    1
    63    38    36   am
    64    21    22    1
    65    46    47   ar
    66    55    54    2
    67    54    53    1
    68    45    47   ar
    69    45    48   ar
    70    36    35    1
    71    36    37    2
    72    47    49   ar
    73    48    50   ar
    74    35    34    1
    75    22    23    2
    76    53    52    1
    77    53    56    1
    78    49    51   ar
    79    50    51   ar
    80    56    57    1
    81    57    59    1
    82    57    58    1
