@<TRIPOS>MOLECULE
tmp/6fhyB01.pdb
 80 80 0 0 0
SMALL
GASTEIGER

@<TRIPOS>ATOM
      1  N         -7.5010   53.8550    6.5750 N.3   145  ASN145     -0.1225
      2  CA        -6.1970   54.3480    6.1130 C.3   145  ASN145      0.1785
      3  C         -5.1830   53.2180    6.0350 C.2   145  ASN145      0.2598
      4  O         -5.5700   52.0520    5.8610 O.2   145  ASN145     -0.2718
      5  CB        -5.7300   55.5310    6.9850 C.3   145  ASN145      0.1169
      6  CG        -6.8330   56.5540    7.1920 C.2   145  ASN145      0.2627
      7  OD1       -7.2550   57.2050    6.2520 O.2   145  ASN145     -0.2716
      8  ND2       -7.3400   56.6590    8.4190 N.am  145  ASN145     -0.0877
      9  N         -3.8990   53.5490    6.1740 N.am  146  GLY146     -0.1942
     10  CA        -2.8220   52.5980    5.9570 C.3   146  GLY146      0.2014
     11  C         -2.5470   52.3960    4.4720 C.2   146  GLY146      0.2639
     12  O         -3.2930   52.8950    3.6110 O.2   146  GLY146     -0.2714
     13  N         -1.4660   51.6700    4.1810 N.am  147  VAL147     -0.1963
     14  CA        -1.1440   51.2420    2.8170 C.3   147  VAL147      0.1727
     15  C         -0.8120   49.7640    2.8820 C.2   147  VAL147      0.2616
     16  O          0.1900   49.3880    3.4840 O.2   147  VAL147     -0.2715
     17  CB         0.0330   52.0550    2.2300 C.3   147  VAL147      0.0290
     18  CG1        0.2930   51.6540    0.7860 C.3   147  VAL147      0.0023
     19  CG2       -0.2670   53.5520    2.3160 C.3   147  VAL147      0.0023
     20  N         -1.6450   48.9180    2.2840 N.am  148  ILE148     -0.1977
     21  CA        -1.4930   47.4700    2.4620 C.3   148  ILE148      0.1596
     22  C         -1.2370   46.7450    1.1500 C.2   148  ILE148      0.2287
     23  O         -1.6750   47.1900    0.1030 O.2   148  ILE148     -0.2864
     24  CB        -2.6840   46.8560    3.2550 C.3   148  ILE148      0.0276
     25  CG1       -4.0220   47.1300    2.5850 C.3   148  ILE148      0.0022
     26  CG2       -2.6810   47.4080    4.6720 C.3   148  ILE148      0.0022
     27  CD1       -5.1320   46.1960    3.0380 C.3   148  ILE148      0.0001
     28  N          2.1250   45.0990    5.0530 N.3   168  GLY168     -0.1210
     29  CA         2.3790   46.5100    4.7390 C.3   168  GLY168      0.1956
     30  C          3.3710   46.6850    3.6020 C.2   168  GLY168      0.2613
     31  O          3.8240   45.7160    3.0120 O.2   168  GLY168     -0.2717
     32  N          3.7160   47.9300    3.3060 N.am  169  THR169     -0.1938
     33  CA         4.6570   48.2480    2.2100 C.3   169  THR169      0.2028
     34  C          6.1170   47.9000    2.5160 C.2   169  THR169      0.2642
     35  O          6.9360   47.8550    1.6090 O.2   169  THR169     -0.2714
     36  CB         4.6170   49.7360    1.8550 C.3   169  THR169      0.1808
     37  OG1        4.9020   50.4990    3.0290 O.3   169  THR169     -0.2208
     38  CG2        3.2620   50.1220    1.3280 C.3   169  THR169      0.0379
     39  N          6.4340   47.6960    3.7880 N.am  170  ASP170     -0.1971
     40  CA         7.7390   47.1880    4.2140 C.3   170  ASP170      0.1709
     41  C          7.7420   45.6640    4.3220 C.2   170  ASP170      0.2293
     42  O          8.6970   45.0770    4.8280 O.2   170  ASP170     -0.2864
     43  CB         8.1520   47.8400    5.5420 C.3   170  ASP170      0.1436
     44  CG         7.1070   47.6770    6.6450 C.2   170  ASP170      0.3671
     45  OD1        6.0900   46.9810    6.4280 O.co2 170  ASP170     -0.2456
     46  OD2        7.2910   48.2650    7.7270 O.co2 170  ASP170     -0.2456
     47  N          1.1670   44.0330    9.6490 N.3   174  TRP174     -0.1241
     48  CA         0.5770   45.1650   10.3510 C.3   174  TRP174      0.1605
     49  C         -0.8370   44.8440   10.8290 C.2   174  TRP174      0.2264
     50  O         -1.5000   43.9440   10.2940 O.2   174  TRP174     -0.2867
     51  CB         0.5460   46.4060    9.4590 C.3   174  TRP174      0.0550
     52  CG         1.8960   47.0480    9.2070 C.ar  174  TRP174      0.0003
     53  CD1        2.9250   46.5440    8.4640 C.ar  174  TRP174      0.0946
     54  CD2        2.3490   48.3060    9.7130 C.ar  174  TRP174      0.0152
     55  NE1        3.9860   47.4170    8.4630 N.ar  174  TRP174     -0.2442
     56  CE2        3.6630   48.5070    9.2250 C.ar  174  TRP174      0.0810
     57  CE3        1.7640   49.2960   10.5110 C.ar  174  TRP174      0.0012
     58  CZ2        4.4020   49.6620    9.5070 C.ar  174  TRP174      0.0191
     59  CZ3        2.5080   50.4450   10.8100 C.ar  174  TRP174      0.0001
     60  CH2        3.8130   50.6140   10.3050 C.ar  174  TRP174      0.0015
     61  N         -4.5920   53.2530   15.9280 N.3   188  SER188     -0.1202
     62  CA        -3.6940   53.4840   14.7970 C.3   188  SER188      0.2020
     63  C         -3.2280   52.1470   14.2510 C.2   188  SER188      0.2618
     64  O         -3.2650   51.1190   14.9560 O.2   188  SER188     -0.2717
     65  CB        -2.4420   54.2500   15.2410 C.3   188  SER188      0.2103
     66  OG        -2.7630   55.5740   15.5790 O.3   188  SER188     -0.2182
     67  N         -2.7410   52.1670   13.0120 N.am  189  TRP189     -0.1975
     68  CA        -2.0150   51.0110   12.4690 C.3   189  TRP189      0.1640
     69  C         -0.7290   50.8070   13.2730 C.2   189  TRP189      0.2290
     70  O         -0.1000   51.7800   13.6720 O.2   189  TRP189     -0.2864
     71  CB        -1.6650   51.2070   11.0040 C.3   189  TRP189      0.0576
     72  CG        -2.7570   50.9000   10.0700 C.ar  189  TRP189      0.0006
     73  CD1       -3.6160   51.7900    9.5130 C.ar  189  TRP189      0.0946
     74  CD2       -3.1420   49.6120    9.5880 C.ar  189  TRP189      0.0152
     75  NE1       -4.5000   51.1480    8.6960 N.ar  189  TRP189     -0.2442
     76  CE2       -4.2330   49.8070    8.7160 C.ar  189  TRP189      0.0810
     77  CE3       -2.6610   48.3100    9.7940 C.ar  189  TRP189      0.0012
     78  CZ2       -4.8650   48.7510    8.0570 C.ar  189  TRP189      0.0191
     79  CZ3       -3.2750   47.2600    9.1310 C.ar  189  TRP189      0.0001
     80  CH2       -4.3670   47.4850    8.2670 C.ar  189  TRP189      0.0015
@<TRIPOS>BOND
     1    23    22    2
     2    18    17    1
     3    22    21    1
     4    38    36    1
     5    35    34    2
     6    36    33    1
     7    36    37    1
     8    33    34    1
     9    33    32    1
    10    17    19    1
    11    17    14    1
    12    20    21    1
    13    20    15   am
    14    21    24    1
    15    34    39   am
    16    25    27    1
    17    25    24    1
    18    14    15    1
    19    14    13    1
    20    15    16    2
    21    31    30    2
    22    24    26    1
    23    32    30   am
    24    30    29    1
    25    12    11    2
    26    39    40    1
    27    13    11   am
    28    40    41    1
    29    40    43    1
    30    41    42    2
    31    11    10    1
    32    29    28    1
    33    43    44    1
    34     4     3    2
    35    10     9    1
    36     3     2    1
    37     3     9   am
    38     2     1    1
    39     2     5    1
    40     7     6    2
    41    45    44   ar
    42    44    46   ar
    43     5     6    1
    44     6     8   am
    45    78    80   ar
    46    78    76   ar
    47    80    79   ar
    48    55    53   ar
    49    55    56   ar
    50    53    52   ar
    51    75    76   ar
    52    75    73   ar
    53    76    74   ar
    54    79    77   ar
    55    52    51    1
    56    52    54   ar
    57    56    58   ar
    58    56    54   ar
    59    51    48    1
    60    58    60   ar
    61    73    72   ar
    62    74    77   ar
    63    74    72   ar
    64    47    48    1
    65    54    57   ar
    66    72    71    1
    67    50    49    2
    68    60    59   ar
    69    48    49    1
    70    57    59   ar
    71    71    68    1
    72    68    67    1
    73    68    69    1
    74    67    63   am
    75    69    70    2
    76    63    62    1
    77    63    64    2
    78    62    65    1
    79    62    61    1
    80    65    66    1
