@<TRIPOS>MOLECULE
tmp/6fi0C00.pdb
 79 75 0 0 0
SMALL
GASTEIGER

@<TRIPOS>ATOM
      1  N         10.5300   45.0790   42.6870 N.3     2  VAL2       -0.1245
      2  CA        10.5510   44.5030   41.3380 C.3     2  VAL2        0.1561
      3  C          9.1180   44.2460   40.8790 C.2     2  VAL2        0.2260
      4  O          8.2850   43.8020   41.6570 O.2     2  VAL2       -0.2867
      5  CB        11.3880   43.2210   41.2680 C.3     2  VAL2        0.0252
      6  CG1       11.4900   42.7140   39.8200 C.3     2  VAL2        0.0019
      7  CG2       12.7630   43.4930   41.8670 C.3     2  VAL2        0.0019
      8  N          6.7470   37.2380   44.6910 N.3    13  ASP13      -0.1239
      9  CA         8.1180   37.6210   44.2620 C.3    13  ASP13       0.1674
     10  C          9.1450   36.5020   44.1770 C.2    13  ASP13       0.2266
     11  O         10.1870   36.6430   43.5210 O.2    13  ASP13      -0.2867
     12  CB         8.6600   38.8310   45.0270 C.3    13  ASP13       0.1410
     13  CG         8.8880   38.5840   46.4840 C.2    13  ASP13       0.3668
     14  OD1        9.0840   37.4430   46.9260 O.co2  13  ASP13      -0.2456
     15  OD2        8.9130   39.5890   47.2070 O.co2  13  ASP13      -0.2456
     16  N          9.4780   35.9780   40.5400 N.3    16  LEU16      -0.1231
     17  CA         9.9260   37.1140   39.6990 C.3    16  LEU16       0.1693
     18  C         11.3510   36.9740   39.2410 C.2    16  LEU16       0.2592
     19  O         12.2560   36.9380   40.0510 O.2    16  LEU16      -0.2718
     20  CB         9.8580   38.4220   40.4810 C.3    16  LEU16       0.0284
     21  CG         8.5110   39.0550   40.4910 C.3    16  LEU16       0.0019
     22  CD1        8.4780   40.2310   41.4660 C.3    16  LEU16       0.0001
     23  CD2        8.1190   39.4860   39.0700 C.3    16  LEU16       0.0001
     24  N         11.5530   36.8850   37.9390 N.am   17  LEU17      -0.1966
     25  CA        12.8630   37.0860   37.3640 C.3    17  LEU17       0.1728
     26  C         13.2240   38.5440   37.5240 C.2    17  LEU17       0.2616
     27  O         12.3630   39.4130   37.3810 O.2    17  LEU17      -0.2715
     28  CB        12.8300   36.8170   35.8960 C.3    17  LEU17       0.0311
     29  CG        12.5540   35.3920   35.4770 C.3    17  LEU17       0.0022
     30  CD1       11.8420   35.3390   34.1340 C.3    17  LEU17       0.0001
     31  CD2       13.8570   34.6860   35.3400 C.3    17  LEU17       0.0001
     32  N         14.4740   38.8120   37.8790 N.am   18  LEU18      -0.1977
     33  CA        15.0020   40.1840   37.9000 C.3    18  LEU18       0.1596
     34  C         16.1170   40.2390   36.8530 C.2    18  LEU18       0.2287
     35  O         17.0340   39.3780   36.7960 O.2    18  LEU18      -0.2864
     36  CB        15.4960   40.5860   39.2790 C.3    18  LEU18       0.0297
     37  CG        16.3010   41.9030   39.3900 C.3    18  LEU18       0.0022
     38  CD1       15.6790   43.1680   38.7340 C.3    18  LEU18       0.0001
     39  CD2       16.6510   42.1470   40.8700 C.3    18  LEU18       0.0001
     40  N         19.3540   41.0460   34.9120 N.3    20  ASP20      -0.1239
     41  CA        20.7280   41.3240   35.3470 C.3    20  ASP20       0.1674
     42  C         21.3500   42.5830   34.7580 C.2    20  ASP20       0.2266
     43  O         22.4540   42.9510   35.1480 O.2    20  ASP20      -0.2867
     44  CB        21.6090   40.1150   35.0930 C.3    20  ASP20       0.1410
     45  CG        21.2440   38.9660   36.0150 C.2    20  ASP20       0.3668
     46  OD1       21.5800   39.0780   37.2140 O.co2  20  ASP20      -0.2456
     47  OD2       20.5680   37.9980   35.5630 O.co2  20  ASP20      -0.2456
     48  N         12.9190   29.9000   37.8590 N.3    38  VAL38      -0.1231
     49  CA        13.8300   31.0470   37.7730 C.3    38  VAL38       0.1678
     50  C         15.1780   30.4190   37.3580 C.2    38  VAL38       0.2434
     51  O         15.6820   29.5790   38.0700 O.2    38  VAL38      -0.2733
     52  CB        13.9290   31.8070   39.1420 C.3    38  VAL38       0.0265
     53  CG1       15.0580   32.8410   39.1540 C.3    38  VAL38       0.0020
     54  CG2       12.5990   32.4950   39.4930 C.3    38  VAL38       0.0020
     55  N         15.7020   30.7260   36.1450 N.am   39  PRO39      -0.2729
     56  CA        17.0050   30.1450   35.8350 C.3    39  PRO39       0.1401
     57  C         18.1200   30.7780   36.6440 C.2    39  PRO39       0.2269
     58  O         17.9970   31.9160   37.1710 O.2    39  PRO39      -0.2865
     59  CB        17.2140   30.4660   34.3500 C.3    39  PRO39       0.0296
     60  CG        16.2870   31.5700   34.0290 C.3    39  PRO39       0.0237
     61  CD        15.2700   31.6980   35.1290 C.3    39  PRO39       0.0939
     62  N         22.3630   31.7660   36.4870 N.3    41  GLY41      -0.1225
     63  CA        23.1000   32.5790   35.5370 C.3    41  GLY41       0.1811
     64  C         22.2500   33.8000   35.2300 C.2    41  GLY41       0.2280
     65  O         21.3740   34.1680   36.0250 O.2    41  GLY41      -0.2866
     66  N         19.6730   36.4460   33.2380 N.3    43  TRP43      -0.1241
     67  CA        18.4470   36.6090   32.4900 C.3    43  TRP43       0.1605
     68  C         18.3640   38.0830   32.1450 C.2    43  TRP43       0.2264
     69  O         18.5790   38.9200   32.9980 O.2    43  TRP43      -0.2867
     70  CB        17.1880   36.2060   33.2710 C.3    43  TRP43       0.0550
     71  CG        15.9460   36.5240   32.4610 C.ar   43  TRP43       0.0003
     72  CD1       15.4840   35.8390   31.4020 C.ar   43  TRP43       0.0946
     73  CD2       15.0910   37.6500   32.6150 C.ar   43  TRP43       0.0152
     74  NE1       14.3680   36.4350   30.8860 N.ar   43  TRP43      -0.2442
     75  CE2       14.0950   37.5570   31.6170 C.ar   43  TRP43       0.0810
     76  CE3       15.0570   38.7240   33.5060 C.ar   43  TRP43       0.0012
     77  CZ2       13.0840   38.4960   31.4780 C.ar   43  TRP43       0.0191
     78  CZ3       14.0580   39.6520   33.3730 C.ar   43  TRP43       0.0001
     79  CH2       13.0790   39.5410   32.3590 C.ar   43  TRP43       0.0015
@<TRIPOS>BOND
     1    74    72   ar
     2    74    75   ar
     3    72    71   ar
     4    77    75   ar
     5    77    79   ar
     6    75    73   ar
     7    68    67    1
     8    68    69    2
     9    79    78   ar
    10    71    73   ar
    11    71    70    1
    12    67    66    1
    13    67    70    1
    14    73    76   ar
    15    78    76   ar
    16    60    59    1
    17    60    61    1
    18    30    29    1
    19    59    56    1
    20    42    43    2
    21    42    41    1
    22    40    41    1
    23    44    41    1
    24    44    45    1
    25    61    55    1
    26    64    63    1
    27    64    65    2
    28    31    29    1
    29    29    28    1
    30    63    62    1
    31    47    45   ar
    32    56    55    1
    33    56    57    1
    34    28    25    1
    35    45    46   ar
    36    55    50   am
    37    57    58    2
    38    35    34    2
    39    34    33    1
    40    50    49    1
    41    50    51    2
    42    25    26    1
    43    25    24    1
    44    27    26    2
    45    26    32   am
    46    49    48    1
    47    49    52    1
    48    32    33    1
    49    33    36    1
    50    24    18   am
    51    38    37    1
    52    23    21    1
    53    52    53    1
    54    52    54    1
    55    18    17    1
    56    18    19    2
    57    36    37    1
    58    37    39    1
    59    17    20    1
    60    17    16    1
    61     6     5    1
    62    20    21    1
    63    21    22    1
    64     3     2    1
    65     3     4    2
    66     5     2    1
    67     5     7    1
    68     2     1    1
    69    11    10    2
    70    10     9    1
    71     9     8    1
    72     9    12    1
    73    12    13    1
    74    13    14   ar
    75    13    15   ar
