@<TRIPOS>MOLECULE
tmp/6fi1A00.pdb
 99 98 0 0 0
SMALL
GASTEIGER

@<TRIPOS>ATOM
      1  N         19.4420   13.8980    7.7240 N.3    17  GLU17      -0.1231
      2  CA        18.7970   12.6160    7.9880 C.3    17  GLU17       0.1699
      3  C         18.7590   11.6110    6.8080 C.2    17  GLU17       0.2592
      4  O         18.9860   10.4300    7.0250 O.2    17  GLU17      -0.2718
      5  CB        17.3870   12.8640    8.5770 C.3    17  GLU17       0.0402
      6  CG        17.3950   13.0730   10.1020 C.3    17  GLU17       0.1161
      7  CD        16.1290   13.7400   10.6700 C.2    17  GLU17       0.3649
      8  OE1       15.4230   13.1030   11.5010 O.co2  17  GLU17      -0.2457
      9  OE2       15.8460   14.9080   10.3010 O.co2  17  GLU17      -0.2457
     10  N         18.5030   12.0510    5.5780 N.am   18  GLU18      -0.1979
     11  CA        18.5610   11.1220    4.4260 C.3    18  GLU18       0.1602
     12  C         19.9320   10.4300    4.1960 C.2    18  GLU18       0.2287
     13  O         19.9950    9.3410    3.6110 O.2    18  GLU18      -0.2864
     14  CB        18.1220   11.7820    3.1060 C.3    18  GLU18       0.0415
     15  CG        18.2700   10.7900    1.9440 C.3    18  GLU18       0.1163
     16  CD        17.6020   11.1700    0.6490 C.2    18  GLU18       0.3649
     17  OE1       16.7710   12.0990    0.6450 O.co2  18  GLU18      -0.2457
     18  OE2       17.9300   10.5070   -0.3650 O.co2  18  GLU18      -0.2457
     19  N         22.0090    9.7330    6.7970 N.3    20  LEU20      -0.1231
     20  CA        22.4130    9.3710    8.1340 C.3    20  LEU20       0.1693
     21  C         22.1070    7.9070    8.3170 C.2    20  LEU20       0.2592
     22  O         20.9650    7.5190    8.3700 O.2    20  LEU20      -0.2718
     23  CB        21.6780   10.2340    9.1640 C.3    20  LEU20       0.0284
     24  CG        22.1640   10.1920   10.6320 C.3    20  LEU20       0.0019
     25  CD1       23.6490   10.4720   10.8780 C.3    20  LEU20       0.0001
     26  CD2       21.3560   11.1960   11.4370 C.3    20  LEU20       0.0001
     27  N         23.1350    7.0820    8.3830 N.am   21  LEU21      -0.1966
     28  CA        22.9310    5.6610    8.5970 C.3    21  LEU21       0.1728
     29  C         22.7950    5.3400   10.0840 C.2    21  LEU21       0.2616
     30  O         23.7480    5.5100   10.8320 O.2    21  LEU21      -0.2715
     31  CB        24.0970    4.8820    8.0200 C.3    21  LEU21       0.0311
     32  CG        24.4030    5.1520    6.5550 C.3    21  LEU21       0.0022
     33  CD1       25.5580    4.2550    6.1260 C.3    21  LEU21       0.0001
     34  CD2       23.1950    4.9440    5.6520 C.3    21  LEU21       0.0001
     35  N         21.6050    4.9110   10.5000 N.am   22  LEU22      -0.1977
     36  CA        21.3760    4.3560   11.8450 C.3    22  LEU22       0.1596
     37  C         21.7900    2.8940   11.8050 C.2    22  LEU22       0.2287
     38  O         21.2400    2.1330   11.0230 O.2    22  LEU22      -0.2864
     39  CB        19.8920    4.4720   12.2310 C.3    22  LEU22       0.0297
     40  CG        19.4690    4.3160   13.7090 C.3    22  LEU22       0.0022
     41  CD1       18.1530    5.0580   13.9520 C.3    22  LEU22       0.0001
     42  CD2       19.3080    2.8700   14.1940 C.3    22  LEU22       0.0001
     43  N         21.5920   -0.7760   12.8030 N.3    24  ASP24      -0.1239
     44  CA        20.5700   -1.6020   13.4680 C.3    24  ASP24       0.1674
     45  C         21.0770   -2.5900   14.4920 C.2    24  ASP24       0.2266
     46  O         20.2750   -3.2460   15.1400 O.2    24  ASP24      -0.2867
     47  CB        19.7210   -2.3270   12.4410 C.3    24  ASP24       0.1410
     48  CG        18.8590   -1.3790   11.6710 C.2    24  ASP24       0.3668
     49  OD1       17.8720   -0.8570   12.2580 O.co2  24  ASP24      -0.2456
     50  OD2       19.1930   -1.1350   10.5000 O.co2  24  ASP24      -0.2456
     51  N         23.5290    4.5020   -0.7610 N.3    42  ILE42      -0.1231
     52  CA        22.5870    4.6200    0.3660 C.3    42  ILE42       0.1678
     53  C         21.9340    3.2160    0.4770 C.2    42  ILE42       0.2434
     54  O         21.2620    2.7720   -0.4640 O.2    42  ILE42      -0.2733
     55  CB        21.5150    5.7360    0.1770 C.3    42  ILE42       0.0265
     56  CG1       22.1420    7.1110   -0.0860 C.3    42  ILE42       0.0019
     57  CG2       20.6470    5.8690    1.4250 C.3    42  ILE42       0.0020
     58  CD1       21.1490    8.1520   -0.5740 C.3    42  ILE42       0.0001
     59  N         22.1340    2.5150    1.6180 N.am   43  PRO43      -0.2718
     60  CA        21.7900    1.0970    1.7190 C.3    43  PRO43       0.1535
     61  C         20.3310    0.8540    1.4230 C.2    43  PRO43       0.2599
     62  O         19.4850    1.6670    1.7710 O.2    43  PRO43      -0.2715
     63  CB        22.0630    0.7740    3.1890 C.3    43  PRO43       0.0310
     64  CG        21.7750    2.0470    3.8880 C.3    43  PRO43       0.0237
     65  CD        22.2910    3.1140    2.9550 C.3    43  PRO43       0.0939
     66  N         20.0500   -0.2700    0.7960 N.am   44  ASP44      -0.1958
     67  CA        18.7060   -0.5550    0.3470 C.3    44  ASP44       0.1840
     68  C         17.7970   -0.9950    1.4990 C.2    44  ASP44       0.2623
     69  O         16.5800   -0.7340    1.4670 O.2    44  ASP44      -0.2715
     70  CB        18.7530   -1.6210   -0.7280 C.3    44  ASP44       0.1450
     71  CG        17.5270   -1.6180   -1.5590 C.2    44  ASP44       0.3671
     72  OD1       17.4030   -0.7100   -2.4110 O.co2  44  ASP44      -0.2456
     73  OD2       16.6870   -2.5110   -1.3400 O.co2  44  ASP44      -0.2456
     74  N         18.4010   -1.6500    2.4990 N.am   45  GLY45      -0.1940
     75  CA        17.6900   -2.1830    3.6550 C.3    45  GLY45       0.2014
     76  C         18.4190   -1.8300    4.9340 C.2    45  GLY45       0.2639
     77  O         18.4980   -0.6450    5.2840 O.2    45  GLY45      -0.2714
     78  N         18.9890   -2.8520    5.5920 N.am   46  ASP46      -0.1957
     79  CA        19.5530   -2.7460    6.9440 C.3    46  ASP46       0.1840
     80  C         21.0750   -2.5320    7.0420 C.2    46  ASP46       0.2622
     81  O         21.8650   -3.1430    6.3160 O.2    46  ASP46      -0.2715
     82  CB        19.1550   -3.9780    7.7800 C.3    46  ASP46       0.1450
     83  CG        17.7590   -3.8460    8.3900 C.2    46  ASP46       0.3671
     84  OD1       17.5150   -2.8900    9.1600 O.co2  46  ASP46      -0.2456
     85  OD2       16.8880   -4.6940    8.0840 O.co2  46  ASP46      -0.2456
     86  N         21.4680   -1.6920    7.9980 N.am   47  TRP47      -0.1974
     87  CA        22.8410   -1.2200    8.1410 C.3    47  TRP47       0.1640
     88  C         23.5020   -1.7490    9.4200 C.2    47  TRP47       0.2290
     89  O         23.0600   -1.4900   10.5410 O.2    47  TRP47      -0.2864
     90  CB        22.8430    0.3120    8.1630 C.3    47  TRP47       0.0576
     91  CG        24.1750    0.9120    8.3860 C.ar   47  TRP47       0.0006
     92  CD1       24.5750    1.7260    9.4150 C.ar   47  TRP47       0.0946
     93  CD2       25.2980    0.7260    7.5620 C.ar   47  TRP47       0.0152
     94  NE1       25.8950    2.0570    9.2660 N.ar   47  TRP47      -0.2442
     95  CE2       26.3610    1.4480    8.1320 C.ar   47  TRP47       0.0810
     96  CE3       25.5130    0.0160    6.3800 C.ar   47  TRP47       0.0012
     97  CZ2       27.6180    1.4740    7.5550 C.ar   47  TRP47       0.0191
     98  CZ3       26.7390    0.0500    5.8110 C.ar   47  TRP47       0.0001
     99  CH2       27.7830    0.7700    6.3850 C.ar   47  TRP47       0.0015
@<TRIPOS>BOND
     1    72    71   ar
     2    71    73   ar
     3    71    70    1
     4    51    52    1
     5    70    67    1
     6    58    56    1
     7    54    53    2
     8    18    16   ar
     9    56    55    1
    10    55    52    1
    11    55    57    1
    12    67    66    1
    13    67    68    1
    14    52    53    1
    15    53    59   am
    16    17    16   ar
    17    16    15    1
    18    66    61   am
    19    61    60    1
    20    61    62    2
    21    69    68    2
    22    68    74   am
    23    59    60    1
    24    59    65    1
    25    60    63    1
    26    15    14    1
    27    74    75    1
    28    65    64    1
    29    14    11    1
    30    63    64    1
    31    13    12    2
    32    75    76    1
    33    12    11    1
    34    11    10    1
    35    76    77    2
    36    76    78   am
    37    10     3   am
    38    78    79    1
    39    34    32    1
    40    98    96   ar
    41    98    99   ar
    42    33    32    1
    43    81    80    2
    44    96    93   ar
    45    99    97   ar
    46    32    31    1
    47    19    20    1
    48     3     4    2
    49     3     2    1
    50    79    80    1
    51    79    82    1
    52    80    86   am
    53    97    95   ar
    54    93    95   ar
    55    93    91   ar
    56     1     2    1
    57    82    83    1
    58     2     5    1
    59    86    87    1
    60    31    28    1
    61    85    83   ar
    62    95    94   ar
    63    20    21    1
    64    20    23    1
    65    87    90    1
    66    87    88    1
    67    90    91    1
    68    21    22    2
    69    21    27   am
    70    27    28    1
    71    91    92   ar
    72    83    84   ar
    73     5     6    1
    74    28    29    1
    75    23    24    1
    76    94    92   ar
    77    88    89    2
    78    29    35   am
    79    29    30    2
    80     6     7    1
    81     9     7   ar
    82    50    48   ar
    83    35    36    1
    84    24    25    1
    85    24    26    1
    86     7     8   ar
    87    38    37    2
    88    48    49   ar
    89    48    47    1
    90    37    36    1
    91    36    39    1
    92    39    40    1
    93    47    44    1
    94    43    44    1
    95    44    45    1
    96    40    41    1
    97    40    42    1
    98    45    46    2
