@<TRIPOS>MOLECULE
tmp/6fi2A02.pdb
 109 103 0 0 0
SMALL
GASTEIGER

@<TRIPOS>ATOM
      1  N         -1.3270   21.3380   30.5870 N.3   168  LYS168     -0.1245
      2  CA        -0.1840   22.2530   30.7140 C.3   168  LYS168      0.1561
      3  C          0.9860   21.6910   29.9080 C.2   168  LYS168      0.2260
      4  O          1.6840   20.7740   30.3530 O.2   168  LYS168     -0.2867
      5  CB         0.1590   22.4710   32.1760 C.3   168  LYS168      0.0271
      6  CG        -0.9230   23.2630   32.9240 C.3   168  LYS168      0.0035
      7  CD        -0.7170   23.3170   34.4460 C.3   168  LYS168      0.0206
      8  CE        -1.1610   22.0540   35.1430 C.3   168  LYS168      0.1093
      9  NZ        -1.1660   22.2500   36.6170 N.3   168  LYS168     -0.1314
     10  N         -3.1420   24.8720   27.4380 N.3   204  GLN204     -0.1231
     11  CA        -2.4020   26.0380   27.7910 C.3   204  GLN204      0.1698
     12  C         -0.8810   25.7610   27.7480 C.2   204  GLN204      0.2592
     13  O         -0.4580   24.6340   27.6170 O.2   204  GLN204     -0.2718
     14  CB        -2.8370   26.5620   29.1640 C.3   204  GLN204      0.0381
     15  CG        -2.6620   25.5830   30.2970 C.3   204  GLN204      0.0905
     16  CD        -3.2460   26.1120   31.5920 C.2   204  GLN204      0.2608
     17  OE1       -2.9090   27.2320   32.0270 O.2   204  GLN204     -0.2717
     18  NE2       -4.0820   25.3100   32.2520 N.am  204  GLN204     -0.0878
     19  N         -0.1040   26.8290   27.8700 N.am  205  ARG205     -0.1980
     20  CA         1.3610   26.7610   27.9220 C.3   205  ARG205      0.1597
     21  C          1.9680   26.1900   26.6570 C.2   205  ARG205      0.2287
     22  O          2.6430   25.1650   26.6970 O.2   205  ARG205     -0.2864
     23  CB         1.8810   26.0030   29.1600 C.3   205  ARG205      0.0334
     24  CG         1.3630   26.5340   30.4700 C.3   205  ARG205      0.0492
     25  CD         2.0480   25.8650   31.6380 C.3   205  ARG205      0.2205
     26  NE         1.5230   26.3290   32.9170 N.pl3 205  ARG205     -0.0865
     27  CZ         1.8760   25.8320   34.1150 C.cat 205  ARG205      0.5346
     28  NH1        2.7310   24.8380   34.2180 N.pl3 205  ARG205      0.1354
     29  NH2        1.3150   26.3350   35.1880 N.pl3 205  ARG205      0.1354
     30  N          4.6980   28.3110   27.7950 N.3   208  ARG208     -0.1245
     31  CA         4.8060   29.4020   28.7830 C.3   208  ARG208      0.1563
     32  C          6.2980   29.5910   29.0550 C.2   208  ARG208      0.2260
     33  O          6.9410   28.6510   29.5170 O.2   208  ARG208     -0.2867
     34  CB         4.0790   29.0610   30.0740 C.3   208  ARG208      0.0307
     35  CG         3.9870   30.1620   31.1480 C.3   208  ARG208      0.0489
     36  CD         3.8300   29.5250   32.5280 C.3   208  ARG208      0.2205
     37  NE         3.2590   30.2920   33.6320 N.pl3 208  ARG208     -0.0865
     38  CZ         3.8660   31.3010   34.2580 C.cat 208  ARG208      0.5346
     39  NH1        5.0390   31.8000   33.8560 N.pl3 208  ARG208      0.1354
     40  NH2        3.2670   31.8460   35.2960 N.pl3 208  ARG208      0.1354
     41  N         -7.6440   27.1470   26.2670 N.3   226  PHE226     -0.1227
     42  CA        -7.5210   28.2190   27.2710 C.3   226  PHE226      0.1736
     43  C         -6.6430   29.3590   26.7190 C.2   226  PHE226      0.2595
     44  O         -7.1200   30.4930   26.5780 O.2   226  PHE226     -0.2718
     45  CB        -7.0560   27.6370   28.6030 C.3   226  PHE226      0.0547
     46  CG        -7.1520   28.5790   29.7850 C.ar  226  PHE226     -0.0202
     47  CD1       -8.3710   29.0950   30.1900 C.ar  226  PHE226     -0.0042
     48  CD2       -6.0310   28.8450   30.5690 C.ar  226  PHE226     -0.0042
     49  CE1       -8.4600   29.9250   31.2930 C.ar  226  PHE226     -0.0003
     50  CE2       -6.1080   29.6660   31.6800 C.ar  226  PHE226     -0.0003
     51  CZ        -7.3210   30.2060   32.0410 C.ar  226  PHE226     -0.0000
     52  N         -5.3770   29.0840   26.4220 N.am  227  TYR227     -0.1976
     53  CA        -4.5400   30.0740   25.7380 C.3   227  TYR227      0.1639
     54  C         -3.4410   29.3800   24.9670 C.2   227  TYR227      0.2290
     55  O         -3.1180   28.2460   25.2420 O.2   227  TYR227     -0.2864
     56  CB        -3.9960   31.1540   26.6890 C.3   227  TYR227      0.0560
     57  CG        -2.8660   30.7180   27.6170 C.ar  227  TYR227     -0.0198
     58  CD1       -1.5520   30.6310   27.1620 C.ar  227  TYR227     -0.0009
     59  CD2       -3.0930   30.4360   28.9570 C.ar  227  TYR227     -0.0009
     60  CE1       -0.5320   30.2700   28.0080 C.ar  227  TYR227      0.0417
     61  CE2       -2.0590   30.0840   29.8220 C.ar  227  TYR227      0.0417
     62  CZ        -0.7780   29.9790   29.3440 C.ar  227  TYR227      0.1957
     63  OH         0.2870   29.6450   30.1670 O.3   227  TYR227     -0.2866
     64  N         -9.9710   17.8870   39.1400 N.3   265  ASN265     -0.1240
     65  CA       -10.3230   19.2250   38.6550 C.3   265  ASN265      0.1653
     66  C        -11.1930   19.1180   37.4270 C.2   265  ASN265      0.2266
     67  O        -10.9690   18.2690   36.5280 O.2   265  ASN265     -0.2867
     68  CB        -9.0680   20.0270   38.2940 C.3   265  ASN265      0.1155
     69  CG        -8.4530   20.7500   39.4790 C.2   265  ASN265      0.2627
     70  OD1       -8.7330   20.4320   40.6200 O.2   265  ASN265     -0.2716
     71  ND2       -7.5790   21.7270   39.1930 N.am  265  ASN265     -0.0877
     72  N        -11.4650   22.4200   30.9050 N.3   268  TYR268     -0.1241
     73  CA       -11.4610   23.7730   30.4300 C.3   268  TYR268      0.1605
     74  C        -12.3990   23.9640   29.2510 C.2   268  TYR268      0.2264
     75  O        -12.3180   24.9770   28.5400 O.2   268  TYR268     -0.2867
     76  CB       -10.0540   24.2080   30.0340 C.3   268  TYR268      0.0534
     77  CG        -9.0860   24.3190   31.1880 C.ar  268  TYR268     -0.0201
     78  CD1       -8.5370   23.1720   31.7610 C.ar  268  TYR268     -0.0009
     79  CD2       -8.7050   25.5720   31.7090 C.ar  268  TYR268     -0.0009
     80  CE1       -7.6670   23.2510   32.8280 C.ar  268  TYR268      0.0417
     81  CE2       -7.8070   25.6600   32.7540 C.ar  268  TYR268      0.0417
     82  CZ        -7.2970   24.4990   33.3120 C.ar  268  TYR268      0.1957
     83  OH        -6.4140   24.5850   34.3400 O.3   268  TYR268     -0.2866
     84  N         -1.6070   34.9180   26.0600 N.3   281  LEU281     -0.1245
     85  CA        -1.8660   35.8790   27.1110 C.3   281  LEU281      0.1561
     86  C         -1.2410   37.2010   26.7010 C.2   281  LEU281      0.2260
     87  O         -0.2530   37.2270   25.9610 O.2   281  LEU281     -0.2867
     88  CB        -1.2830   35.4160   28.4350 C.3   281  LEU281      0.0270
     89  CG        -1.8660   34.0890   28.9590 C.3   281  LEU281      0.0019
     90  CD1       -1.2530   33.7770   30.3110 C.3   281  LEU281      0.0001
     91  CD2       -3.3880   34.1190   29.0490 C.3   281  LEU281      0.0001
     92  N          1.2710   38.8140   31.4070 N.3   285  ASP285     -0.1225
     93  CA         0.1040   38.5130   32.2330 C.3   285  ASP285      0.1805
     94  C          0.2420   37.3000   33.1090 C.2   285  ASP285      0.2598
     95  O         -0.3750   37.2460   34.1870 O.2   285  ASP285     -0.2718
     96  CB        -1.1930   38.4270   31.3810 C.3   285  ASP285      0.1424
     97  CG        -1.9700   39.7910   31.3330 C.2   285  ASP285      0.3668
     98  OD1       -1.4410   40.8250   31.8280 O.co2 285  ASP285     -0.2456
     99  OD2       -3.1190   39.8180   30.8540 O.co2 285  ASP285     -0.2456
    100  N          1.0740   36.3430   32.7120 N.am  286  SER286     -0.1952
    101  CA         1.2350   35.1230   33.5340 C.3   286  SER286      0.1924
    102  C          1.7320   35.3950   34.9420 C.2   286  SER286      0.2314
    103  O          1.3020   34.7150   35.8920 O.2   286  SER286     -0.2863
    104  CB         2.1540   34.1360   32.8660 C.3   286  SER286      0.2116
    105  OG         3.4440   34.6470   32.6590 O.3   286  SER286     -0.2180
    106  N          0.4670   39.6470   38.3340 N.3   289  GLY289     -0.1225
    107  CA        -0.1130   39.7970   39.6650 C.3   289  GLY289      0.1811
    108  C          0.9320   39.6180   40.7550 C.2   289  GLY289      0.2280
    109  O          1.0130   40.4290   41.6710 O.2   289  GLY289     -0.2866
@<TRIPOS>BOND
     1    54    55    2
     2    54    53    1
     3    53    52    1
     4    53    56    1
     5    87    86    2
     6    84    85    1
     7    41    42    1
     8    52    43   am
     9    44    43    2
    10    21    22    2
    11    21    20    1
    12    56    57    1
    13    86    85    1
    14    43    42    1
    15    85    88    1
    16    58    57   ar
    17    58    60   ar
    18    42    45    1
    19    10    11    1
    20    13    12    2
    21    57    59   ar
    22    12    11    1
    23    12    19   am
    24    11    14    1
    25    30    31    1
    26    19    20    1
    27    20    23    1
    28    60    62   ar
    29    88    89    1
    30    75    74    2
    31    45    46    1
    32    31    32    1
    33    31    34    1
    34    59    61   ar
    35    89    91    1
    36    89    90    1
    37    32    33    2
    38    23    24    1
    39    14    15    1
    40    74    73    1
    41    62    61   ar
    42    62    63    1
    43    46    47   ar
    44    46    48   ar
    45     3     4    2
    46     3     2    1
    47    76    73    1
    48    76    77    1
    49    34    35    1
    50    47    49   ar
    51    15    16    1
    52    73    72    1
    53    24    25    1
    54    48    50   ar
    55     1     2    1
    56     2     5    1
    57    99    97   ar
    58    35    36    1
    59    77    79   ar
    60    77    78   ar
    61    49    51   ar
    62    97    96    1
    63    97    98   ar
    64    96    93    1
    65    92    93    1
    66    16    17    2
    67    16    18   am
    68    25    26    1
    69    50    51   ar
    70    79    81   ar
    71    78    80   ar
    72     5     6    1
    73    93    94    1
    74    36    37    1
    75   105   104    1
    76   100    94   am
    77   100   101    1
    78    81    82   ar
    79    80    82   ar
    80   104   101    1
    81    26    27    2
    82     6     7    1
    83    94    95    2
    84    82    83    1
    85   101   102    1
    86    37    38    2
    87    39    38    1
    88    27    28    1
    89    27    29    1
    90    38    40    1
    91     7     8    1
    92   102   103    2
    93     8     9    1
    94    67    66    2
    95    66    65    1
    96    68    65    1
    97    68    69    1
    98   106   107    1
    99    65    64    1
   100    71    69   am
   101    69    70    2
   102   107   108    1
   103   108   109    2
