@<TRIPOS>MOLECULE
tmp/6fi2A03.pdb
 113 107 0 0 0
SMALL
GASTEIGER

@<TRIPOS>ATOM
      1  N         -3.0530   19.2070   28.9810 N.3   167  ASN167     -0.1225
      2  CA        -3.3980   20.4700   29.6310 C.3   167  ASN167      0.1785
      3  C         -2.2290   21.4620   29.6140 C.2   167  ASN167      0.2597
      4  O         -2.1640   22.3330   28.7300 O.2   167  ASN167     -0.2718
      5  CB        -3.9880   20.2230   31.0260 C.3   167  ASN167      0.1169
      6  CG        -4.2640   21.4870   31.8060 C.2   167  ASN167      0.2627
      7  OD1       -4.3420   22.5800   31.2380 O.2   167  ASN167     -0.2716
      8  ND2       -4.4100   21.3360   33.1130 N.am  167  ASN167     -0.0877
      9  N         -1.3270   21.3380   30.5870 N.am  168  LYS168     -0.1980
     10  CA        -0.1840   22.2530   30.7140 C.3   168  LYS168      0.1596
     11  C          0.9860   21.6910   29.9080 C.2   168  LYS168      0.2287
     12  O          1.6840   20.7740   30.3530 O.2   168  LYS168     -0.2864
     13  CB         0.1590   22.4710   32.1760 C.3   168  LYS168      0.0298
     14  CG        -0.9230   23.2630   32.9240 C.3   168  LYS168      0.0038
     15  CD        -0.7170   23.3170   34.4460 C.3   168  LYS168      0.0206
     16  CE        -1.1610   22.0540   35.1430 C.3   168  LYS168      0.1093
     17  NZ        -1.1660   22.2500   36.6170 N.3   168  LYS168     -0.1314
     18  N         -3.1420   24.8720   27.4380 N.3   204  GLN204     -0.1231
     19  CA        -2.4020   26.0380   27.7910 C.3   204  GLN204      0.1698
     20  C         -0.8810   25.7610   27.7480 C.2   204  GLN204      0.2592
     21  O         -0.4580   24.6340   27.6170 O.2   204  GLN204     -0.2718
     22  CB        -2.8370   26.5620   29.1640 C.3   204  GLN204      0.0381
     23  CG        -2.6620   25.5830   30.2970 C.3   204  GLN204      0.0905
     24  CD        -3.2460   26.1120   31.5920 C.2   204  GLN204      0.2608
     25  OE1       -2.9090   27.2320   32.0270 O.2   204  GLN204     -0.2717
     26  NE2       -4.0820   25.3100   32.2520 N.am  204  GLN204     -0.0878
     27  N         -0.1040   26.8290   27.8700 N.am  205  ARG205     -0.1980
     28  CA         1.3610   26.7610   27.9220 C.3   205  ARG205      0.1597
     29  C          1.9680   26.1900   26.6570 C.2   205  ARG205      0.2287
     30  O          2.6430   25.1650   26.6970 O.2   205  ARG205     -0.2864
     31  CB         1.8810   26.0030   29.1600 C.3   205  ARG205      0.0334
     32  CG         1.3630   26.5340   30.4700 C.3   205  ARG205      0.0492
     33  CD         2.0480   25.8650   31.6380 C.3   205  ARG205      0.2205
     34  NE         1.5230   26.3290   32.9170 N.pl3 205  ARG205     -0.0865
     35  CZ         1.8760   25.8320   34.1150 C.cat 205  ARG205      0.5346
     36  NH1        2.7310   24.8380   34.2180 N.pl3 205  ARG205      0.1354
     37  NH2        1.3150   26.3350   35.1880 N.pl3 205  ARG205      0.1354
     38  N          4.6980   28.3110   27.7950 N.3   208  ARG208     -0.1245
     39  CA         4.8060   29.4020   28.7830 C.3   208  ARG208      0.1563
     40  C          6.2980   29.5910   29.0550 C.2   208  ARG208      0.2260
     41  O          6.9410   28.6510   29.5170 O.2   208  ARG208     -0.2867
     42  CB         4.0790   29.0610   30.0740 C.3   208  ARG208      0.0307
     43  CG         3.9870   30.1620   31.1480 C.3   208  ARG208      0.0489
     44  CD         3.8300   29.5250   32.5280 C.3   208  ARG208      0.2205
     45  NE         3.2590   30.2920   33.6320 N.pl3 208  ARG208     -0.0865
     46  CZ         3.8660   31.3010   34.2580 C.cat 208  ARG208      0.5346
     47  NH1        5.0390   31.8000   33.8560 N.pl3 208  ARG208      0.1354
     48  NH2        3.2670   31.8460   35.2960 N.pl3 208  ARG208      0.1354
     49  N         -7.6440   27.1470   26.2670 N.3   226  PHE226     -0.1227
     50  CA        -7.5210   28.2190   27.2710 C.3   226  PHE226      0.1736
     51  C         -6.6430   29.3590   26.7190 C.2   226  PHE226      0.2595
     52  O         -7.1200   30.4930   26.5780 O.2   226  PHE226     -0.2718
     53  CB        -7.0560   27.6370   28.6030 C.3   226  PHE226      0.0547
     54  CG        -7.1520   28.5790   29.7850 C.ar  226  PHE226     -0.0202
     55  CD1       -8.3710   29.0950   30.1900 C.ar  226  PHE226     -0.0042
     56  CD2       -6.0310   28.8450   30.5690 C.ar  226  PHE226     -0.0042
     57  CE1       -8.4600   29.9250   31.2930 C.ar  226  PHE226     -0.0003
     58  CE2       -6.1080   29.6660   31.6800 C.ar  226  PHE226     -0.0003
     59  CZ        -7.3210   30.2060   32.0410 C.ar  226  PHE226     -0.0000
     60  N         -5.3770   29.0840   26.4220 N.am  227  TYR227     -0.1976
     61  CA        -4.5400   30.0740   25.7380 C.3   227  TYR227      0.1639
     62  C         -3.4410   29.3800   24.9670 C.2   227  TYR227      0.2290
     63  O         -3.1180   28.2460   25.2420 O.2   227  TYR227     -0.2864
     64  CB        -3.9960   31.1540   26.6890 C.3   227  TYR227      0.0560
     65  CG        -2.8660   30.7180   27.6170 C.ar  227  TYR227     -0.0198
     66  CD1       -1.5520   30.6310   27.1620 C.ar  227  TYR227     -0.0009
     67  CD2       -3.0930   30.4360   28.9570 C.ar  227  TYR227     -0.0009
     68  CE1       -0.5320   30.2700   28.0080 C.ar  227  TYR227      0.0417
     69  CE2       -2.0590   30.0840   29.8220 C.ar  227  TYR227      0.0417
     70  CZ        -0.7780   29.9790   29.3440 C.ar  227  TYR227      0.1957
     71  OH         0.2870   29.6450   30.1670 O.3   227  TYR227     -0.2866
     72  N         -5.1010   15.8540   39.8180 N.3   260  THR260     -0.1218
     73  CA        -4.1450   16.8290   40.3170 C.3   260  THR260      0.1862
     74  C         -3.6890   16.4880   41.7250 C.2   260  THR260      0.2287
     75  O         -4.2580   15.6170   42.3910 O.2   260  THR260     -0.2866
     76  CB        -4.7040   18.2900   40.2880 C.3   260  THR260      0.1770
     77  OG1       -5.4870   18.5420   41.4680 O.3   260  THR260     -0.2211
     78  CG2       -5.4970   18.5790   39.0080 C.3   260  THR260      0.0375
     79  N         -4.2210   18.1640   44.3530 N.3   262  GLU262     -0.1245
     80  CA        -5.2800   18.5380   45.3100 C.3   262  GLU262      0.1567
     81  C         -6.5690   17.7740   45.0390 C.2   262  GLU262      0.2260
     82  O         -7.5650   17.9940   45.7230 O.2   262  GLU262     -0.2867
     83  CB        -5.5800   20.0470   45.2520 C.3   262  GLU262      0.0388
     84  CG        -4.4220   20.9670   45.6600 C.3   262  GLU262      0.1160
     85  CD        -3.6260   21.5450   44.4890 C.2   262  GLU262      0.3649
     86  OE1       -3.9440   21.2440   43.3080 O.co2 262  GLU262     -0.2457
     87  OE2       -2.6550   22.3050   44.7510 O.co2 262  GLU262     -0.2457
     88  N         -9.9710   17.8870   39.1400 N.3   265  ASN265     -0.1240
     89  CA       -10.3230   19.2250   38.6550 C.3   265  ASN265      0.1653
     90  C        -11.1930   19.1180   37.4270 C.2   265  ASN265      0.2266
     91  O        -10.9690   18.2690   36.5280 O.2   265  ASN265     -0.2867
     92  CB        -9.0680   20.0270   38.2940 C.3   265  ASN265      0.1155
     93  CG        -8.4530   20.7500   39.4790 C.2   265  ASN265      0.2627
     94  OD1       -8.7330   20.4320   40.6200 O.2   265  ASN265     -0.2716
     95  ND2       -7.5790   21.7270   39.1930 N.am  265  ASN265     -0.0877
     96  N        -11.4650   22.4200   30.9050 N.3   268  TYR268     -0.1241
     97  CA       -11.4610   23.7730   30.4300 C.3   268  TYR268      0.1605
     98  C        -12.3990   23.9640   29.2510 C.2   268  TYR268      0.2264
     99  O        -12.3180   24.9770   28.5400 O.2   268  TYR268     -0.2867
    100  CB       -10.0540   24.2080   30.0340 C.3   268  TYR268      0.0534
    101  CG        -9.0860   24.3190   31.1880 C.ar  268  TYR268     -0.0201
    102  CD1       -8.5370   23.1720   31.7610 C.ar  268  TYR268     -0.0009
    103  CD2       -8.7050   25.5720   31.7090 C.ar  268  TYR268     -0.0009
    104  CE1       -7.6670   23.2510   32.8280 C.ar  268  TYR268      0.0417
    105  CE2       -7.8070   25.6600   32.7540 C.ar  268  TYR268      0.0417
    106  CZ        -7.2970   24.4990   33.3120 C.ar  268  TYR268      0.1957
    107  OH        -6.4140   24.5850   34.3400 O.3   268  TYR268     -0.2866
    108  N          1.0740   36.3430   32.7120 N.3   286  SER286     -0.1217
    109  CA         1.2350   35.1230   33.5340 C.3   286  SER286      0.1889
    110  C          1.7320   35.3950   34.9420 C.2   286  SER286      0.2288
    111  O          1.3020   34.7150   35.8920 O.2   286  SER286     -0.2866
    112  CB         2.1540   34.1360   32.8660 C.3   286  SER286      0.2089
    113  OG         3.4440   34.6470   32.6590 O.3   286  SER286     -0.2183
@<TRIPOS>BOND
     1    62    63    2
     2    62    61    1
     3    61    60    1
     4    61    64    1
     5    49    50    1
     6    60    51   am
     7    52    51    2
     8    29    30    2
     9    29    28    1
    10    64    65    1
    11    51    50    1
    12    66    65   ar
    13    66    68   ar
    14    50    53    1
    15    18    19    1
    16    65    67   ar
    17    21    20    2
    18    20    19    1
    19    20    27   am
    20    19    22    1
    21    38    39    1
    22    27    28    1
    23    28    31    1
    24    68    70   ar
    25    99    98    2
    26    53    54    1
    27     4     3    2
    28    39    40    1
    29    39    42    1
    30    67    69   ar
    31     1     2    1
    32    40    41    2
    33    31    32    1
    34    22    23    1
    35    98    97    1
    36    70    69   ar
    37    70    71    1
    38     3     2    1
    39     3     9   am
    40     2     5    1
    41    54    55   ar
    42    54    56   ar
    43    11    12    2
    44    11    10    1
    45   100    97    1
    46   100   101    1
    47    42    43    1
    48    55    57   ar
    49    23    24    1
    50    97    96    1
    51    32    33    1
    52    56    58   ar
    53     9    10    1
    54    10    13    1
    55     5     6    1
    56    43    44    1
    57   101   103   ar
    58   101   102   ar
    59     7     6    2
    60    57    59   ar
    61    24    25    2
    62    24    26   am
    63    33    34    1
    64    58    59   ar
    65   103   105   ar
    66   102   104   ar
    67     6     8   am
    68    13    14    1
    69    44    45    1
    70   113   112    1
    71   108   109    1
    72   105   106   ar
    73   104   106   ar
    74   112   109    1
    75    34    35    2
    76    14    15    1
    77   106   107    1
    78   109   110    1
    79    45    46    2
    80    47    46    1
    81    35    36    1
    82    35    37    1
    83    46    48    1
    84    15    16    1
    85   110   111    2
    86    16    17    1
    87    91    90    2
    88    90    89    1
    89    92    89    1
    90    92    93    1
    91    89    88    1
    92    78    76    1
    93    95    93   am
    94    93    94    2
    95    72    73    1
    96    76    73    1
    97    76    77    1
    98    73    74    1
    99    74    75    2
   100    86    85   ar
   101    79    80    1
   102    85    87   ar
   103    85    84    1
   104    81    80    1
   105    81    82    2
   106    83    80    1
   107    83    84    1
