@<TRIPOS>MOLECULE
tmp/6fi3A00.pdb
 127 116 0 0 0
SMALL
GASTEIGER

@<TRIPOS>ATOM
      1  N        -19.3280   20.4020   38.3860 N.3    22  ILE22      -0.1231
      2  CA       -19.0340   19.8740   39.7140 C.3    22  ILE22       0.1692
      3  C        -17.7980   20.5320   40.3190 C.2    22  ILE22       0.2593
      4  O        -17.7970   20.9160   41.4920 O.2    22  ILE22      -0.2718
      5  CB       -18.8660   18.3350   39.6900 C.3    22  ILE22       0.0266
      6  CG1      -20.1950   17.6370   39.4260 C.3    22  ILE22       0.0019
      7  CG2      -18.2910   17.8300   41.0130 C.3    22  ILE22       0.0020
      8  CD1      -20.0970   16.1340   39.4470 C.3    22  ILE22       0.0001
      9  N        -16.7290   20.6490   39.5430 N.am   23  GLY23      -0.1942
     10  CA       -15.4750   21.1490   40.0820 C.3    23  GLY23       0.2014
     11  C        -14.4270   21.2300   38.9950 C.2    23  GLY23       0.2638
     12  O        -14.6390   20.7890   37.8580 O.2    23  GLY23      -0.2714
     13  N        -13.2780   21.7880   39.3710 N.am   24  GLU24      -0.1977
     14  CA       -12.2250   22.1640   38.4380 C.3    24  GLU24       0.1602
     15  C        -10.9520   21.3670   38.7110 C.2    24  GLU24       0.2287
     16  O        -10.8520   20.6100   39.6810 O.2    24  GLU24      -0.2864
     17  CB       -11.9370   23.6710   38.5350 C.3    24  GLU24       0.0415
     18  CG       -11.1900   24.2830   37.3520 C.3    24  GLU24       0.1163
     19  CD       -12.0860   24.5250   36.1580 C.2    24  GLU24       0.3649
     20  OE1      -13.3290   24.4510   36.3190 O.co2  24  GLU24      -0.2457
     21  OE2      -11.5460   24.7980   35.0640 O.co2  24  GLU24      -0.2457
     22  N        -14.6570   18.9630   35.9070 N.3    30  VAL30      -0.1245
     23  CA       -15.4710   17.7890   36.2060 C.3    30  VAL30       0.1561
     24  C        -16.9390   18.1960   36.2090 C.2    30  VAL30       0.2260
     25  O        -17.3080   19.2030   36.8250 O.2    30  VAL30      -0.2867
     26  CB       -15.0770   17.1340   37.5410 C.3    30  VAL30       0.0252
     27  CG1      -16.0530   16.0270   37.8820 C.3    30  VAL30       0.0019
     28  CG2      -13.6870   16.5390   37.4250 C.3    30  VAL30       0.0019
     29  N        -20.2750   10.8620   36.5080 N.3    43  ALA43      -0.1245
     30  CA       -19.2890   11.9280   36.5460 C.3    43  ALA43       0.1562
     31  C        -18.4460   11.8340   35.2910 C.2    43  ALA43       0.2260
     32  O        -18.1190   10.7340   34.8400 O.2    43  ALA43      -0.2867
     33  CB       -18.3700   11.8080   37.7730 C.3    43  ALA43       0.0290
     34  N        -14.8620   13.6300   33.6620 N.3    45  LYS45      -0.1245
     35  CA       -13.7000   14.4950   33.8410 C.3    45  LYS45       0.1561
     36  C        -13.1210   14.8090   32.4630 C.2    45  LYS45       0.2260
     37  O        -12.7800   13.8910   31.7080 O.2    45  LYS45      -0.2867
     38  CB       -12.6240   13.8360   34.7080 C.3    45  LYS45       0.0271
     39  CG       -13.1160   13.1940   35.9840 C.3    45  LYS45       0.0035
     40  CD       -11.9340   12.7350   36.8460 C.3    45  LYS45       0.0206
     41  CE       -10.9610   11.8860   36.0370 C.3    45  LYS45       0.1093
     42  NZ        -9.7430   11.4530   36.7960 N.3    45  LYS45      -0.1314
     43  N        -12.0100    3.5730   42.2690 N.3    75  ILE75      -0.1245
     44  CA       -12.9380    4.0930   41.2660 C.3    75  ILE75       0.1561
     45  C        -12.6720    3.4080   39.9230 C.2    75  ILE75       0.2260
     46  O        -11.5210    3.1520   39.5220 O.2    75  ILE75      -0.2867
     47  CB       -12.8180    5.6220   41.1520 C.3    75  ILE75       0.0252
     48  CG1      -14.0160    6.2160   40.3830 C.3    75  ILE75       0.0019
     49  CG2      -11.4540    6.0290   40.4700 C.3    75  ILE75       0.0019
     50  CD1      -15.3460    6.1820   41.1060 C.3    75  ILE75       0.0001
     51  N        -16.9320    8.1500   34.9990 N.3    96  GLN96      -0.1231
     52  CA       -16.8830    7.3220   36.2000 C.3    96  GLN96       0.1698
     53  C        -18.2270    7.3610   36.9030 C.2    96  GLN96       0.2592
     54  O        -19.0600    8.2330   36.6310 O.2    96  GLN96      -0.2718
     55  CB       -15.8200    7.8150   37.1750 C.3    96  GLN96       0.0381
     56  CG       -14.4540    7.8950   36.5630 C.3    96  GLN96       0.0905
     57  CD       -13.4300    8.4010   37.5540 C.2    96  GLN96       0.2608
     58  OE1      -13.7290    9.2660   38.3980 O.2    96  GLN96      -0.2717
     59  NE2      -12.2250    7.8360   37.4900 N.am   96  GLN96      -0.0878
     60  N        -18.4320    6.3980   37.8020 N.am   97  ASP97      -0.1960
     61  CA       -19.5600    6.4790   38.7110 C.3    97  ASP97       0.1840
     62  C        -19.6000    7.8600   39.3540 C.2    97  ASP97       0.2622
     63  O        -18.5760    8.3830   39.8070 O.2    97  ASP97      -0.2715
     64  CB       -19.4360    5.4240   39.8110 C.3    97  ASP97       0.1450
     65  CG       -19.5560    4.0060   39.2950 C.2    97  ASP97       0.3671
     66  OD1      -20.0680    3.8090   38.1700 O.co2  97  ASP97      -0.2456
     67  OD2      -19.1540    3.0750   40.0260 O.co2  97  ASP97      -0.2456
     68  N        -20.8010    8.4120   39.4600 N.am   98  LEU98      -0.1963
     69  CA       -21.0270    9.6730   40.1560 C.3    98  LEU98       0.1728
     70  C        -20.9730    9.4460   41.6650 C.2    98  LEU98       0.2616
     71  O        -21.7900    8.7020   42.2220 O.2    98  LEU98      -0.2715
     72  CB       -22.3870   10.2390   39.7520 C.3    98  LEU98       0.0311
     73  CG       -22.6670   11.6220   40.3460 C.3    98  LEU98       0.0022
     74  CD1      -21.5940   12.5980   39.9380 C.3    98  LEU98       0.0001
     75  CD2      -24.0410   12.1280   39.9500 C.3    98  LEU98       0.0001
     76  N        -20.0270   10.1000   42.3390 N.am   99  MET99      -0.1977
     77  CA       -19.9170    9.9810   43.7830 C.3    99  MET99       0.1605
     78  C        -20.4320   11.2500   44.4680 C.2    99  MET99       0.2287
     79  O        -20.2320   12.3500   43.9720 O.2    99  MET99      -0.2864
     80  CB       -18.4540    9.6900   44.1310 C.3    99  MET99       0.0413
     81  CG       -17.9550    8.4600   43.3990 C.3    99  MET99       0.0598
     82  SD       -18.6770    6.9260   44.0290 S.3    99  MET99      -0.1393
     83  CE       -17.7030    6.6580   45.5060 C.3    99  MET99       0.0692
     84  N        -19.5880   12.8760   47.2190 N.3   101  THR101     -0.1203
     85  CA       -18.6800   13.8010   47.8790 C.3   101  THR101      0.1994
     86  C        -17.2940   13.1480   47.9030 C.2   101  THR101      0.2617
     87  O        -17.0720   12.1000   47.3030 O.2   101  THR101     -0.2717
     88  CB       -19.2160   14.1570   49.2830 C.3   101  THR101      0.1784
     89  OG1      -18.4650   15.2340   49.8300 O.3   101  THR101     -0.2211
     90  CG2      -19.1450   12.9790   50.2270 C.3   101  THR101      0.0376
     91  N        -16.3500   13.8010   48.5560 N.am  102  ASP102     -0.1973
     92  CA       -15.0740   13.1650   48.8540 C.3   102  ASP102      0.1709
     93  C        -14.7640   13.4580   50.2980 C.2   102  ASP102      0.2293
     94  O        -15.4360   14.2620   50.9370 O.2   102  ASP102     -0.2864
     95  CB       -13.9340   13.6140   47.9190 C.3   102  ASP102      0.1436
     96  CG       -13.6530   15.0940   47.9810 C.2   102  ASP102      0.3671
     97  OD1      -13.3470   15.5970   49.0700 O.co2 102  ASP102     -0.2456
     98  OD2      -13.7010   15.7520   46.9090 O.co2 102  ASP102     -0.2456
     99  N        -14.1190   17.1640   51.3590 N.3   105  LYS105     -0.1245
    100  CA       -15.2900   18.0280   51.4880 C.3   105  LYS105      0.1561
    101  C        -16.1080   17.6230   52.6980 C.2   105  LYS105      0.2260
    102  O        -16.6100   18.4830   53.4380 O.2   105  LYS105     -0.2867
    103  CB       -16.1510   17.9570   50.2160 C.3   105  LYS105      0.0271
    104  CG       -15.4910   18.5070   48.9680 C.3   105  LYS105      0.0035
    105  CD       -16.4330   18.5250   47.7600 C.3   105  LYS105      0.0206
    106  CE       -16.5160   17.1830   47.0360 C.3   105  LYS105      0.1093
    107  NZ       -17.0300   17.3430   45.6220 N.3   105  LYS105     -0.1314
    108  N         -8.9500   14.2550   49.6370 N.3   144  SER144     -0.1217
    109  CA        -9.6170   14.6370   48.3910 C.3   144  SER144      0.1889
    110  C         -9.5520   13.5340   47.3450 C.2   144  SER144      0.2288
    111  O        -10.2350   13.6540   46.3160 O.2   144  SER144     -0.2866
    112  CB        -9.0400   15.9510   47.8440 C.3   144  SER144      0.2089
    113  OG        -7.6660   15.8230   47.5580 O.3   144  SER144     -0.2183
    114  N        -13.2320    9.2140   47.3120 N.3   147  LEU147     -0.1245
    115  CA       -14.5970    9.5680   46.9510 C.3   147  LEU147      0.1561
    116  C        -15.5830    8.7330   47.7510 C.2   147  LEU147      0.2260
    117  O        -15.3130    7.5710   48.0510 O.2   147  LEU147     -0.2867
    118  CB       -14.8300    9.2960   45.4620 C.3   147  LEU147      0.0270
    119  CG       -13.8870   10.0390   44.5170 C.3   147  LEU147      0.0019
    120  CD1      -14.3170    9.7610   43.0920 C.3   147  LEU147      0.0001
    121  CD2      -13.9300   11.4820   44.7820 C.3   147  LEU147      0.0001
    122  N         -9.2250    7.2310   44.3120 N.3   156  CYS156     -0.1235
    123  CA        -9.0710    7.7410   42.9560 C.3   156  CYS156      0.1677
    124  C         -7.7110    8.4160   42.7840 C.2   156  CYS156      0.2270
    125  O         -6.9270    8.5190   43.7120 O.2   156  CYS156     -0.2867
    126  CB       -10.1920    8.7250   42.5950 C.3   156  CYS156      0.0956
    127  SG       -10.1750   10.2800   43.4880 S.3   156  CYS156     -0.0801
@<TRIPOS>BOND
     1    37    36    2
     2    36    35    1
     3    34    35    1
     4    35    38    1
     5    38    39    1
     6    32    31    2
     7    51    52    1
     8    21    19   ar
     9    31    30    1
    10    22    23    1
    11    39    40    1
    12    41    42    1
    13    41    40    1
    14    19    20   ar
    15    19    18    1
    16    52    53    1
    17    52    55    1
    18    23    24    1
    19    23    26    1
    20    24    25    2
    21    29    30    1
    22    30    33    1
    23    56    55    1
    24    56    57    1
    25    54    53    2
    26    53    60   am
    27    18    17    1
    28    28    26    1
    29    59    57   am
    30    26    27    1
    31    57    58    2
    32    60    61    1
    33    12    11    2
    34    66    65   ar
    35     1     2    1
    36    14    17    1
    37    14    15    1
    38    14    13    1
    39    15    16    2
    40    61    62    1
    41    61    64    1
    42    11    13   am
    43    11    10    1
    44    65    64    1
    45    65    67   ar
    46    62    68   am
    47    62    63    2
    48     6     8    1
    49     6     5    1
    50    68    69    1
    51    46    45    2
    52     9    10    1
    53     9     3   am
    54     5     2    1
    55     5     7    1
    56     2     3    1
    57    72    69    1
    58    72    73    1
    59    45    44    1
    60    74    73    1
    61    75    73    1
    62    69    70    1
    63     3     4    2
    64    48    50    1
    65    48    47    1
    66    49    47    1
    67    47    44    1
    68    44    43    1
    69    70    71    2
    70    70    76   am
    71    76    77    1
    72   126   123    1
    73   126   127    1
    74   124   123    1
    75   124   125    2
    76   123   122    1
    77   120   119    1
    78    81    82    1
    79    81    80    1
    80    77    80    1
    81    77    78    1
    82    79    78    2
    83    82    83    1
    84   119   121    1
    85   119   118    1
    86   118   115    1
    87   107   106    1
    88   111   110    2
    89    98    96   ar
    90   115   114    1
    91   115   116    1
    92   106   105    1
    93    84    85    1
    94    87    86    2
    95   110   109    1
    96   113   112    1
    97   116   117    2
    98   105   104    1
    99   112   109    1
   100    85    86    1
   101    85    88    1
   102    86    91   am
   103    95    96    1
   104    95    92    1
   105    96    97   ar
   106   109   108    1
   107    91    92    1
   108    92    93    1
   109   104   103    1
   110    88    89    1
   111    88    90    1
   112   103   100    1
   113    93    94    2
   114    99   100    1
   115   100   101    1
   116   101   102    2
