@<TRIPOS>MOLECULE
tmp/6fi5A01.pdb
 101 94 0 0 0
SMALL
GASTEIGER

@<TRIPOS>ATOM
      1  N        -16.4970  -20.6580    3.4390 N.3    47  ASN47      -0.1240
      2  CA       -17.5000  -19.6270    3.2050 C.3    47  ASN47       0.1653
      3  C        -16.9430  -18.2370    3.4900 C.2    47  ASN47       0.2266
      4  O        -17.2460  -17.2840    2.7640 O.2    47  ASN47      -0.2867
      5  CB       -18.7400  -19.8910    4.0620 C.3    47  ASN47       0.1155
      6  CG       -19.5340  -21.0940    3.5880 C.2    47  ASN47       0.2627
      7  OD1      -19.2980  -21.6210    2.5020 O.2    47  ASN47      -0.2716
      8  ND2      -20.4970  -21.5240    4.3990 N.am   47  ASN47      -0.0877
      9  N        -14.8190  -17.1690    0.6040 N.3    50  SER50      -0.1202
     10  CA       -15.6470  -16.8400   -0.5520 C.3    50  SER50       0.2020
     11  C        -16.3480  -15.4990   -0.3680 C.2    50  SER50       0.2618
     12  O        -16.3210  -14.6450   -1.2630 O.2    50  SER50      -0.2717
     13  CB       -16.6610  -17.9630   -0.7810 C.3    50  SER50       0.2103
     14  OG       -17.6880  -17.5700   -1.6640 O.3    50  SER50      -0.2182
     15  N        -16.9650  -15.2870    0.7970 N.am   51  VAL51      -0.1979
     16  CA       -17.6640  -14.0290    1.0540 C.3    51  VAL51       0.1595
     17  C        -16.7100  -12.8490    0.9060 C.2    51  VAL51       0.2287
     18  O        -17.0460  -11.8280    0.2880 O.2    51  VAL51      -0.2864
     19  CB       -18.3200  -14.0630    2.4490 C.3    51  VAL51       0.0276
     20  CG1      -18.8080  -12.6740    2.8690 C.3    51  VAL51       0.0022
     21  CG2      -19.4820  -15.0590    2.4650 C.3    51  VAL51       0.0022
     22  N        -15.4850  -12.3960   -2.8780 N.3    54  LYS54      -0.1245
     23  CA       -16.6530  -12.0750   -3.6910 C.3    54  LYS54       0.1561
     24  C        -17.0290  -10.6050   -3.5500 C.2    54  LYS54       0.2260
     25  O        -17.3380   -9.9320   -4.5430 O.2    54  LYS54      -0.2867
     26  CB       -17.8320  -12.9620   -3.2920 C.3    54  LYS54       0.0271
     27  CG       -19.0810  -12.7730   -4.1530 C.3    54  LYS54       0.0035
     28  CD       -18.9590  -13.5050   -5.4810 C.3    54  LYS54       0.0206
     29  CE       -19.1770  -15.0010   -5.3100 C.3    54  LYS54       0.1093
     30  NZ       -18.3700  -15.7920   -6.2780 N.3    54  LYS54      -0.1314
     31  N        -16.2470  -27.0410   -4.0550 N.3   118  PHE118     -0.1241
     32  CA       -16.2630  -25.6450   -3.6300 C.3   118  PHE118      0.1605
     33  C        -15.1230  -24.8650   -4.2720 C.2   118  PHE118      0.2264
     34  O        -15.3330  -23.7850   -4.8420 O.2   118  PHE118     -0.2867
     35  CB       -16.1710  -25.5720   -2.1010 C.3   118  PHE118      0.0534
     36  CG       -16.4960  -24.2150   -1.5260 C.ar  118  PHE118     -0.0203
     37  CD1      -15.5560  -23.2000   -1.5140 C.ar  118  PHE118     -0.0042
     38  CD2      -17.7410  -23.9680   -0.9700 C.ar  118  PHE118     -0.0042
     39  CE1      -15.8610  -21.9540   -0.9690 C.ar  118  PHE118     -0.0003
     40  CE2      -18.0490  -22.7290   -0.4300 C.ar  118  PHE118     -0.0003
     41  CZ       -17.1040  -21.7210   -0.4350 C.ar  118  PHE118     -0.0000
     42  N        -15.4000  -24.6480   -8.1710 N.3   121  LYS121     -0.1231
     43  CA       -16.3850  -23.6220   -8.5000 C.3   121  LYS121      0.1693
     44  C        -15.7760  -22.2300   -8.3640 C.2   121  LYS121      0.2591
     45  O        -15.9730  -21.3680   -9.2280 O.2   121  LYS121     -0.2718
     46  CB       -17.6190  -23.7880   -7.6070 C.3   121  LYS121      0.0285
     47  CG       -18.7760  -22.8100   -7.8580 C.3   121  LYS121      0.0035
     48  CD       -18.5660  -21.4770   -7.1550 C.3   121  LYS121      0.0206
     49  CE       -19.8750  -20.7390   -6.9260 C.3   121  LYS121      0.1093
     50  NZ       -19.6250  -19.3970   -6.3430 N.3   121  LYS121     -0.1314
     51  N        -15.0060  -21.9970   -7.2970 N.am  122  MET122     -0.1979
     52  CA       -14.3520  -20.7010   -7.1350 C.3   122  MET122      0.1605
     53  C        -13.3740  -20.4400   -8.2680 C.2   122  MET122      0.2287
     54  O        -13.2920  -19.3200   -8.7850 O.2   122  MET122     -0.2864
     55  CB       -13.6160  -20.6310   -5.8000 C.3   122  MET122      0.0413
     56  CG       -14.5060  -20.5070   -4.5870 C.3   122  MET122      0.0598
     57  SD       -13.5200  -20.1400   -3.1210 S.3   122  MET122     -0.1393
     58  CE       -13.1870  -18.3910   -3.3300 C.3   122  MET122      0.0692
     59  N        -26.5580  -27.4390   -1.6120 N.3   164  PRO164     -0.2102
     60  CA       -26.3700  -26.0280   -2.0060 C.3   164  PRO164      0.1504
     61  C        -25.1190  -25.7660   -2.8320 C.2   164  PRO164      0.2575
     62  O        -25.1560  -24.9390   -3.7510 O.2   164  PRO164     -0.2718
     63  CB       -26.3160  -25.3020   -0.6570 C.3   164  PRO164      0.0282
     64  CG       -27.1350  -26.1460    0.2480 C.3   164  PRO164      0.0208
     65  CD       -26.8920  -27.5660   -0.1800 C.3   164  PRO164      0.0893
     66  N        -24.0030  -26.4290   -2.5240 N.am  165  ILE165     -0.1980
     67  CA       -22.7850  -26.2180   -3.3060 C.3   165  ILE165      0.1595
     68  C        -23.0040  -26.6550   -4.7510 C.2   165  ILE165      0.2287
     69  O        -22.6330  -25.9480   -5.6950 O.2   165  ILE165     -0.2864
     70  CB       -21.5950  -26.9550   -2.6660 C.3   165  ILE165      0.0276
     71  CG1      -21.4320  -26.5570   -1.1910 C.3   165  ILE165      0.0022
     72  CG2      -20.3130  -26.6710   -3.4340 C.3   165  ILE165      0.0022
     73  CD1      -21.3380  -25.0600   -0.9450 C.3   165  ILE165      0.0001
     74  N        -25.3340  -24.1490   -6.4140 N.3   168  GLY168     -0.1210
     75  CA       -24.6650  -22.8900   -6.6920 C.3   168  GLY168      0.1956
     76  C        -23.6600  -23.0130   -7.8160 C.2   168  GLY168      0.2611
     77  O        -23.5100  -22.0980   -8.6330 O.2   168  GLY168     -0.2717
     78  N        -22.9650  -24.1500   -7.8810 N.am  169  LEU169     -0.1979
     79  CA       -22.0970  -24.4350   -9.0190 C.3   169  LEU169      0.1596
     80  C        -22.8840  -24.4040  -10.3220 C.2   169  LEU169      0.2287
     81  O        -22.4760  -23.7620  -11.3010 O.2   169  LEU169     -0.2864
     82  CB       -21.4320  -25.7990   -8.8290 C.3   169  LEU169      0.0297
     83  CG       -20.7750  -26.4040  -10.0730 C.3   169  LEU169      0.0022
     84  CD1      -19.6870  -25.4900  -10.6110 C.3   169  LEU169      0.0001
     85  CD2      -20.2230  -27.7680   -9.7310 C.3   169  LEU169      0.0001
     86  N        -32.5330  -23.9570    2.5640 N.3   212  ASP212     -0.1239
     87  CA       -31.2740  -23.6470    1.8890 C.3   212  ASP212      0.1674
     88  C        -31.3580  -23.9510    0.3970 C.2   212  ASP212      0.2266
     89  O        -30.9240  -23.1490   -0.4390 O.2   212  ASP212     -0.2867
     90  CB       -30.1250  -24.4360    2.5180 C.3   212  ASP212      0.1410
     91  CG       -29.9010  -24.0890    3.9740 C.2   212  ASP212      0.3668
     92  OD1      -29.6140  -25.0150    4.7610 O.co2 212  ASP212     -0.2456
     93  OD2      -30.0270  -22.9000    4.3330 O.co2 212  ASP212     -0.2456
     94  N        -31.7750  -21.2480   -3.3990 N.3   216  ILE216     -0.1245
     95  CA       -30.9560  -21.2460   -4.6090 C.3   216  ILE216      0.1561
     96  C        -31.7870  -21.6570   -5.8180 C.2   216  ILE216      0.2260
     97  O        -31.5780  -21.1600   -6.9300 O.2   216  ILE216     -0.2867
     98  CB       -29.7310  -22.1600   -4.4290 C.3   216  ILE216      0.0252
     99  CG1      -28.8870  -21.6790   -3.2420 C.3   216  ILE216      0.0019
    100  CG2      -28.8960  -22.1860   -5.7150 C.3   216  ILE216      0.0019
    101  CD1      -27.7310  -22.5860   -2.8990 C.3   216  ILE216      0.0001
@<TRIPOS>BOND
     1    81    80    2
     2    84    83    1
     3    80    79    1
     4    83    85    1
     5    83    82    1
     6    45    44    2
     7    79    82    1
     8    79    78    1
     9    54    53    2
    10    77    76    2
    11    43    44    1
    12    43    42    1
    13    43    46    1
    14    44    51   am
    15    53    52    1
    16    78    76   am
    17    47    46    1
    18    47    48    1
    19    76    75    1
    20    51    52    1
    21    48    49    1
    22    52    55    1
    23    97    96    2
    24    49    50    1
    25    75    74    1
    26    30    29    1
    27    96    95    1
    28    55    56    1
    29   100    98    1
    30    69    68    2
    31    28    29    1
    32    28    27    1
    33    34    33    2
    34    68    67    1
    35    95    98    1
    36    95    94    1
    37    56    57    1
    38    25    24    2
    39    98    99    1
    40    33    32    1
    41    27    26    1
    42    31    32    1
    43    62    61    2
    44    23    24    1
    45    23    26    1
    46    23    22    1
    47    32    35    1
    48    72    70    1
    49    58    57    1
    50    67    70    1
    51    67    66    1
    52    99   101    1
    53    61    66   am
    54    61    60    1
    55    70    71    1
    56    35    36    1
    57    60    59    1
    58    60    63    1
    59    14    13    1
    60    59    65    1
    61    36    37   ar
    62    36    38   ar
    63    37    39   ar
    64    12    11    2
    65    71    73    1
    66    38    40   ar
    67    39    41   ar
    68    13    10    1
    69    63    64    1
    70    10    11    1
    71    10     9    1
    72    89    88    2
    73    41    40   ar
    74    11    15   am
    75    65    64    1
    76    18    17    2
    77    88    87    1
    78    15    16    1
    79    17    16    1
    80    16    19    1
    81    87    90    1
    82    87    86    1
    83    19    21    1
    84    19    20    1
    85     7     6    2
    86    90    91    1
    87     4     3    2
    88     2     1    1
    89     2     3    1
    90     2     5    1
    91     6     5    1
    92     6     8   am
    93    91    93   ar
    94    91    92   ar
