@<TRIPOS>MOLECULE
tmp/6fi6A00.pdb
 146 137 0 0 0
SMALL
GASTEIGER

@<TRIPOS>ATOM
      1  N        -19.5760   20.2090   38.4470 N.3    22  ILE22      -0.1231
      2  CA       -19.2680   19.8160   39.8180 C.3    22  ILE22       0.1692
      3  C        -18.1150   20.6340   40.3790 C.2    22  ILE22       0.2593
      4  O        -18.2250   21.1980   41.4680 O.2    22  ILE22      -0.2718
      5  CB       -18.9770   18.2990   39.9140 C.3    22  ILE22       0.0266
      6  CG1      -20.1850   17.4900   39.4420 C.3    22  ILE22       0.0019
      7  CG2      -18.5930   17.8960   41.3670 C.3    22  ILE22       0.0020
      8  CD1      -19.9920   15.9830   39.5450 C.3    22  ILE22       0.0001
      9  N        -17.0100   20.7250   39.6510 N.am   23  GLY23      -0.1942
     10  CA       -15.8950   21.5210   40.1220 C.3    23  GLY23       0.2014
     11  C        -14.6600   21.3550   39.2610 C.2    23  GLY23       0.2639
     12  O        -14.6590   20.6730   38.2300 O.2    23  GLY23      -0.2714
     13  N        -13.5980   22.0060   39.7180 N.am   24  GLU24      -0.1963
     14  CA       -12.3190   22.0490   39.0300 C.3    24  GLU24       0.1733
     15  C        -11.3430   21.1380   39.7550 C.2    24  GLU24       0.2616
     16  O        -11.1340   21.2830   40.9640 O.2    24  GLU24      -0.2715
     17  CB       -11.7880   23.4810   38.9940 C.3    24  GLU24       0.0429
     18  CG       -10.7380   23.7310   37.9590 C.3    24  GLU24       0.1163
     19  CD       -11.2910   23.6230   36.5610 C.2    24  GLU24       0.3649
     20  OE1      -10.5210   23.2170   35.6660 O.co2  24  GLU24      -0.2457
     21  OE2      -12.4930   23.9300   36.3660 O.co2  24  GLU24      -0.2457
     22  N        -10.7520   20.2030   39.0280 N.am   25  GLY25      -0.1955
     23  CA        -9.8440   19.2710   39.6610 C.3    25  GLY25       0.1869
     24  C         -8.4370   19.3430   39.1130 C.2    25  GLY25       0.2309
     25  O         -8.1010   20.2620   38.3570 O.2    25  GLY25      -0.2863
     26  N         -7.0310   17.7630   36.8420 N.3    27  TYR27      -0.1241
     27  CA        -6.9130   17.6350   35.3960 C.3    27  TYR27       0.1605
     28  C         -7.6200   18.7420   34.6250 C.2    27  TYR27       0.2264
     29  O         -7.2050   19.0590   33.5060 O.2    27  TYR27      -0.2867
     30  CB        -7.4630   16.2760   34.9440 C.3    27  TYR27       0.0534
     31  CG        -6.7160   15.0800   35.5050 C.ar   27  TYR27      -0.0201
     32  CD1       -5.6410   14.5250   34.8190 C.ar   27  TYR27      -0.0009
     33  CD2       -7.0910   14.5000   36.7130 C.ar   27  TYR27      -0.0009
     34  CE1       -4.9540   13.4280   35.3210 C.ar   27  TYR27       0.0417
     35  CE2       -6.4110   13.4030   37.2270 C.ar   27  TYR27       0.0417
     36  CZ        -5.3420   12.8700   36.5260 C.ar   27  TYR27       0.1957
     37  OH        -4.6600   11.7800   37.0270 O.3    27  TYR27      -0.2866
     38  N        -14.8320   19.0250   35.9100 N.3    30  VAL30      -0.1245
     39  CA       -15.5910   17.8290   36.2650 C.3    30  VAL30       0.1561
     40  C        -17.0730   18.1830   36.2850 C.2    30  VAL30       0.2260
     41  O        -17.4760   19.1730   36.9080 O.2    30  VAL30      -0.2867
     42  CB       -15.1530   17.2540   37.6270 C.3    30  VAL30       0.0252
     43  CG1      -15.9380   15.9990   37.9310 C.3    30  VAL30       0.0019
     44  CG2      -13.6620   16.9650   37.6280 C.3    30  VAL30       0.0019
     45  N        -20.3770   10.8510   36.5890 N.3    43  ALA43      -0.1245
     46  CA       -19.3780   11.9100   36.6260 C.3    43  ALA43       0.1562
     47  C        -18.5010   11.7940   35.3940 C.2    43  ALA43       0.2260
     48  O        -18.1850   10.6800   34.9600 O.2    43  ALA43      -0.2867
     49  CB       -18.5030   11.8260   37.8780 C.3    43  ALA43       0.0290
     50  N        -14.8870   13.6910   33.8150 N.3    45  LYS45      -0.1245
     51  CA       -13.7900   14.6410   33.9540 C.3    45  LYS45       0.1561
     52  C        -13.1310   14.8640   32.5950 C.2    45  LYS45       0.2260
     53  O        -12.8550   13.9080   31.8640 O.2    45  LYS45      -0.2867
     54  CB       -12.7610   14.1980   35.0030 C.3    45  LYS45       0.0271
     55  CG       -12.1120   12.8510   34.8370 C.3    45  LYS45       0.0035
     56  CD       -11.3540   12.4800   36.1500 C.3    45  LYS45       0.0206
     57  CE       -10.3760   11.3240   35.9550 C.3    45  LYS45       0.1093
     58  NZ        -9.8930   10.7340   37.2500 N.3    45  LYS45      -0.1314
     59  N        -12.2290    3.4060   42.3070 N.3    75  ILE75      -0.1245
     60  CA       -13.1450    3.9090   41.2930 C.3    75  ILE75       0.1561
     61  C        -12.8170    3.2620   39.9440 C.2    75  ILE75       0.2260
     62  O        -11.6450    3.0160   39.5980 O.2    75  ILE75      -0.2867
     63  CB       -13.0750    5.4430   41.2190 C.3    75  ILE75       0.0252
     64  CG1      -14.2230    5.9710   40.3570 C.3    75  ILE75       0.0019
     65  CG2      -11.7160    5.8860   40.6450 C.3    75  ILE75       0.0019
     66  CD1      -15.5620    6.0130   41.0660 C.3    75  ILE75       0.0001
     67  N        -17.0560    8.0970   35.0130 N.3    96  GLN96      -0.1231
     68  CA       -16.9690    7.2750   36.2140 C.3    96  GLN96       0.1698
     69  C        -18.3120    7.3190   36.9490 C.2    96  GLN96       0.2592
     70  O        -19.1770    8.1610   36.6590 O.2    96  GLN96      -0.2718
     71  CB       -15.7880    7.7540   37.0840 C.3    96  GLN96       0.0381
     72  CG       -14.4340    7.6060   36.3210 C.3    96  GLN96       0.0905
     73  CD       -13.1720    8.1150   37.0350 C.2    96  GLN96       0.2608
     74  OE1      -12.8630    9.3080   37.0090 O.2    96  GLN96      -0.2717
     75  NE2      -12.4040    7.1960   37.6070 N.am   96  GLN96      -0.0878
     76  N        -18.4990    6.3810   37.8910 N.am   97  ASP97      -0.1960
     77  CA       -19.6760    6.4180   38.7520 C.3    97  ASP97       0.1840
     78  C        -19.7810    7.7820   39.4250 C.2    97  ASP97       0.2622
     79  O        -18.7790    8.3520   39.8830 O.2    97  ASP97      -0.2715
     80  CB       -19.5970    5.3360   39.8380 C.3    97  ASP97       0.1450
     81  CG       -19.6620    3.9280   39.2820 C.2    97  ASP97       0.3671
     82  OD1      -20.0010    3.7470   38.0900 O.co2  97  ASP97      -0.2456
     83  OD2      -19.3690    2.9910   40.0620 O.co2  97  ASP97      -0.2456
     84  N        -21.0080    8.2860   39.5180 N.am   98  LEU98      -0.1963
     85  CA       -21.2630    9.5350   40.2220 C.3    98  LEU98       0.1728
     86  C        -21.3140    9.2770   41.7220 C.2    98  LEU98       0.2616
     87  O        -22.1430    8.4940   42.1990 O.2    98  LEU98      -0.2715
     88  CB       -22.5730   10.1450   39.7610 C.3    98  LEU98       0.0311
     89  CG       -22.9400   11.4630   40.4270 C.3    98  LEU98       0.0022
     90  CD1      -21.9290   12.5160   40.0740 C.3    98  LEU98       0.0001
     91  CD2      -24.3620   11.8940   39.9830 C.3    98  LEU98       0.0001
     92  N        -20.4380    9.9360   42.4590 N.am   99  MET99      -0.1963
     93  CA       -20.4180    9.7960   43.9010 C.3    99  MET99       0.1736
     94  C        -21.0500   11.0330   44.5210 C.2    99  MET99       0.2616
     95  O        -21.3590   12.0110   43.8300 O.2    99  MET99      -0.2715
     96  CB       -18.9800    9.5540   44.3530 C.3    99  MET99       0.0427
     97  CG       -18.3710    8.3460   43.6430 C.3    99  MET99       0.0599
     98  SD       -19.0340    6.7200   44.1470 S.3    99  MET99      -0.1393
     99  CE       -17.9510    6.3760   45.5400 C.3    99  MET99       0.0692
    100  N        -21.3350   10.9620   45.8150 N.am  100  GLU100     -0.1963
    101  CA       -22.0180   12.1010   46.4280 C.3   100  GLU100      0.1733
    102  C        -21.0260   13.1800   46.8500 C.2   100  GLU100      0.2617
    103  O        -21.3130   14.3740   46.7180 O.2   100  GLU100     -0.2715
    104  CB       -22.8650   11.6680   47.6430 C.3   100  GLU100      0.0429
    105  CG       -23.8740   12.7640   48.1010 C.3   100  GLU100      0.1163
    106  CD       -24.4960   12.5590   49.4860 C.2   100  GLU100      0.3649
    107  OE1      -24.3480   11.4750   50.0770 O.co2 100  GLU100     -0.2457
    108  OE2      -25.1350   13.5130   49.9880 O.co2 100  GLU100     -0.2457
    109  N        -19.8500   12.7900   47.3430 N.am  101  THR101     -0.1937
    110  CA       -18.9100   13.7590   47.8760 C.3   101  THR101      0.2028
    111  C        -17.5260   13.1070   47.9080 C.2   101  THR101      0.2642
    112  O        -17.3390   11.9820   47.4330 O.2   101  THR101     -0.2714
    113  CB       -19.3850   14.2380   49.2580 C.3   101  THR101      0.1808
    114  OG1      -18.5800   15.3300   49.7100 O.3   101  THR101     -0.2208
    115  CG2      -19.3720   13.1010   50.2850 C.3   101  THR101      0.0379
    116  N        -16.5400   13.8400   48.4100 N.am  102  ASP102     -0.1971
    117  CA       -15.2560   13.2290   48.7450 C.3   102  ASP102      0.1709
    118  C        -14.9780   13.5000   50.2160 C.2   102  ASP102      0.2293
    119  O        -15.6530   14.3080   50.8500 O.2   102  ASP102     -0.2864
    120  CB       -14.0950   13.7250   47.8420 C.3   102  ASP102      0.1436
    121  CG       -13.8440   15.2310   47.9280 C.2   102  ASP102      0.3671
    122  OD1      -13.5720   15.7330   49.0280 O.co2 102  ASP102     -0.2456
    123  OD2      -13.8490   15.9120   46.8680 O.co2 102  ASP102     -0.2456
    124  N        -14.3320   17.1780   51.3040 N.3   105  LYS105     -0.1245
    125  CA       -15.5310   17.9990   51.4440 C.3   105  LYS105      0.1561
    126  C        -16.3490   17.5580   52.6470 C.2   105  LYS105      0.2260
    127  O        -16.8870   18.3900   53.3930 O.2   105  LYS105     -0.2867
    128  CB       -16.3660   17.9220   50.1600 C.3   105  LYS105      0.0271
    129  CG       -15.6400   18.5040   48.9450 C.3   105  LYS105      0.0035
    130  CD       -16.5430   18.6450   47.7150 C.3   105  LYS105      0.0206
    131  CE       -16.9100   17.3000   47.0920 C.3   105  LYS105      0.1093
    132  NZ       -17.4970   17.4830   45.7140 N.3   105  LYS105     -0.1314
    133  N         -9.1670   14.2060   49.6600 N.3   144  SER144     -0.1217
    134  CA        -9.8140   14.5890   48.4030 C.3   144  SER144      0.1889
    135  C         -9.7310   13.5060   47.3340 C.2   144  SER144      0.2288
    136  O        -10.4390   13.6220   46.3210 O.2   144  SER144     -0.2866
    137  CB        -9.2250   15.9140   47.8840 C.3   144  SER144      0.2089
    138  OG        -7.8540   15.7380   47.5250 O.3   144  SER144     -0.2183
    139  N        -13.5830    9.0850   47.2870 N.3   147  LEU147     -0.1245
    140  CA       -14.9740    9.4180   47.0130 C.3   147  LEU147      0.1561
    141  C        -15.9150    8.5520   47.8370 C.2   147  LEU147      0.2260
    142  O        -15.6010    7.4030   48.1580 O.2   147  LEU147     -0.2867
    143  CB       -15.3000    9.2410   45.5280 C.3   147  LEU147      0.0270
    144  CG       -14.6150   10.2320   44.5890 C.3   147  LEU147      0.0019
    145  CD1      -14.9600    9.8920   43.1370 C.3   147  LEU147      0.0001
    146  CD2      -15.0640   11.6450   44.9410 C.3   147  LEU147      0.0001
@<TRIPOS>BOND
     1    53    52    2
     2    52    51    1
     3    29    28    2
     4    50    51    1
     5    51    54    1
     6    28    27    1
     7    32    34   ar
     8    32    31   ar
     9    55    54    1
    10    55    56    1
    11    30    27    1
    12    30    31    1
    13    48    47    2
    14    67    68    1
    15    34    36   ar
    16    47    46    1
    17    27    26    1
    18    31    33   ar
    19    20    19   ar
    20    38    39    1
    21    57    56    1
    22    57    58    1
    23    68    69    1
    24    68    71    1
    25    39    40    1
    26    39    42    1
    27    40    41    2
    28    72    73    1
    29    72    71    1
    30    21    19   ar
    31    36    37    1
    32    36    35   ar
    33    19    18    1
    34    45    46    1
    35    46    49    1
    36    70    69    2
    37    33    35   ar
    38    69    76   am
    39    74    73    2
    40    73    75   am
    41    42    44    1
    42    42    43    1
    43    76    77    1
    44    18    17    1
    45    82    81   ar
    46    12    11    2
    47    25    24    2
    48     1     2    1
    49    77    78    1
    50    77    80    1
    51    17    14    1
    52    22    23    1
    53    22    15   am
    54    14    13    1
    55    14    15    1
    56    24    23    1
    57    11    13   am
    58    11    10    1
    59    81    80    1
    60    81    83   ar
    61    78    84   am
    62    78    79    2
    63     6     8    1
    64     6     5    1
    65    84    85    1
    66    62    61    2
    67     9    10    1
    68     9     3   am
    69    15    16    2
    70    88    85    1
    71    88    89    1
    72     2     5    1
    73     2     3    1
    74     5     7    1
    75    61    60    1
    76    91    89    1
    77    90    89    1
    78    85    86    1
    79    64    66    1
    80    64    63    1
    81     3     4    2
    82    65    63    1
    83    63    60    1
    84    60    59    1
    85    86    87    2
    86    86    92   am
    87    92    93    1
    88   145   144    1
    89    97    98    1
    90    97    96    1
    91    95    94    2
    92    93    96    1
    93    93    94    1
    94    98    99    1
    95    94   100   am
    96   144   146    1
    97   144   143    1
    98   143   140    1
    99   132   131    1
   100   100   101    1
   101   136   135    2
   102   101   102    1
   103   101   104    1
   104   103   102    2
   105   102   109   am
   106   123   121   ar
   107   140   139    1
   108   140   141    1
   109   131   130    1
   110   135   134    1
   111   109   110    1
   112   112   111    2
   113   138   137    1
   114   104   105    1
   115   130   129    1
   116   141   142    2
   117   120   121    1
   118   120   117    1
   119   110   111    1
   120   110   113    1
   121   137   134    1
   122   111   116   am
   123   121   122   ar
   124   105   106    1
   125   134   133    1
   126   116   117    1
   127   117   118    1
   128   129   128    1
   129   113   114    1
   130   113   115    1
   131   106   108   ar
   132   106   107   ar
   133   128   125    1
   134   118   119    2
   135   124   125    1
   136   125   126    1
   137   126   127    2
