@<TRIPOS>MOLECULE
tmp/6ficA01.pdb
 138 140 0 0 0
SMALL
GASTEIGER

@<TRIPOS>ATOM
      1  N         13.6420   29.9430    4.6850 N.3   150  TRP150     -0.1228
      2  CA        14.3660   29.9470    3.4000 C.3   150  TRP150      0.1722
      3  C         13.4600   29.5550    2.2280 C.2   150  TRP150      0.2437
      4  O         13.5610   30.1560    1.1820 O.2   150  TRP150     -0.2733
      5  CB        15.6700   29.0720    3.3280 C.3   150  TRP150      0.0563
      6  CG        16.7870   29.4080    4.3340 C.ar  150  TRP150      0.0003
      7  CD1       17.3210   28.5680    5.3630 C.ar  150  TRP150      0.0946
      8  CD2       17.5000   30.6620    4.4540 C.ar  150  TRP150      0.0152
      9  NE1       18.3030   29.2430    6.0570 N.ar  150  TRP150     -0.2442
     10  CE2       18.4280   30.5210    5.5520 C.ar  150  TRP150      0.0810
     11  CE3       17.4470   31.8940    3.7510 C.ar  150  TRP150      0.0012
     12  CZ2       19.2800   31.5690    5.9550 C.ar  150  TRP150      0.0191
     13  CZ3       18.3140   32.9410    4.1610 C.ar  150  TRP150      0.0001
     14  CH2       19.2170   32.7610    5.2450 C.ar  150  TRP150      0.0015
     15  N         12.5830   28.5600    2.3960 N.am  151  PRO151     -0.2718
     16  CA        11.7800   28.1720    1.2100 C.3   151  PRO151      0.1535
     17  C         10.7480   29.2090    0.7350 C.2   151  PRO151      0.2598
     18  O         10.1770   29.1000   -0.3850 O.2   151  PRO151     -0.2715
     19  CB        11.0600   26.9010    1.6600 C.3   151  PRO151      0.0310
     20  CG        11.1400   26.9470    3.1580 C.3   151  PRO151      0.0237
     21  CD        12.5110   27.5270    3.4350 C.3   151  PRO151      0.0939
     22  N         10.4960   30.1880    1.5850 N.am  152  PHE152     -0.1974
     23  CA         9.6190   31.2650    1.2550 C.3   152  PHE152      0.1639
     24  C         10.3280   32.3970    0.6540 C.2   152  PHE152      0.2290
     25  O          9.6740   33.3210    0.1900 O.2   152  PHE152     -0.2864
     26  CB         8.8690   31.7020    2.5010 C.3   152  PHE152      0.0560
     27  CG         8.0070   30.6350    3.0450 C.ar  152  PHE152     -0.0200
     28  CD1        6.7450   30.4260    2.4970 C.ar  152  PHE152     -0.0042
     29  CD2        8.4590   29.8170    4.0520 C.ar  152  PHE152     -0.0042
     30  CE1        5.9420   29.4220    2.9530 C.ar  152  PHE152     -0.0003
     31  CE2        7.6750   28.7900    4.5110 C.ar  152  PHE152     -0.0003
     32  CZ         6.4020   28.6110    3.9930 C.ar  152  PHE152     -0.0000
     33  N         12.0560   32.5260   -2.1720 N.3   154  HIS154     -0.1227
     34  CA        11.9640   32.4820   -3.6430 C.3   154  HIS154      0.1737
     35  C         10.7720   31.6730   -4.0910 C.2   154  HIS154      0.2438
     36  O         10.2200   30.8730   -3.3110 O.2   154  HIS154     -0.2733
     37  CB        13.2320   31.8990   -4.3130 C.3   154  HIS154      0.0758
     38  CG        14.4860   32.4140   -3.7100 C.ar  154  HIS154      0.0818
     39  ND1       15.0410   33.6240   -4.0850 N.ar  154  HIS154     -0.2268
     40  CD2       15.2220   31.9420   -2.6610 C.ar  154  HIS154      0.1154
     41  CE1       16.0690   33.8750   -3.2870 C.ar  154  HIS154      0.1986
     42  NE2       16.2050   32.8670   -2.4290 N.ar  154  HIS154     -0.2212
     43  N         10.3860   31.8260   -5.3880 N.am  155  PRO155     -0.2718
     44  CA         9.2680   31.0650   -5.8410 C.3   155  PRO155      0.1535
     45  C          9.5380   29.5990   -5.6560 C.2   155  PRO155      0.2598
     46  O         10.6860   29.1530   -5.7410 O.2   155  PRO155     -0.2715
     47  CB         9.1980   31.4170   -7.3270 C.3   155  PRO155      0.0310
     48  CG         9.7700   32.7640   -7.4460 C.3   155  PRO155      0.0237
     49  CD        10.8830   32.7310   -6.4380 C.3   155  PRO155      0.0939
     50  N          8.4890   28.8290   -5.4270 N.am  156  VAL156     -0.1964
     51  CA         8.6690   27.4030   -5.3410 C.3   156  VAL156      0.1727
     52  C          9.2480   26.8520   -6.6590 C.2   156  VAL156      0.2616
     53  O          8.8250   27.2400   -7.7560 O.2   156  VAL156     -0.2715
     54  CB         7.3670   26.7170   -4.9480 C.3   156  VAL156      0.0290
     55  CG1        7.4700   25.2270   -5.1530 C.3   156  VAL156      0.0023
     56  CG2        7.0500   26.9820   -3.4750 C.3   156  VAL156      0.0023
     57  N         10.2520   25.9890   -6.5460 N.am  157  ASN157     -0.1972
     58  CA        10.9030   25.4130   -7.7370 C.3   157  ASN157      0.1688
     59  C         10.2190   24.1260   -8.0870 C.2   157  ASN157      0.2292
     60  O         10.2270   23.2080   -7.2760 O.2   157  ASN157     -0.2864
     61  CB        12.4160   25.1830   -7.5270 C.3   157  ASN157      0.1181
     62  CG        13.1490   24.9900   -8.8580 C.2   157  ASN157      0.2629
     63  OD1       12.6560   24.3050   -9.7460 O.2   157  ASN157     -0.2716
     64  ND2       14.2720   25.6360   -9.0140 N.am  157  ASN157     -0.0877
     65  N         11.8640   20.7370   -7.6530 N.3   160  PHE160     -0.1227
     66  CA        11.8320   20.1400   -6.3480 C.3   160  PHE160      0.1736
     67  C         10.4080   19.8900   -5.8470 C.2   160  PHE160      0.2595
     68  O         10.2380   19.0390   -4.9650 O.2   160  PHE160     -0.2718
     69  CB        12.6310   20.9800   -5.3630 C.3   160  PHE160      0.0547
     70  CG        14.0410   21.2390   -5.8120 C.ar  160  PHE160     -0.0202
     71  CD1       14.9250   20.1790   -6.0250 C.ar  160  PHE160     -0.0042
     72  CD2       14.4940   22.5320   -6.0110 C.ar  160  PHE160     -0.0042
     73  CE1       16.2290   20.4290   -6.4180 C.ar  160  PHE160     -0.0003
     74  CE2       15.7740   22.7880   -6.4140 C.ar  160  PHE160     -0.0003
     75  CZ        16.6600   21.7280   -6.6070 C.ar  160  PHE160     -0.0000
     76  N          9.3820   20.6110   -6.3330 N.am  161  VAL161     -0.1980
     77  CA         8.0010   20.3060   -5.8500 C.3   161  VAL161      0.1595
     78  C          7.1540   20.1550   -7.0910 C.2   161  VAL161      0.2287
     79  O          6.4400   21.0630   -7.4520 O.2   161  VAL161     -0.2864
     80  CB         7.4870   21.4100   -4.9170 C.3   161  VAL161      0.0276
     81  CG1        6.1290   21.0400   -4.3180 C.3   161  VAL161      0.0022
     82  CG2        8.4800   21.6520   -3.8060 C.3   161  VAL161      0.0022
     83  N          3.4710   21.5210   -7.4870 N.3   164  TYR164     -0.1241
     84  CA         3.0680   22.7390   -6.7560 C.3   164  TYR164      0.1605
     85  C          2.1320   23.5880   -7.5630 C.2   164  TYR164      0.2264
     86  O          1.0670   23.8970   -7.1020 O.2   164  TYR164     -0.2867
     87  CB         4.2590   23.5960   -6.2790 C.3   164  TYR164      0.0534
     88  CG         3.8840   24.7140   -5.3510 C.ar  164  TYR164     -0.0201
     89  CD1        3.6160   24.4760   -4.0110 C.ar  164  TYR164     -0.0009
     90  CD2        3.7950   25.9980   -5.8060 C.ar  164  TYR164     -0.0009
     91  CE1        3.2890   25.4930   -3.1440 C.ar  164  TYR164      0.0417
     92  CE2        3.4530   27.0380   -4.9470 C.ar  164  TYR164      0.0417
     93  CZ         3.1910   26.7810   -3.6330 C.ar  164  TYR164      0.1957
     94  OH         2.8340   27.8290   -2.8100 O.3   164  TYR164     -0.2866
     95  N          0.3150   28.1380    1.6130 N.3   203  SER203     -0.1217
     96  CA         0.8650   27.0250    2.4260 C.3   203  SER203      0.1889
     97  C         -0.2710   26.2440    3.0700 C.2   203  SER203      0.2288
     98  O         -0.2230   25.0330    3.1190 O.2   203  SER203     -0.2866
     99  CB         1.8400   27.4540    3.5210 C.3   203  SER203      0.2089
    100  OG         2.2870   26.2910    4.2530 O.3   203  SER203     -0.2183
    101  N         -1.7590   24.2050    0.1630 N.3   206  TYR206     -0.1227
    102  CA        -0.9340   23.1540   -0.4120 C.3   206  TYR206      0.1736
    103  C         -0.5710   22.1070    0.5880 C.2   206  TYR206      0.2595
    104  O         -0.5740   20.9180    0.2320 O.2   206  TYR206     -0.2718
    105  CB         0.3380   23.7060   -1.0790 C.3   206  TYR206      0.0548
    106  CG         1.0590   22.6580   -1.8530 C.ar  206  TYR206     -0.0200
    107  CD1        0.6130   22.2790   -3.1240 C.ar  206  TYR206     -0.0009
    108  CD2        2.1810   22.0520   -1.3480 C.ar  206  TYR206     -0.0009
    109  CE1        1.2560   21.2860   -3.8610 C.ar  206  TYR206      0.0417
    110  CE2        2.8490   21.0560   -2.0690 C.ar  206  TYR206      0.0417
    111  CZ         2.3790   20.6660   -3.3250 C.ar  206  TYR206      0.1957
    112  OH         3.0530   19.7060   -4.0420 O.3   206  TYR206     -0.2866
    113  N         -0.2240   22.5490    1.7980 N.am  207  ASN207     -0.1974
    114  CA         0.3060   21.6610    2.8320 C.3   207  ASN207      0.1688
    115  C         -0.6620   21.2540    3.9100 C.2   207  ASN207      0.2292
    116  O         -0.4110   20.2570    4.5370 O.2   207  ASN207     -0.2864
    117  CB         1.5290   22.2780    3.5240 C.3   207  ASN207      0.1181
    118  CG         2.5950   22.6420    2.5480 C.2   207  ASN207      0.2629
    119  OD1        3.1320   21.7630    1.9110 O.2   207  ASN207     -0.2716
    120  ND2        2.9080   23.9230    2.4140 N.am  207  ASN207     -0.0877
    121  N          1.1760   21.6430    8.9080 N.3   211  SER211     -0.1217
    122  CA         2.5230   21.6090    8.3100 C.3   211  SER211      0.1889
    123  C          3.5170   22.6190    8.8830 C.2   211  SER211      0.2288
    124  O          3.1390   23.7930    9.2150 O.2   211  SER211     -0.2866
    125  CB         2.4220   21.8910    6.8300 C.3   211  SER211      0.2089
    126  OG         3.7050   21.9760    6.2320 O.3   211  SER211     -0.2183
    127  N          5.5840   24.1170    7.1010 N.3   213  TYR213     -0.1241
    128  CA         5.5850   25.2030    6.1300 C.3   213  TYR213      0.1605
    129  C          4.5880   26.2500    6.5360 C.2   213  TYR213      0.2264
    130  O          4.8690   27.4210    6.4620 O.2   213  TYR213     -0.2867
    131  CB         5.2580   24.6950    4.7320 C.3   213  TYR213      0.0534
    132  CG         6.3980   23.9170    4.0920 C.ar  213  TYR213     -0.0201
    133  CD1        7.4750   24.5740    3.5100 C.ar  213  TYR213     -0.0009
    134  CD2        6.3830   22.5260    4.0280 C.ar  213  TYR213     -0.0009
    135  CE1        8.4810   23.8710    2.9140 C.ar  213  TYR213      0.0417
    136  CE2        7.4210   21.8170    3.4440 C.ar  213  TYR213      0.0417
    137  CZ         8.4480   22.5100    2.8890 C.ar  213  TYR213      0.1957
    138  OH         9.4810   21.8760    2.2850 O.3   213  TYR213     -0.2866
@<TRIPOS>BOND
     1    63    62    2
     2    64    62   am
     3    62    61    1
     4    59    58    1
     5    59    60    2
     6    53    52    2
     7    58    61    1
     8    58    57    1
     9    65    66    1
    10    85    86    2
    11    85    84    1
    12    83    84    1
    13    79    78    2
    14    48    47    1
    15    48    49    1
    16    47    44    1
    17    78    77    1
    18    84    87    1
    19    52    57   am
    20    52    51    1
    21    75    73   ar
    22    75    74   ar
    23    49    43    1
    24    73    71   ar
    25    74    72   ar
    26    66    67    1
    27    66    69    1
    28    76    77    1
    29    76    67   am
    30    87    88    1
    31    71    70   ar
    32    72    70   ar
    33    77    80    1
    34    67    68    2
    35    44    45    1
    36    44    43    1
    37    70    69    1
    38    90    88   ar
    39    90    92   ar
    40    46    45    2
    41    45    50   am
    42    50    51    1
    43    43    35   am
    44    88    89   ar
    45    51    54    1
    46    55    54    1
    47    54    56    1
    48    92    93   ar
    49    80    81    1
    50    80    82    1
    51    37    38    1
    52    37    34    1
    53    35    34    1
    54    35    36    2
    55    39    38   ar
    56    39    41   ar
    57   112   111    1
    58    89    91   ar
    59   109   111   ar
    60   109   107   ar
    61    38    40   ar
    62    34    33    1
    63    93    91   ar
    64    93    94    1
    65   111   110   ar
    66    41    42   ar
    67   107   106   ar
    68    40    42   ar
    69   110   108   ar
    70   106   108   ar
    71   106   105    1
    72   105   102    1
    73   102   101    1
    74   102   103    1
    75    18    17    2
    76    25    24    2
    77   104   103    2
    78   103   113   am
    79    24    23    1
    80    17    16    1
    81    17    22   am
    82     4     3    2
    83    16    19    1
    84    16    15    1
    85    23    22    1
    86    23    26    1
    87    95    96    1
    88    19    20    1
    89   113   114    1
    90   119   118    2
    91     3    15   am
    92     3     2    1
    93   138   137    1
    94    15    21    1
    95   120   118   am
    96    96    97    1
    97    96    99    1
    98    28    30   ar
    99    28    27   ar
   100    26    27    1
   101   118   117    1
   102   114   117    1
   103   114   115    1
   104   137   135   ar
   105   137   136   ar
   106   135   133   ar
   107    30    32   ar
   108    27    29   ar
   109    97    98    2
   110    20    21    1
   111     5     2    1
   112     5     6    1
   113     2     1    1
   114   136   134   ar
   115   133   132   ar
   116    99   100    1
   117    11    13   ar
   118    11     8   ar
   119   115   116    2
   120    32    31   ar
   121   134   132   ar
   122    29    31   ar
   123   132   131    1
   124    13    14   ar
   125     6     8   ar
   126     6     7   ar
   127     8    10   ar
   128   131   128    1
   129    14    12   ar
   130     7     9   ar
   131    10    12   ar
   132    10     9   ar
   133   128   129    1
   134   128   127    1
   135   126   125    1
   136   130   129    2
   137   125   122    1
   138   122   123    1
   139   122   121    1
   140   123   124    2
