@<TRIPOS>MOLECULE
tmp/6ficA00.pdb
 129 128 0 0 0
SMALL
GASTEIGER

@<TRIPOS>ATOM
      1  N         45.4070   73.7050   15.1830 N.3    27  TYR27      -0.1228
      2  CA        46.1210   72.4610   15.5810 C.3    27  TYR27       0.1721
      3  C         45.7320   71.7950   16.8790 C.2    27  TYR27       0.2437
      4  O         45.8100   70.5650   16.9450 O.2    27  TYR27      -0.2733
      5  CB        47.6740   72.5820   15.5050 C.3    27  TYR27       0.0547
      6  CG        48.2270   73.5340   16.5300 C.ar   27  TYR27      -0.0200
      7  CD1       48.3110   74.9050   16.2550 C.ar   27  TYR27      -0.0009
      8  CD2       48.6550   73.0840   17.7840 C.ar   27  TYR27      -0.0009
      9  CE1       48.8010   75.7960   17.2150 C.ar   27  TYR27       0.0417
     10  CE2       49.1480   73.9740   18.7450 C.ar   27  TYR27       0.0417
     11  CZ        49.2330   75.3040   18.4410 C.ar   27  TYR27       0.1957
     12  OH        49.6830   76.2120   19.3260 O.3    27  TYR27      -0.2866
     13  N         45.2740   72.5670   17.9090 N.am   28  PRO28      -0.2718
     14  CA        44.8820   71.8070   19.1390 C.3    28  PRO28       0.1535
     15  C         43.6930   70.8970   18.9440 C.2    28  PRO28       0.2598
     16  O         43.5400   69.9220   19.6860 O.2    28  PRO28      -0.2715
     17  CB        44.5750   72.9090   20.1600 C.3    28  PRO28       0.0310
     18  CG        45.4320   74.0370   19.7630 C.3    28  PRO28       0.0237
     19  CD        45.4830   73.9940   18.2200 C.3    28  PRO28       0.0939
     20  N         42.8930   71.1790   17.9160 N.am   29  PHE29      -0.1974
     21  CA        41.7110   70.3950   17.6220 C.3    29  PHE29       0.1639
     22  C         41.9630   69.3640   16.5420 C.2    29  PHE29       0.2290
     23  O         41.0480   68.6170   16.2290 O.2    29  PHE29      -0.2864
     24  CB        40.5690   71.3420   17.2230 C.3    29  PHE29       0.0560
     25  CG        40.3410   72.4050   18.1930 C.ar   29  PHE29      -0.0200
     26  CD1       39.8520   72.1010   19.4260 C.ar   29  PHE29      -0.0042
     27  CD2       40.6630   73.6830   17.9240 C.ar   29  PHE29      -0.0042
     28  CE1       39.6810   73.1000   20.3760 C.ar   29  PHE29      -0.0003
     29  CE2       40.4750   74.6770   18.8480 C.ar   29  PHE29      -0.0003
     30  CZ        40.0000   74.3820   20.0740 C.ar   29  PHE29      -0.0000
     31  N         43.8300   66.5380   16.5130 N.3    31  THR31      -0.1204
     32  CA        43.9500   65.1400   16.9300 C.3    31  THR31       0.1979
     33  C         43.3550   65.0400   18.3330 C.2    31  THR31       0.2460
     34  O         43.1300   66.0580   18.9870 O.2    31  THR31      -0.2732
     35  CB        45.4340   64.6820   16.9730 C.3    31  THR31       0.1783
     36  OG1       46.1970   65.5580   17.8440 O.3    31  THR31      -0.2211
     37  CG2       46.0790   64.7600   15.5620 C.3    31  THR31       0.0376
     38  N         43.1030   63.8250   18.7870 N.am   32  PRO32      -0.2717
     39  CA        42.6310   63.6930   20.1520 C.3    32  PRO32       0.1535
     40  C         43.5630   64.3470   21.1860 C.2    32  PRO32       0.2598
     41  O         44.7680   64.3470   21.0340 O.2    32  PRO32      -0.2715
     42  CB        42.5930   62.1620   20.3830 C.3    32  PRO32       0.0310
     43  CG        42.4840   61.5400   19.0110 C.3    32  PRO32       0.0237
     44  CD        43.2570   62.5230   18.1110 C.3    32  PRO32       0.0939
     45  N         42.9860   64.8340   22.2790 N.am   33  VAL33      -0.1964
     46  CA        43.7730   65.4320   23.3100 C.3    33  VAL33       0.1727
     47  C         44.7930   64.4010   23.8120 C.2    33  VAL33       0.2616
     48  O         44.4620   63.2930   24.1290 O.2    33  VAL33      -0.2715
     49  CB        42.9060   66.0640   24.4080 C.3    33  VAL33       0.0290
     50  CG1       43.7360   66.3210   25.6790 C.3    33  VAL33       0.0023
     51  CG2       42.3940   67.3950   23.9280 C.3    33  VAL33       0.0023
     52  N         46.0260   64.8200   23.9420 N.am   34  ASN34      -0.1972
     53  CA        47.0440   64.0740   24.7130 C.3    34  ASN34       0.1688
     54  C         47.0010   64.6690   26.1550 C.2    34  ASN34       0.2292
     55  O         47.4040   65.8010   26.4010 O.2    34  ASN34      -0.2864
     56  CB        48.4040   64.3650   24.0930 C.3    34  ASN34       0.1181
     57  CG        49.5700   63.6150   24.7640 C.2    34  ASN34       0.2629
     58  OD1       49.5650   63.3660   25.9680 O.2    34  ASN34      -0.2716
     59  ND2       50.6220   63.3390   23.9750 N.am   34  ASN34      -0.0877
     60  N         49.7270   66.6710   27.9650 N.3    37  VAL37      -0.1231
     61  CA        49.9440   68.0590   27.5970 C.3    37  VAL37       0.1692
     62  C         48.7510   68.9310   27.9230 C.2    37  VAL37       0.2591
     63  O         48.8500   70.1320   27.8720 O.2    37  VAL37      -0.2718
     64  CB        50.3440   68.0380   26.0730 C.3    37  VAL37       0.0266
     65  CG1       49.9930   69.2810   25.3600 C.3    37  VAL37       0.0020
     66  CG2       51.8330   67.8170   25.9630 C.3    37  VAL37       0.0020
     67  N         47.5950   68.3320   28.1560 N.am   38  VAL38      -0.1980
     68  CA        46.3790   69.0680   28.4630 C.3    38  VAL38       0.1595
     69  C         45.8090   68.4410   29.7550 C.2    38  VAL38       0.2287
     70  O         45.0790   67.4070   29.7890 O.2    38  VAL38      -0.2864
     71  CB        45.3540   69.0160   27.3340 C.3    38  VAL38       0.0276
     72  CG1       44.2050   69.9450   27.6260 C.3    38  VAL38       0.0022
     73  CG2       45.9770   69.3760   26.0020 C.3    38  VAL38       0.0022
     74  N         42.3140   66.6540   31.1150 N.3    41  TYR41      -0.1241
     75  CA        41.3490   66.8470   30.0950 C.3    41  TYR41       0.1605
     76  C         40.2800   65.8260   30.1590 C.2    41  TYR41       0.2264
     77  O         39.1010   66.1740   30.1340 O.2    41  TYR41      -0.2867
     78  CB        41.9880   66.8490   28.6780 C.3    41  TYR41       0.0534
     79  CG        40.9970   67.2770   27.6450 C.ar   41  TYR41      -0.0201
     80  CD1       40.7590   68.6210   27.4490 C.ar   41  TYR41      -0.0009
     81  CD2       40.2920   66.3500   26.9040 C.ar   41  TYR41      -0.0009
     82  CE1       39.8820   69.0700   26.5030 C.ar   41  TYR41       0.0417
     83  CE2       39.3340   66.7840   25.9350 C.ar   41  TYR41       0.0417
     84  CZ        39.1250   68.1330   25.7610 C.ar   41  TYR41       0.1957
     85  OH        38.2300   68.6390   24.8410 O.3    41  TYR41      -0.2866
     86  N         35.5230   72.8110   24.1940 N.3    80  SER80      -0.1217
     87  CA        36.4500   73.8550   24.4710 C.3    80  SER80       0.1889
     88  C         35.8150   74.8920   25.4190 C.2    80  SER80       0.2288
     89  O         36.5370   75.5010   26.1770 O.2    80  SER80      -0.2866
     90  CB        36.9150   74.5810   23.2150 C.3    80  SER80       0.2089
     91  OG        37.8750   75.5680   23.5290 O.3    80  SER80      -0.2183
     92  N         36.0810   73.3230   28.8950 N.3    83  TYR83      -0.1227
     93  CA        37.3870   73.1390   29.4980 C.3    83  TYR83       0.1736
     94  C         38.1230   74.4560   29.6570 C.2    83  TYR83       0.2595
     95  O         38.7540   74.6810   30.6480 O.2    83  TYR83      -0.2718
     96  CB        38.2170   72.1660   28.6970 C.3    83  TYR83       0.0548
     97  CG        39.5620   71.8920   29.2490 C.ar   83  TYR83      -0.0200
     98  CD1       39.7420   70.9270   30.2250 C.ar   83  TYR83      -0.0009
     99  CD2       40.6610   72.5810   28.7930 C.ar   83  TYR83      -0.0009
    100  CE1       41.0120   70.6390   30.7130 C.ar   83  TYR83       0.0417
    101  CE2       41.9410   72.3250   29.3070 C.ar   83  TYR83       0.0417
    102  CZ        42.1080   71.3640   30.2590 C.ar   83  TYR83       0.1957
    103  OH        43.3660   71.0390   30.7300 O.3    83  TYR83      -0.2866
    104  N         38.1050   75.3050   28.6660 N.am   84  ASN84      -0.1974
    105  CA        38.8700   76.5370   28.6760 C.3    84  ASN84       0.1688
    106  C         38.0370   77.8000   29.0290 C.2    84  ASN84       0.2292
    107  O         38.6360   78.8470   29.2310 O.2    84  ASN84      -0.2864
    108  CB        39.3730   76.7790   27.2440 C.3    84  ASN84       0.1181
    109  CG        40.2980   75.7040   26.7500 C.2    84  ASN84       0.2629
    110  OD1       41.3150   75.4770   27.3640 O.2    84  ASN84      -0.2716
    111  ND2       39.9630   75.0580   25.6270 N.am   84  ASN84      -0.0877
    112  N         37.2840   81.9590   25.8620 N.3    88  HIS88      -0.1241
    113  CA        38.6960   81.6510   25.6360 C.3    88  HIS88       0.1621
    114  C         39.0450   81.6600   24.1390 C.2    88  HIS88       0.2264
    115  O         38.2280   81.3330   23.2470 O.2    88  HIS88      -0.2867
    116  CB        39.0610   80.3220   26.2590 C.3    88  HIS88       0.0745
    117  CG        40.5160   80.1430   26.4230 C.ar   88  HIS88       0.0817
    118  ND1       41.3670   79.9190   25.3610 N.ar   88  HIS88      -0.2268
    119  CD2       41.2880   80.1460   27.5390 C.ar   88  HIS88       0.1154
    120  CE1       42.6060   79.8350   25.8110 C.ar   88  HIS88       0.1986
    121  NE2       42.5830   79.9700   27.1340 N.ar   88  HIS88      -0.2212
    122  N         40.7940   79.6770   22.4810 N.3    90  LEU90      -0.1245
    123  CA        40.6780   78.3770   21.8430 C.3    90  LEU90       0.1561
    124  C         39.2390   78.1290   21.4440 C.2    90  LEU90       0.2260
    125  O         38.9850   77.5340   20.4140 O.2    90  LEU90      -0.2867
    126  CB        41.1900   77.2710   22.7440 C.3    90  LEU90       0.0270
    127  CG        42.7280   77.2080   22.8640 C.3    90  LEU90       0.0019
    128  CD1       43.0580   76.2600   23.9920 C.3    90  LEU90       0.0001
    129  CD2       43.3970   76.7510   21.5750 C.3    90  LEU90       0.0001
@<TRIPOS>BOND
     1     1     2    1
     2     5     2    1
     3     5     6    1
     4    37    35    1
     5     2     3    1
     6    23    22    2
     7     7     6   ar
     8     7     9   ar
     9    31    32    1
    10     6     8   ar
    11    22    21    1
    12     3     4    2
    13     3    13   am
    14    32    35    1
    15    32    33    1
    16    35    36    1
    17     9    11   ar
    18    24    21    1
    19    24    25    1
    20    21    20    1
    21     8    10   ar
    22    13    19    1
    23    13    14    1
    24    20    15   am
    25    27    25   ar
    26    27    29   ar
    27    44    38    1
    28    44    43    1
    29    25    26   ar
    30    19    18    1
    31    33    38   am
    32    33    34    2
    33    11    10   ar
    34    11    12    1
    35    38    39    1
    36    29    30   ar
    37    15    14    1
    38    15    16    2
    39    43    42    1
    40    14    17    1
    41    26    28   ar
    42    18    17    1
    43    30    28   ar
    44    39    42    1
    45    39    40    1
    46   125   124    2
    47    41    40    2
    48    40    45   am
    49   124   123    1
    50   129   127    1
    51   123   122    1
    52   123   126    1
    53    45    46    1
    54   126   127    1
    55   127   128    1
    56    90    91    1
    57    90    87    1
    58   115   114    2
    59    46    47    1
    60    46    49    1
    61    47    52   am
    62    47    48    2
    63    51    49    1
    64    52    53    1
    65    59    57   am
    66    56    53    1
    67    56    57    1
    68   114   113    1
    69    86    87    1
    70    49    50    1
    71    87    88    1
    72    53    54    1
    73    57    58    2
    74    85    84    1
    75    65    64    1
    76   118   120   ar
    77   118   117   ar
    78    88    89    2
    79   111   109   am
    80   113   112    1
    81   113   116    1
    82    84    83   ar
    83    84    82   ar
    84   120   121   ar
    85    83    81   ar
    86    66    64    1
    87    73    71    1
    88    64    61    1
    89    54    55    2
    90   116   117    1
    91   117   119   ar
    92    82    80   ar
    93   109   108    1
    94   109   110    2
    95    81    79   ar
    96   121   119   ar
    97   108   105    1
    98    71    72    1
    99    71    68    1
   100    80    79   ar
   101    61    62    1
   102    61    60    1
   103    79    78    1
   104    63    62    2
   105    62    67   am
   106    67    68    1
   107    68    69    1
   108   104   105    1
   109   104    94   am
   110   105   106    1
   111    78    75    1
   112    96    97    1
   113    96    93    1
   114    99    97   ar
   115    99   101   ar
   116    92    93    1
   117   106   107    2
   118    97    98   ar
   119   101   102   ar
   120    93    94    1
   121    94    95    2
   122    69    70    2
   123    75    76    1
   124    75    74    1
   125    77    76    2
   126    98   100   ar
   127   102   100   ar
   128   102   103    1
