@<TRIPOS>MOLECULE
tmp/6fifA00.pdb
 86 79 0 0 0
SMALL
GASTEIGER

@<TRIPOS>ATOM
      1  N         -9.7070   25.9400  -19.2410 N.3   202  SER202     -0.1202
      2  CA       -11.0990   25.5750  -19.4590 C.3   202  SER202      0.2020
      3  C        -11.7610   26.4280  -20.5320 C.2   202  SER202      0.2619
      4  O        -11.2330   27.4200  -21.0020 O.2   202  SER202     -0.2717
      5  CB       -11.8620   25.7510  -18.1170 C.3   202  SER202      0.2103
      6  OG       -11.8910   27.1080  -17.7170 O.3   202  SER202     -0.2182
      7  N        -12.9790   26.0610  -20.8860 N.am  203  SER203     -0.1951
      8  CA       -13.7320   26.7090  -21.9860 C.3   203  SER203      0.1924
      9  C        -12.8340   27.0420  -23.2140 C.2   203  SER203      0.2314
     10  O        -12.6730   28.1970  -23.5860 O.2   203  SER203     -0.2863
     11  CB       -14.4240   27.9340  -21.5010 C.3   203  SER203      0.2116
     12  OG       -15.3690   27.5280  -20.5970 O.3   203  SER203     -0.2180
     13  N         -4.5890   23.5960   -8.0420 N.3   221  HIS221     -0.1241
     14  CA        -5.8540   23.8340   -8.8460 C.3   221  HIS221      0.1621
     15  C         -5.6700   23.3760  -10.3080 C.2   221  HIS221      0.2264
     16  O         -4.7810   23.8940  -10.9670 O.2   221  HIS221     -0.2867
     17  CB        -6.1780   25.3120   -8.7950 C.3   221  HIS221      0.0745
     18  CG        -7.4640   25.7000   -9.4480 C.ar  221  HIS221      0.0817
     19  ND1       -8.5330   26.1770   -8.7500 N.ar  221  HIS221     -0.2268
     20  CD2       -7.8150   25.8110  -10.7470 C.ar  221  HIS221      0.1154
     21  CE1       -9.4980   26.5380   -9.5680 C.ar  221  HIS221      0.1986
     22  NE2       -9.0700   26.3530  -10.7870 N.ar  221  HIS221     -0.2212
     23  N         -8.1280   22.9320  -13.6680 N.3   223  ASP223     -0.1239
     24  CA        -9.3990   23.1070  -14.3550 C.3   223  ASP223      0.1674
     25  C         -9.2380   22.9160  -15.8770 C.2   223  ASP223      0.2266
     26  O         -8.6000   23.7330  -16.5370 O.2   223  ASP223     -0.2867
     27  CB        -9.9600   24.4940  -14.0700 C.3   223  ASP223      0.1410
     28  CG       -11.3980   24.6240  -14.5140 C.2   223  ASP223      0.3668
     29  OD1      -11.9100   23.7070  -15.2480 O.co2 223  ASP223     -0.2456
     30  OD2      -11.9830   25.6360  -14.1110 O.co2 223  ASP223     -0.2456
     31  N        -12.0210   21.9490  -17.7040 N.3   225  SER225     -0.1202
     32  CA       -13.4190   21.7750  -18.0260 C.3   225  SER225      0.2020
     33  C        -13.7450   22.5230  -19.3410 C.2   225  SER225      0.2619
     34  O        -12.9940   23.4430  -19.7990 O.2   225  SER225     -0.2717
     35  CB       -14.2650   22.3790  -16.8710 C.3   225  SER225      0.2103
     36  OG       -14.1330   23.8080  -16.7700 O.3   225  SER225     -0.2182
     37  N        -14.8930   22.1750  -19.9130 N.am  226  GLY226     -0.1956
     38  CA       -15.4340   22.8800  -21.0520 C.3   226  GLY226      0.1869
     39  C        -14.5840   22.6750  -22.2840 C.2   226  GLY226      0.2309
     40  O        -14.2260   23.6530  -22.9550 O.2   226  GLY226     -0.2863
     41  N         -8.1910   21.2020   -5.9980 N.3   245  LEU245     -0.1245
     42  CA        -9.3610   21.3740   -6.8710 C.3   245  LEU245      0.1561
     43  C         -9.1330   20.6440   -8.2320 C.2   245  LEU245      0.2260
     44  O         -8.1060   20.8400   -8.8950 O.2   245  LEU245     -0.2867
     45  CB        -9.6410   22.8690   -7.0980 C.3   245  LEU245      0.0270
     46  CG       -10.9090   23.1910   -7.9680 C.3   245  LEU245      0.0019
     47  CD1      -11.5810   24.4590   -7.5130 C.3   245  LEU245      0.0001
     48  CD2      -10.6840   23.2570   -9.4640 C.3   245  LEU245      0.0001
     49  N        -11.4720   20.0770  -11.6300 N.3   247  ASN247     -0.1240
     50  CA       -12.6760   20.3150  -12.4040 C.3   247  ASN247      0.1653
     51  C        -12.4560   19.8330  -13.8320 C.2   247  ASN247      0.2266
     52  O        -11.8200   20.5030  -14.6310 O.2   247  ASN247     -0.2867
     53  CB       -12.9500   21.7940  -12.4170 C.3   247  ASN247      0.1155
     54  CG       -14.3590   22.1220  -12.8610 C.2   247  ASN247      0.2627
     55  OD1      -15.0090   21.2990  -13.4910 O.2   247  ASN247     -0.2716
     56  ND2      -14.8390   23.3160  -12.5070 N.am  247  ASN247     -0.0877
     57  N        -15.1900   18.8970  -15.6150 N.3   249  SER249     -0.1202
     58  CA       -16.5620   18.8990  -16.0730 C.3   249  SER249      0.2020
     59  C        -16.7330   19.4320  -17.5450 C.2   249  SER249      0.2619
     60  O        -15.8310   20.1500  -18.0910 O.2   249  SER249     -0.2717
     61  CB       -17.4410   19.6830  -15.1060 C.3   249  SER249      0.2103
     62  OG       -17.1200   21.0480  -15.1110 O.3   249  SER249     -0.2182
     63  N        -17.8840   19.0860  -18.1430 N.am  250  SER250     -0.1951
     64  CA       -18.1520   19.4360  -19.4880 C.3   250  SER250      0.1924
     65  C        -17.0510   18.9610  -20.4540 C.2   250  SER250      0.2314
     66  O        -16.3750   19.7760  -21.1020 O.2   250  SER250     -0.2863
     67  CB       -18.4100   20.9180  -19.6370 C.3   250  SER250      0.2116
     68  OG       -19.7220   21.1090  -19.1240 O.3   250  SER250     -0.2180
     69  N        -12.3350   20.2500   -3.7740 N.3   267  TYR267     -0.1241
     70  CA       -13.4160   20.3790   -4.8220 C.3   267  TYR267      0.1605
     71  C        -13.2000   19.3880   -5.9500 C.2   267  TYR267      0.2264
     72  O        -12.0720   19.2560   -6.4090 O.2   267  TYR267     -0.2867
     73  CB       -13.5100   21.7740   -5.3770 C.3   267  TYR267      0.0534
     74  CG       -14.7030   21.9090   -6.3350 C.ar  267  TYR267     -0.0201
     75  CD1      -16.0150   22.0520   -5.8270 C.ar  267  TYR267     -0.0009
     76  CD2      -14.5500   21.9200   -7.7450 C.ar  267  TYR267     -0.0009
     77  CE1      -17.1070   22.1120   -6.6450 C.ar  267  TYR267      0.0417
     78  CE2      -15.6720   22.0070   -8.5720 C.ar  267  TYR267      0.0417
     79  CZ       -16.9310   22.0900   -8.0040 C.ar  267  TYR267      0.1957
     80  OH       -18.0450   22.1900   -8.7340 O.3   267  TYR267     -0.2866
     81  N        -15.2230   18.0610   -9.5210 N.3   269  SER269     -0.1217
     82  CA       -16.2900   18.0220  -10.5050 C.3   269  SER269      0.1889
     83  C        -15.9760   17.0760  -11.6520 C.2   269  SER269      0.2288
     84  O        -15.0000   17.2500  -12.3110 O.2   269  SER269     -0.2866
     85  CB       -16.5960   19.4130  -11.0150 C.3   269  SER269      0.2089
     86  OG       -17.8810   19.4490  -11.6810 O.3   269  SER269     -0.2183
@<TRIPOS>BOND
     1    10     9    2
     2     9     8    1
     3    40    39    2
     4    39    38    1
     5     8    11    1
     6     8     7    1
     7    11    12    1
     8    66    65    2
     9    38    37    1
    10     4     3    2
    11     7     3   am
    12     3     2    1
    13    65    64    1
    14    37    33   am
    15    34    33    2
    16    67    64    1
    17    67    68    1
    18    64    63    1
    19     2     1    1
    20     2     5    1
    21    33    32    1
    22    63    59   am
    23     5     6    1
    24    60    59    2
    25    32    31    1
    26    32    35    1
    27    59    58    1
    28    35    36    1
    29    26    25    2
    30    58    57    1
    31    58    61    1
    32    25    24    1
    33    29    28   ar
    34    62    61    1
    35    52    51    2
    36    28    30   ar
    37    28    27    1
    38    24    27    1
    39    24    23    1
    40    51    50    1
    41    55    54    2
    42    54    56   am
    43    54    53    1
    44    53    50    1
    45    50    49    1
    46    84    83    2
    47    86    85    1
    48    83    82    1
    49    85    82    1
    50    16    15    2
    51    22    20   ar
    52    22    21   ar
    53    20    18   ar
    54    82    81    1
    55    15    14    1
    56    21    19   ar
    57    48    46    1
    58    18    17    1
    59    18    19   ar
    60    44    43    2
    61    14    17    1
    62    14    13    1
    63    80    79    1
    64    78    79   ar
    65    78    76   ar
    66    43    42    1
    67    79    77   ar
    68    46    47    1
    69    46    45    1
    70    76    74   ar
    71    45    42    1
    72    42    41    1
    73    77    75   ar
    74    72    71    2
    75    74    75   ar
    76    74    73    1
    77    71    70    1
    78    73    70    1
    79    70    69    1
