@<TRIPOS>MOLECULE
tmp/6fiiD01.pdb
 153 151 0 0 0
SMALL
GASTEIGER

@<TRIPOS>ATOM
      1  N         19.6730  -14.6550  -33.9810 N.3   171  PRO171     -0.2102
      2  CA        19.3440  -15.7340  -34.9150 C.3   171  PRO171      0.1504
      3  C         18.3150  -16.7060  -34.3550 C.2   171  PRO171      0.2576
      4  O         18.2110  -16.9220  -33.1450 O.2   171  PRO171     -0.2718
      5  CB        20.6940  -16.4370  -35.1270 C.3   171  PRO171      0.0282
      6  CG        21.7320  -15.5050  -34.5540 C.3   171  PRO171      0.0208
      7  CD        21.0360  -14.7900  -33.4480 C.3   171  PRO171      0.0893
      8  N         17.5640  -17.3230  -35.2720 N.am  172  SER172     -0.1939
      9  CA        16.5360  -18.2970  -34.9130 C.3   172  SER172      0.2040
     10  C         16.3940  -19.3390  -36.0180 C.2   172  SER172      0.2485
     11  O         16.2760  -18.9610  -37.1950 O.2   172  SER172     -0.2729
     12  CB        15.1890  -17.6120  -34.6640 C.3   172  SER172      0.2129
     13  OG        14.1820  -18.5560  -34.3460 O.3   172  SER172     -0.2179
     14  N         16.3980  -20.6340  -35.6870 N.am  173  PRO173     -0.2726
     15  CA        16.2220  -21.6550  -36.7340 C.3   173  PRO173      0.1402
     16  C         14.8940  -21.5460  -37.4520 C.2   173  PRO173      0.2269
     17  O         14.7740  -22.0510  -38.5750 O.2   173  PRO173     -0.2865
     18  CB        16.3360  -22.9810  -35.9670 C.3   173  PRO173      0.0296
     19  CG        17.0140  -22.6330  -34.6840 C.3   173  PRO173      0.0237
     20  CD        16.5790  -21.2350  -34.3570 C.3   173  PRO173      0.0939
     21  N         16.3470  -18.9580  -40.2090 N.3   176  SER176     -0.1202
     22  CA        17.6280  -19.2100  -40.8600 C.3   176  SER176      0.2020
     23  C         18.0610  -20.6580  -40.6660 C.2   176  SER176      0.2619
     24  O         17.8360  -21.2480  -39.6060 O.2   176  SER176     -0.2717
     25  CB        18.7090  -18.2790  -40.3190 C.3   176  SER176      0.2103
     26  OG        19.9860  -18.6360  -40.8120 O.3   176  SER176     -0.2182
     27  N         18.6940  -21.2230  -41.6980 N.am  177  ASP177     -0.1959
     28  CA        19.1750  -22.5990  -41.6740 C.3   177  ASP177      0.1840
     29  C         20.6900  -22.7020  -41.5550 C.2   177  ASP177      0.2623
     30  O         21.2150  -23.8160  -41.4610 O.2   177  ASP177     -0.2715
     31  CB        18.7110  -23.3450  -42.9300 C.3   177  ASP177      0.1450
     32  CG        17.2000  -23.4460  -43.0240 C.2   177  ASP177      0.3671
     33  OD1       16.5020  -22.8370  -42.1820 O.co2 177  ASP177     -0.2456
     34  OD2       16.7100  -24.1390  -43.9420 O.co2 177  ASP177     -0.2456
     35  N         21.4040  -21.5800  -41.5620 N.am  178  THR178     -0.1937
     36  CA        22.8520  -21.6010  -41.3960 C.3   178  THR178      0.2028
     37  C         23.2160  -22.1970  -40.0420 C.2   178  THR178      0.2642
     38  O         22.8100  -21.6790  -38.9980 O.2   178  THR178     -0.2714
     39  CB        23.4080  -20.1840  -41.5180 C.3   178  THR178      0.1808
     40  OG1       22.9260  -19.5780  -42.7250 O.3   178  THR178     -0.2208
     41  CG2       24.9220  -20.2100  -41.5310 C.3   178  THR178      0.0379
     42  N         24.0000  -23.2770  -40.0570 N.am  179  VAL179     -0.1963
     43  CA        24.2420  -24.0170  -38.8220 C.3   179  VAL179      0.1727
     44  C         25.1500  -23.2490  -37.8660 C.2   179  VAL179      0.2616
     45  O         25.0110  -23.3700  -36.6440 O.2   179  VAL179     -0.2715
     46  CB        24.8170  -25.4090  -39.1380 C.3   179  VAL179      0.0290
     47  CG1       25.3000  -26.0840  -37.8660 C.3   179  VAL179      0.0023
     48  CG2       23.7690  -26.2630  -39.8090 C.3   179  VAL179      0.0023
     49  N         26.0880  -22.4550  -38.3830 N.am  180  VAL180     -0.1963
     50  CA        27.1130  -21.8520  -37.5340 C.3   180  VAL180      0.1727
     51  C         26.6490  -20.5240  -36.9400 C.2   180  VAL180      0.2616
     52  O         27.4590  -19.7580  -36.4080 O.2   180  VAL180     -0.2715
     53  CB        28.4320  -21.6650  -38.3100 C.3   180  VAL180      0.0290
     54  CG1       29.0320  -23.0170  -38.6790 C.3   180  VAL180      0.0023
     55  CG2       28.2140  -20.8120  -39.5550 C.3   180  VAL180      0.0023
     56  N         25.3510  -20.2400  -37.0070 N.am  181  GLU181     -0.1964
     57  CA        24.8770  -18.9480  -36.5220 C.3   181  GLU181      0.1718
     58  C         25.1310  -18.7440  -35.0330 C.2   181  GLU181      0.2458
     59  O         25.4330  -17.6030  -34.6400 O.2   181  GLU181     -0.2730
     60  CB        23.3920  -18.7720  -36.8620 C.3   181  GLU181      0.0428
     61  CG        23.1200  -18.6180  -38.3550 C.3   181  GLU181      0.1163
     62  CD        22.2440  -17.4150  -38.6810 C.2   181  GLU181      0.3649
     63  OE1       21.3040  -17.1260  -37.9120 O.co2 181  GLU181     -0.2457
     64  OE2       22.4990  -16.7520  -39.7100 O.co2 181  GLU181     -0.2457
     65  N         25.0300  -19.7590  -34.1650 N.am  182  PRO182     -0.2727
     66  CA        25.4160  -19.5500  -32.7570 C.3   182  PRO182      0.1402
     67  C         26.8800  -19.1730  -32.5730 C.2   182  PRO182      0.2269
     68  O         27.1960  -18.3980  -31.6630 O.2   182  PRO182     -0.2865
     69  CB        25.0920  -20.8990  -32.1010 C.3   182  PRO182      0.0296
     70  CG        24.0340  -21.4890  -32.9590 C.3   182  PRO182      0.0237
     71  CD        24.3720  -21.0620  -34.3650 C.3   182  PRO182      0.0939
     72  N         21.1350  -19.2150  -27.1050 N.3   373  ILE373     -0.1245
     73  CA        22.2940  -19.1270  -27.9890 C.3   373  ILE373      0.1561
     74  C         23.4260  -20.0080  -27.4770 C.2   373  ILE373      0.2260
     75  O         24.1290  -20.6530  -28.2620 O.2   373  ILE373     -0.2867
     76  CB        22.7500  -17.6620  -28.1380 C.3   373  ILE373      0.0252
     77  CG1       21.6070  -16.7880  -28.6490 C.3   373  ILE373      0.0019
     78  CG2       23.9450  -17.5650  -29.0840 C.3   373  ILE373      0.0019
     79  CD1       21.0610  -17.2330  -29.9860 C.3   373  ILE373      0.0001
     80  N         22.8240  -23.8820  -28.1470 N.3   376  GLN376     -0.1245
     81  CA        23.1300  -24.2580  -29.5220 C.3   376  GLN376      0.1566
     82  C         24.6100  -24.0730  -29.8330 C.2   376  GLN376      0.2260
     83  O         25.1660  -24.8110  -30.6520 O.2   376  GLN376     -0.2867
     84  CB        22.2550  -23.4480  -30.4810 C.3   376  GLN376      0.0367
     85  CG        20.7620  -23.7580  -30.3260 C.3   376  GLN376      0.0905
     86  CD        19.8490  -22.6430  -30.8170 C.2   376  GLN376      0.2608
     87  OE1       20.2490  -21.4780  -30.8940 O.2   376  GLN376     -0.2717
     88  NE2       18.6090  -22.9980  -31.1450 N.am  376  GLN376     -0.0878
     89  N         26.4880  -27.2640  -28.2540 N.3   379  ALA379     -0.1231
     90  CA        26.1810  -28.5190  -28.9340 C.3   379  ALA379      0.1694
     91  C         27.1620  -28.7960  -30.0630 C.2   379  ALA379      0.2591
     92  O         27.3900  -29.9580  -30.4210 O.2   379  ALA379     -0.2718
     93  CB        24.7500  -28.4980  -29.4710 C.3   379  ALA379      0.0304
     94  N         27.7490  -27.7480  -30.6370 N.am  380  MET380     -0.1979
     95  CA        28.7490  -27.8850  -31.6860 C.3   380  MET380      0.1605
     96  C         30.1720  -27.8240  -31.1550 C.2   380  MET380      0.2287
     97  O         31.0240  -28.6060  -31.5870 O.2   380  MET380     -0.2864
     98  CB        28.5570  -26.7910  -32.7390 C.3   380  MET380      0.0413
     99  CG        27.2190  -26.8530  -33.4410 C.3   380  MET380      0.0598
    100  SD        26.8370  -25.3160  -34.2870 S.3   380  MET380     -0.1393
    101  CE        28.2110  -25.2170  -35.4260 C.3   380  MET380      0.0692
    102  N         31.4740  -28.6050  -28.2140 N.3   382  ARG382     -0.1231
    103  CA        31.8970  -29.8120  -27.5130 C.3   382  ARG382      0.1694
    104  C         32.2730  -30.9300  -28.4700 C.2   382  ARG382      0.2591
    105  O         32.7810  -31.9610  -28.0200 O.2   382  ARG382     -0.2718
    106  CB        30.8010  -30.3000  -26.5670 C.3   382  ARG382      0.0321
    107  CG        29.5280  -30.7280  -27.2640 C.3   382  ARG382      0.0489
    108  CD        28.5670  -31.3970  -26.3010 C.3   382  ARG382      0.2205
    109  NE        27.3110  -31.7410  -26.9580 N.pl3 382  ARG382     -0.0865
    110  CZ        27.1260  -32.8350  -27.6870 C.cat 382  ARG382      0.5346
    111  NH1       28.1180  -33.7000  -27.8490 N.pl3 382  ARG382      0.1354
    112  NH2       25.9500  -33.0650  -28.2540 N.pl3 382  ARG382      0.1354
    113  N         32.0240  -30.7510  -29.7690 N.am  383  ARG383     -0.1980
    114  CA        32.4590  -31.6790  -30.8060 C.3   383  ARG383      0.1597
    115  C         33.3250  -30.9880  -31.8530 C.2   383  ARG383      0.2287
    116  O         33.4530  -31.4910  -32.9750 O.2   383  ARG383     -0.2864
    117  CB        31.2520  -32.3460  -31.4690 C.3   383  ARG383      0.0334
    118  CG        30.3860  -33.1310  -30.5050 C.3   383  ARG383      0.0492
    119  CD        29.2660  -33.8570  -31.2240 C.3   383  ARG383      0.2205
    120  NE        28.6660  -34.8770  -30.3700 N.pl3 383  ARG383     -0.0865
    121  CZ        29.1670  -36.0970  -30.2070 C.cat 383  ARG383      0.5346
    122  NH1       30.2770  -36.4520  -30.8400 N.pl3 383  ARG383      0.1354
    123  NH2       28.5580  -36.9650  -29.4110 N.pl3 383  ARG383      0.1354
    124  N         33.0500  -28.9430  -34.0530 N.3   385  ALA385     -0.1231
    125  CA        32.4460  -29.0860  -35.3670 C.3   385  ALA385      0.1694
    126  C         32.4130  -27.7540  -36.1050 C.2   385  ALA385      0.2592
    127  O         32.1360  -26.7040  -35.5140 O.2   385  ALA385     -0.2718
    128  CB        31.0300  -29.6420  -35.2330 C.3   385  ALA385      0.0304
    129  N         32.6940  -27.8090  -37.4050 N.am  386  PHE386     -0.1976
    130  CA        32.6030  -26.6540  -38.2920 C.3   386  PHE386      0.1639
    131  C         33.6030  -25.5650  -37.9290 C.2   386  PHE386      0.2290
    132  O         33.4170  -24.4040  -38.3030 O.2   386  PHE386     -0.2864
    133  CB        31.1810  -26.0800  -38.3010 C.3   386  PHE386      0.0560
    134  CG        30.1090  -27.1170  -38.4970 C.ar  386  PHE386     -0.0200
    135  CD1       29.9890  -27.7960  -39.7020 C.ar  386  PHE386     -0.0042
    136  CD2       29.2180  -27.4110  -37.4790 C.ar  386  PHE386     -0.0042
    137  CE1       29.0020  -28.7520  -39.8830 C.ar  386  PHE386     -0.0003
    138  CE2       28.2300  -28.3590  -37.6530 C.ar  386  PHE386     -0.0003
    139  CZ        28.1230  -29.0330  -38.8570 C.ar  386  PHE386     -0.0000
    140  N         36.3080  -23.4270  -40.7210 N.3   389  TRP389     -0.1241
    141  CA        35.9580  -22.1210  -41.2710 C.3   389  TRP389      0.1605
    142  C         36.6810  -20.9920  -40.5420 C.2   389  TRP389      0.2264
    143  O         37.1490  -20.0360  -41.1700 O.2   389  TRP389     -0.2867
    144  CB        34.4460  -21.9060  -41.1900 C.3   389  TRP389      0.0550
    145  CG        33.6440  -22.5790  -42.2600 C.ar  389  TRP389      0.0003
    146  CD1       33.9620  -23.7170  -42.9380 C.ar  389  TRP389      0.0946
    147  CD2       32.3840  -22.1380  -42.7830 C.ar  389  TRP389      0.0152
    148  NE1       32.9760  -24.0180  -43.8480 N.ar  389  TRP389     -0.2442
    149  CE2       31.9960  -23.0620  -43.7730 C.ar  389  TRP389      0.0810
    150  CE3       31.5450  -21.0510  -42.5080 C.ar  389  TRP389      0.0012
    151  CZ2       30.8060  -22.9330  -44.4890 C.ar  389  TRP389      0.0191
    152  CZ3       30.3650  -20.9240  -43.2200 C.ar  389  TRP389      0.0001
    153  CH2       30.0070  -21.8590  -44.1980 C.ar  389  TRP389      0.0015
@<TRIPOS>BOND
     1   151   153   ar
     2   151   149   ar
     3   153   152   ar
     4    34    32   ar
     5   148   149   ar
     6   148   146   ar
     7   149   147   ar
     8   152   150   ar
     9    32    31    1
    10    32    33   ar
    11   146   145   ar
    12    31    28    1
    13   147   150   ar
    14   147   145   ar
    15    40    39    1
    16   145   144    1
    17    27    28    1
    18    27    23   am
    19    28    29    1
    20    35    29   am
    21    35    36    1
    22    29    30    2
    23    41    39    1
    24    39    36    1
    25    36    37    1
    26   141   144    1
    27   141   140    1
    28   141   142    1
    29   143   142    2
    30    22    23    1
    31    22    25    1
    32    22    21    1
    33    26    25    1
    34    23    24    2
    35    42    37   am
    36    42    43    1
    37    37    38    2
    38   137   135   ar
    39   137   139   ar
    40    48    46    1
    41    64    62   ar
    42   135   134   ar
    43    55    53    1
    44    46    43    1
    45    46    47    1
    46   139   138   ar
    47    43    44    1
    48    62    61    1
    49    62    63   ar
    50    54    53    1
    51    17    16    2
    52   134   133    1
    53   134   136   ar
    54    49    44   am
    55    49    50    1
    56    61    60    1
    57    53    50    1
    58   132   131    2
    59   133   130    1
    60   130   131    1
    61   130   129    1
    62    44    45    2
    63   138   136   ar
    64    50    51    1
    65    16    15    1
    66   129   126   am
    67    11    10    2
    68    56    51   am
    69    56    57    1
    70    51    52    2
    71    60    57    1
    72    15    18    1
    73    15    14    1
    74    57    58    1
    75   126   127    2
    76   126   125    1
    77    10    14   am
    78    10     9    1
    79    18    19    1
    80    14    20    1
    81   101   100    1
    82   125   128    1
    83   125   124    1
    84     8     9    1
    85     8     3   am
    86     5     2    1
    87     5     6    1
    88    58    59    2
    89    58    65   am
    90     2     3    1
    91     2     1    1
    92     9    12    1
    93    19    20    1
    94    12    13    1
    95     6     7    1
    96    71    65    1
    97    71    70    1
    98     3     4    2
    99   100    99    1
   100    65    66    1
   101     1     7    1
   102    99    98    1
   103   116   115    2
   104    70    69    1
   105    66    67    1
   106    66    69    1
   107    98    95    1
   108    67    68    2
   109   115   114    1
   110    95    96    1
   111    95    94    1
   112    97    96    2
   113   117   114    1
   114   117   118    1
   115   119   118    1
   116   119   120    1
   117    88    86   am
   118    87    86    2
   119   122   121    1
   120    86    85    1
   121   114   113    1
   122    83    82    2
   123    94    91   am
   124    84    85    1
   125    84    81    1
   126    92    91    2
   127   120   121    2
   128   121   123    1
   129    91    90    1
   130    79    77    1
   131    82    81    1
   132   113   104   am
   133    81    80    1
   134    93    90    1
   135    78    76    1
   136    90    89    1
   137    77    76    1
   138   104   105    2
   139   104   103    1
   140    75    74    2
   141   112   110    1
   142   102   103    1
   143    76    73    1
   144    73    74    1
   145    73    72    1
   146   111   110    1
   147   110   109    2
   148   103   106    1
   149   107   106    1
   150   107   108    1
   151   109   108    1
