@<TRIPOS>MOLECULE
tmp/6filA00.pdb
 225 214 0 0 0
SMALL
GASTEIGER

@<TRIPOS>ATOM
      1  N         16.5170    4.1520    5.6930 N.3    13  LEU13      -0.1231
      2  CA        16.0340    3.2060    4.6880 C.3    13  LEU13       0.1693
      3  C         16.2260    1.7580    5.1160 C.2    13  LEU13       0.2592
      4  O         15.6570    0.8500    4.5120 O.2    13  LEU13      -0.2718
      5  CB        16.7330    3.4290    3.3470 C.3    13  LEU13       0.0284
      6  CG        16.4780    4.7680    2.6540 C.3    13  LEU13       0.0019
      7  CD1       17.2970    4.8680    1.3680 C.3    13  LEU13       0.0001
      8  CD2       15.0000    4.9130    2.3650 C.3    13  LEU13       0.0001
      9  N         17.0590    1.5310    6.1240 N.am   14  GLY14      -0.1957
     10  CA        17.2770    0.1800    6.6140 C.3    14  GLY14       0.1869
     11  C         18.5130    0.0610    7.4790 C.2    14  GLY14       0.2309
     12  O         19.3370    0.9730    7.5480 O.2    14  GLY14      -0.2863
     13  N         21.4770    2.4950    6.3990 N.3    21  VAL21      -0.1245
     14  CA        21.3470    3.2490    5.1680 C.3    21  VAL21       0.1561
     15  C         20.3110    4.3270    5.3370 C.2    21  VAL21       0.2260
     16  O         19.1960    4.0550    5.8000 O.2    21  VAL21      -0.2867
     17  CB        20.9610    2.3490    3.9700 C.3    21  VAL21       0.0252
     18  CG1       20.7380    3.1950    2.7100 C.3    21  VAL21       0.0019
     19  CG2       22.0460    1.2840    3.7370 C.3    21  VAL21       0.0019
     20  N         21.1460    7.2170   -1.6700 N.3    34  ALA34      -0.1245
     21  CA        21.1350    6.3630   -0.4960 C.3    34  ALA34       0.1562
     22  C         22.5480    6.2650    0.0610 C.2    34  ALA34       0.2260
     23  O         23.5010    5.9910   -0.6770 O.2    34  ALA34      -0.2867
     24  CB        20.5720    4.9960   -0.8330 C.3    34  ALA34       0.0290
     25  N         25.1910    4.6990    3.0080 N.3    36  LYS36      -0.1245
     26  CA        25.4400    3.7120    4.0540 C.3    36  LYS36       0.1561
     27  C         26.5190    4.2290    4.9920 C.2    36  LYS36       0.2260
     28  O         27.5720    4.7130    4.5530 O.2    36  LYS36      -0.2867
     29  CB        25.8240    2.3490    3.4490 C.3    36  LYS36       0.0271
     30  CG        26.0500    1.2440    4.4980 C.3    36  LYS36       0.0035
     31  CD        25.9580   -0.1440    3.9010 C.3    36  LYS36       0.0206
     32  CE        26.2170   -1.1980    4.9780 C.3    36  LYS36       0.1093
     33  NZ        25.9890   -2.5750    4.4430 N.3    36  LYS36      -0.1314
     34  N         33.2920   -4.1970    2.4630 N.3    53  GLU53      -0.1245
     35  CA        32.1660   -4.0630    1.5510 C.3    53  GLU53       0.1567
     36  C         32.4420   -2.9620    0.5370 C.2    53  GLU53       0.2260
     37  O         32.0630   -3.0900   -0.6200 O.2    53  GLU53      -0.2867
     38  CB        30.8580   -3.7740    2.2970 C.3    53  GLU53       0.0388
     39  CG        29.6620   -3.7310    1.3480 C.3    53  GLU53       0.1160
     40  CD        28.3350   -3.6360    2.0700 C.2    53  GLU53       0.3649
     41  OE1       28.2090   -2.7660    2.9550 O.co2  53  GLU53      -0.2457
     42  OE2       27.4210   -4.4320    1.7520 O.co2  53  GLU53      -0.2457
     43  N         34.4780   -4.5870   -2.1320 N.3    56  ILE56      -0.1231
     44  CA        33.6430   -5.4670   -2.9460 C.3    56  ILE56       0.1692
     45  C         32.8050   -4.6300   -3.9060 C.2    56  ILE56       0.2591
     46  O         32.7880   -4.9030   -5.1090 O.2    56  ILE56      -0.2718
     47  CB        32.7260   -6.3540   -2.0760 C.3    56  ILE56       0.0266
     48  CG1       33.5700   -7.2590   -1.1620 C.3    56  ILE56       0.0019
     49  CG2       31.7890   -7.2060   -2.9630 C.3    56  ILE56       0.0020
     50  CD1       32.7420   -7.9620   -0.0850 C.3    56  ILE56       0.0001
     51  N         32.1260   -3.6050   -3.3780 N.am   57  MET57      -0.1979
     52  CA        31.2670   -2.7380   -4.1920 C.3    57  MET57       0.1605
     53  C         32.0150   -1.9740   -5.2950 C.2    57  MET57       0.2287
     54  O         31.4230   -1.6500   -6.3320 O.2    57  MET57      -0.2864
     55  CB        30.5250   -1.7240   -3.3140 C.3    57  MET57       0.0413
     56  CG        29.5510   -2.3340   -2.3150 C.3    57  MET57       0.0598
     57  SD        28.4300   -3.5150   -3.0820 S.3    57  MET57      -0.1393
     58  CE        27.6670   -2.4570   -4.3040 C.3    57  MET57       0.0692
     59  N         31.8370   -3.5050   -8.8110 N.3    60  LEU60      -0.1245
     60  CA        30.5610   -3.7790   -9.4680 C.3    60  LEU60       0.1561
     61  C         30.0400   -2.5880  -10.2620 C.2    60  LEU60       0.2260
     62  O         29.5760   -1.5950   -9.6960 O.2    60  LEU60      -0.2867
     63  CB        29.5460   -4.2120   -8.4190 C.3    60  LEU60       0.0270
     64  CG        30.0030   -5.3940   -7.5660 C.3    60  LEU60       0.0019
     65  CD1       28.8700   -5.8250   -6.6460 C.3    60  LEU60       0.0001
     66  CD2       30.4670   -6.5690   -8.4370 C.3    60  LEU60       0.0001
     67  N         23.1330   -3.7970  -11.2650 N.3    65  ILE65      -0.1231
     68  CA        23.7450   -4.0820   -9.9710 C.3    65  ILE65       0.1692
     69  C         23.8810   -2.7640   -9.1970 C.2    65  ILE65       0.2592
     70  O         24.1590   -1.7220   -9.7860 O.2    65  ILE65      -0.2718
     71  CB        25.1550   -4.7520  -10.1220 C.3    65  ILE65       0.0266
     72  CG1       25.0760   -6.0020  -11.0030 C.3    65  ILE65       0.0019
     73  CG2       25.7780   -5.0670   -8.7490 C.3    65  ILE65       0.0020
     74  CD1       24.2650   -7.1520  -10.3910 C.3    65  ILE65       0.0001
     75  N         23.6870   -2.8090   -7.8830 N.am   66  ILE66      -0.1966
     76  CA        23.9340   -1.6310   -7.0480 C.3    66  ILE66       0.1727
     77  C         25.3380   -1.0720   -7.3620 C.2    66  ILE66       0.2616
     78  O         26.3000   -1.8350   -7.4590 O.2    66  ILE66      -0.2715
     79  CB        23.8190   -1.9730   -5.5510 C.3    66  ILE66       0.0290
     80  CG1       22.3950   -2.4310   -5.2060 C.3    66  ILE66       0.0022
     81  CG2       24.2270   -0.7640   -4.6950 C.3    66  ILE66       0.0023
     82  CD1       21.3270   -1.3570   -5.3780 C.3    66  ILE66       0.0001
     83  N         25.4510    0.2390   -7.5550 N.am   67  ARG67      -0.1963
     84  CA        26.7340    0.8240   -7.9240 C.3    67  ARG67       0.1729
     85  C         27.2220    1.8070   -6.8670 C.2    67  ARG67       0.2616
     86  O         26.4390    2.4650   -6.1970 O.2    67  ARG67      -0.2715
     87  CB        26.6510    1.5120   -9.2970 C.3    67  ARG67       0.0348
     88  CG        25.6460    2.6450   -9.4010 C.3    67  ARG67       0.0492
     89  CD        25.7220    3.3320  -10.7620 C.3    67  ARG67       0.2205
     90  NE        24.7150    4.3800  -10.9070 N.pl3  67  ARG67      -0.0865
     91  CZ        24.8830    5.4780  -11.6330 C.cat  67  ARG67       0.5346
     92  NH1       26.0260    5.6810  -12.2810 N.pl3  67  ARG67       0.1354
     93  NH2       23.9140    6.3830  -11.7000 N.pl3  67  ARG67       0.1354
     94  N         28.5370    1.8760   -6.7030 N.am   68  LEU68      -0.1977
     95  CA        29.1210    2.7910   -5.7430 C.3    68  LEU68       0.1596
     96  C         29.2890    4.1450   -6.4220 C.2    68  LEU68       0.2287
     97  O         30.1740    4.3060   -7.2630 O.2    68  LEU68      -0.2864
     98  CB        30.4640    2.2460   -5.2490 C.3    68  LEU68       0.0297
     99  CG        31.1000    2.8000   -3.9760 C.3    68  LEU68       0.0022
    100  CD1       30.1990    2.5800   -2.7770 C.3    68  LEU68       0.0001
    101  CD2       32.4480    2.1370   -3.7610 C.3    68  LEU68       0.0001
    102  N         29.3340    5.1010    2.3030 N.3    80  MET80      -0.1230
    103  CA        29.2000    4.7080    0.9060 C.3    80  MET80       0.1702
    104  C         27.9540    5.3870    0.3760 C.2    80  MET80       0.2592
    105  O         26.9920    5.5560    1.1180 O.2    80  MET80      -0.2718
    106  CB        29.0620    3.1890    0.7580 C.3    80  MET80       0.0401
    107  CG        30.3400    2.4110    0.8580 C.3    80  MET80       0.0596
    108  SD        29.9820    0.6740    0.5440 S.3    80  MET80      -0.1393
    109  CE        29.5090    0.1590    2.1900 C.3    80  MET80       0.0692
    110  N         27.9680    5.7660   -0.8940 N.am   81  ILE81      -0.1966
    111  CA        26.8280    6.4470   -1.5180 C.3    81  ILE81       0.1727
    112  C         26.3730    5.6810   -2.7540 C.2    81  ILE81       0.2617
    113  O         27.2000    5.2980   -3.5830 O.2    81  ILE81      -0.2715
    114  CB        27.1880    7.8780   -1.9360 C.3    81  ILE81       0.0290
    115  CG1       27.8250    8.6320   -0.7670 C.3    81  ILE81       0.0022
    116  CG2       25.9560    8.6290   -2.4380 C.3    81  ILE81       0.0023
    117  CD1       28.2330   10.0390   -1.1230 C.3    81  ILE81       0.0001
    118  N         25.0710    5.4580   -2.8900 N.am   82  THR82      -0.1937
    119  CA        24.5460    4.8220   -4.0980 C.3    82  THR82       0.2028
    120  C         23.2630    5.5050   -4.5500 C.2    82  THR82       0.2642
    121  O         22.7760    6.4080   -3.8790 O.2    82  THR82      -0.2714
    122  CB        24.2770    3.3190   -3.8860 C.3    82  THR82       0.1808
    123  OG1       23.9930    2.7010   -5.1500 O.3    82  THR82      -0.2208
    124  CG2       23.1070    3.1080   -2.9520 C.3    82  THR82       0.0379
    125  N         22.7180    5.0680   -5.6810 N.am   83  ASP83      -0.1957
    126  CA        21.4500    5.6050   -6.1780 C.3    83  ASP83       0.1840
    127  C         20.2980    5.2960   -5.2270 C.2    83  ASP83       0.2622
    128  O         20.2340    4.2260   -4.6190 O.2    83  ASP83      -0.2715
    129  CB        21.1050    5.0300   -7.5610 C.3    83  ASP83       0.1450
    130  CG        22.2100    5.2180   -8.5660 C.2    83  ASP83       0.3671
    131  OD1       23.0980    4.3370   -8.6520 O.co2  83  ASP83      -0.2456
    132  OD2       22.1890    6.2440   -9.2760 O.co2  83  ASP83      -0.2456
    133  N         19.3710    6.2360   -5.1230 N.am   84  TYR84      -0.1960
    134  CA        18.1280    5.9900   -4.4260 C.3    84  TYR84       0.1771
    135  C         17.1480    5.2550   -5.3440 C.2    84  TYR84       0.2619
    136  O         16.8240    5.7180   -6.4300 O.2    84  TYR84      -0.2715
    137  CB        17.5380    7.3080   -3.9250 C.3    84  TYR84       0.0574
    138  CG        16.1980    7.1780   -3.2250 C.ar   84  TYR84      -0.0198
    139  CD1       16.0010    6.2370   -2.2200 C.ar   84  TYR84      -0.0009
    140  CD2       15.1430    8.0100   -3.5580 C.ar   84  TYR84      -0.0009
    141  CE1       14.7830    6.1280   -1.5760 C.ar   84  TYR84       0.0417
    142  CE2       13.9230    7.9140   -2.9150 C.ar   84  TYR84       0.0417
    143  CZ        13.7500    6.9690   -1.9270 C.ar   84  TYR84       0.1957
    144  OH        12.5360    6.8700   -1.2840 O.3    84  TYR84      -0.2866
    145  N         16.7160    4.0830   -4.9010 N.am   85  MET85      -0.1977
    146  CA        15.7460    3.2650   -5.6310 C.3    85  MET85       0.1605
    147  C         14.3940    3.4400   -4.9660 C.2    85  MET85       0.2287
    148  O         14.1140    2.8000   -3.9570 O.2    85  MET85      -0.2864
    149  CB        16.1850    1.8000   -5.6320 C.3    85  MET85       0.0413
    150  CG        17.5830    1.6240   -6.1640 C.3    85  MET85       0.0598
    151  SD        17.6920    2.0440   -7.9080 S.3    85  MET85      -0.1393
    152  CE        16.8830    0.6080   -8.6040 C.3    85  MET85       0.0692
    153  N         11.6950    0.7030   -3.4760 N.3    88  GLY88      -0.1225
    154  CA        12.0190   -0.2530   -2.4240 C.3    88  GLY88       0.1811
    155  C         12.3350   -1.6620   -2.9020 C.2    88  GLY88       0.2280
    156  O         12.6220   -1.8680   -4.0770 O.2    88  GLY88      -0.2866
    157  N         27.6600  -10.4530  -13.3410 N.3   132  LEU132     -0.1245
    158  CA        28.4150  -11.0010  -12.2130 C.3   132  LEU132      0.1561
    159  C         29.1970  -12.2320  -12.6540 C.2   132  LEU132      0.2260
    160  O         30.3570  -12.4280  -12.2590 O.2   132  LEU132     -0.2867
    161  CB        27.4880  -11.3380  -11.0300 C.3   132  LEU132      0.0270
    162  CG        26.7970  -10.1480  -10.3350 C.3   132  LEU132      0.0019
    163  CD1       26.0130  -10.6250   -9.1290 C.3   132  LEU132      0.0001
    164  CD2       27.8170   -9.0600   -9.9320 C.3   132  LEU132      0.0001
    165  N         31.9960  -13.6610  -10.0460 N.3   137  PHE137     -0.1241
    166  CA        31.5130  -13.1790   -8.7660 C.3   137  PHE137      0.1605
    167  C         30.2950  -14.0030   -8.4140 C.2   137  PHE137      0.2264
    168  O         29.3210  -14.0060   -9.1530 O.2   137  PHE137     -0.2867
    169  CB        31.1610  -11.6850   -8.8560 C.3   137  PHE137      0.0534
    170  CG        30.7640  -11.0540   -7.5420 C.ar  137  PHE137     -0.0203
    171  CD1       29.4740  -11.2040   -7.0350 C.ar  137  PHE137     -0.0042
    172  CD2       31.6760  -10.2830   -6.8360 C.ar  137  PHE137     -0.0042
    173  CE1       29.1040  -10.6060   -5.8400 C.ar  137  PHE137     -0.0003
    174  CE2       31.3200   -9.6770   -5.6460 C.ar  137  PHE137     -0.0003
    175  CZ        30.0190   -9.8430   -5.1410 C.ar  137  PHE137     -0.0000
    176  N         27.0800  -14.6350   -6.0820 N.3   139  HIS139     -0.1241
    177  CA        26.2330  -13.8390   -5.2010 C.3   139  HIS139      0.1621
    178  C         25.9070  -14.5480   -3.8880 C.2   139  HIS139      0.2264
    179  O         26.0730  -13.9610   -2.8230 O.2   139  HIS139     -0.2867
    180  CB        24.9370  -13.4650   -5.9270 C.3   139  HIS139      0.0745
    181  CG        24.1180  -12.4350   -5.2100 C.ar  139  HIS139      0.0817
    182  ND1       23.3860  -12.7210   -4.0760 N.ar  139  HIS139     -0.2268
    183  CD2       23.9230  -11.1160   -5.4590 C.ar  139  HIS139      0.1154
    184  CE1       22.7760  -11.6270   -3.6620 C.ar  139  HIS139      0.1986
    185  NE2       23.0890  -10.6380   -4.4780 N.ar  139  HIS139     -0.2212
    186  N         16.2970   -4.2810   -5.7570 N.3   148  LEU148     -0.1245
    187  CA        15.6450   -2.9950   -5.5180 C.3   148  LEU148      0.1561
    188  C         14.9890   -2.4890   -6.7960 C.2   148  LEU148      0.2260
    189  O         15.4420   -2.8010   -7.9020 O.2   148  LEU148     -0.2867
    190  CB        16.6530   -1.9610   -4.9860 C.3   148  LEU148      0.0270
    191  CG        17.0850   -2.1110   -3.5210 C.3   148  LEU148      0.0019
    192  CD1       18.2600   -1.2090   -3.2130 C.3   148  LEU148      0.0001
    193  CD2       15.9300   -1.8030   -2.5850 C.3   148  LEU148      0.0001
    194  N         20.2040   -5.5020   -8.4610 N.3   157  ILE157     -0.1231
    195  CA        20.4720   -6.5410   -7.4750 C.3   157  ILE157      0.1692
    196  C         21.3420   -6.0030   -6.3560 C.2   157  ILE157      0.2592
    197  O         22.4040   -5.4390   -6.6210 O.2   157  ILE157     -0.2718
    198  CB        21.1830   -7.7560   -8.1100 C.3   157  ILE157      0.0266
    199  CG1       20.3310   -8.3400   -9.2470 C.3   157  ILE157      0.0019
    200  CG2       21.5110   -8.8080   -7.0490 C.3   157  ILE157      0.0020
    201  CD1       21.1110   -9.3210  -10.1210 C.3   157  ILE157      0.0001
    202  N         20.8930   -6.1910   -5.1160 N.am  158  ALA158     -0.1966
    203  CA        21.6600   -5.8060   -3.9270 C.3   158  ALA158      0.1728
    204  C         22.0330   -7.0660   -3.1640 C.2   158  ALA158      0.2616
    205  O         21.9570   -8.1670   -3.7050 O.2   158  ALA158     -0.2715
    206  CB        20.8630   -4.8560   -3.0340 C.3   158  ALA158      0.0334
    207  N         22.4660   -6.9030   -1.9180 N.am  159  ASP159     -0.1957
    208  CA        22.7870   -8.0370   -1.0540 C.3   159  ASP159      0.1840
    209  C         22.6780   -7.5410    0.3760 C.2   159  ASP159      0.2622
    210  O         23.6790   -7.1200    0.9730 O.2   159  ASP159     -0.2715
    211  CB        24.1870   -8.5910   -1.3260 C.3   159  ASP159      0.1450
    212  CG        24.4310   -9.9230   -0.6280 C.2   159  ASP159      0.3671
    213  OD1       23.5530  -10.3630    0.1460 O.co2 159  ASP159     -0.2456
    214  OD2       25.5090  -10.5220   -0.8490 O.co2 159  ASP159     -0.2456
    215  N         21.4610   -7.5910    0.9140 N.am  160  PHE160     -0.1974
    216  CA        21.1400   -6.9660    2.1890 C.3   160  PHE160      0.1639
    217  C         21.7840   -7.6890    3.3500 C.2   160  PHE160      0.2290
    218  O         21.9640   -7.1250    4.4240 O.2   160  PHE160     -0.2864
    219  CB        19.6200   -6.9300    2.4080 C.3   160  PHE160      0.0560
    220  CG        18.9300   -5.8160    1.6950 C.ar  160  PHE160     -0.0200
    221  CD1       18.7170   -5.8700    0.3260 C.ar  160  PHE160     -0.0042
    222  CD2       18.4660   -4.7150    2.3940 C.ar  160  PHE160     -0.0042
    223  CE1       18.0620   -4.8290   -0.3410 C.ar  160  PHE160     -0.0003
    224  CE2       17.8120   -3.6810    1.7420 C.ar  160  PHE160     -0.0003
    225  CZ        17.6040   -3.7370    0.3750 C.ar  160  PHE160     -0.0000
@<TRIPOS>BOND
     1   157   158    1
     2   159   160    2
     3   159   158    1
     4    92    91    1
     5   158   161    1
     6    93    91    1
     7    91    90    2
     8    67    68    1
     9   161   162    1
    10    72    74    1
    11    72    71    1
    12    90    89    1
    13    89    88    1
    14   162   164    1
    15   162   163    1
    16    61    62    2
    17    61    60    1
    18    71    68    1
    19    71    73    1
    20   201   199    1
    21   165   166    1
    22    68    69    1
    23    70    69    2
    24    60    59    1
    25    60    63    1
    26    88    87    1
    27    87    84    1
    28   132   130   ar
    29   199   198    1
    30    69    75   am
    31   168   167    2
    32   169   166    1
    33   169   170    1
    34   166   167    1
    35   131   130   ar
    36   152   151    1
    37   130   129    1
    38   194   195    1
    39    66    64    1
    40    63    64    1
    41   198   195    1
    42   198   200    1
    43    84    83    1
    44    84    85    1
    45   151   150    1
    46   189   188    2
    47    75    76    1
    48    64    65    1
    49   129   126    1
    50    83    77   am
    51   170   171   ar
    52   170   172   ar
    53   195   196    1
    54    78    77    2
    55    77    76    1
    56    97    96    2
    57    76    79    1
    58   171   173   ar
    59    85    94   am
    60    85    86    2
    61   172   174   ar
    62   188   187    1
    63    94    95    1
    64   197   196    2
    65   136   135    2
    66    96    95    1
    67   196   202   am
    68    54    53    2
    69   126   125    1
    70   126   127    1
    71   150   149    1
    72   176   177    1
    73   180   181    1
    74   180   177    1
    75   173   175   ar
    76   186   187    1
    77    95    98    1
    78   125   120   am
    79   174   175   ar
    80   149   146    1
    81   146   147    1
    82   146   145    1
    83    79    80    1
    84    79    81    1
    85   187   190    1
    86   183   181   ar
    87   183   185   ar
    88    82    80    1
    89   135   145   am
    90   135   134    1
    91    53    52    1
    92    98    99    1
    93   127   133   am
    94   127   128    2
    95   181   182   ar
    96   177   178    1
    97   123   122    1
    98   133   134    1
    99   202   203    1
   100    46    45    2
   101   190   191    1
   102   147   148    2
   103   120   119    1
   104   120   121    2
   105   185   184   ar
   106   134   137    1
   107    58    57    1
   108    52    51    1
   109    52    55    1
   110   119   122    1
   111   119   118    1
   112   156   155    2
   113   182   184   ar
   114    99   101    1
   115    99   100    1
   116   203   204    1
   117   203   206    1
   118   137   138    1
   119    45    51   am
   120    45    44    1
   121   178   179    2
   122   122   124    1
   123   205   204    2
   124   113   112    2
   125   140   138   ar
   126   140   142   ar
   127   191   192    1
   128   191   193    1
   129   153   154    1
   130    55    56    1
   131   138   139   ar
   132   204   207   am
   133    57    56    1
   134    49    47    1
   135    44    43    1
   136    44    47    1
   137   142   143   ar
   138   155   154    1
   139   118   112   am
   140   112   111    1
   141   116   114    1
   142   139   141   ar
   143    47    48    1
   144   114   111    1
   145   114   115    1
   146   143   141   ar
   147   143   144    1
   148   207   208    1
   149    20    21    1
   150   111   110    1
   151   211   208    1
   152   211   212    1
   153    48    50    1
   154   117   115    1
   155   208   209    1
   156   110   104   am
   157   214   212   ar
   158    24    21    1
   159    23    22    2
   160   212   213   ar
   161    37    36    2
   162    21    22    1
   163   223   221   ar
   164   223   225   ar
   165   221   220   ar
   166   225   224   ar
   167   104   103    1
   168   104   105    2
   169   209   215   am
   170   209   210    2
   171    36    35    1
   172   108   107    1
   173   108   109    1
   174   106   107    1
   175   106   103    1
   176   103   102    1
   177   215   216    1
   178    39    40    1
   179    39    38    1
   180     7     6    1
   181    35    38    1
   182    35    34    1
   183   220   222   ar
   184   220   219    1
   185   224   222   ar
   186    42    40   ar
   187    40    41   ar
   188   216   219    1
   189   216   217    1
   190     8     6    1
   191     6     5    1
   192    18    17    1
   193    25    26    1
   194     5     2    1
   195   217   218    2
   196    29    26    1
   197    29    30    1
   198    19    17    1
   199    31    30    1
   200    31    32    1
   201    17    14    1
   202    26    27    1
   203    33    32    1
   204     4     3    2
   205    28    27    2
   206     2     3    1
   207     2     1    1
   208     3     9   am
   209    14    15    1
   210    14    13    1
   211    15    16    2
   212     9    10    1
   213    10    11    1
   214    11    12    2
