@<TRIPOS>MOLECULE
tmp/6finA00.pdb
 229 218 0 0 0
SMALL
GASTEIGER

@<TRIPOS>ATOM
      1  N        -11.7270    1.2110   21.5300 N.3    14  LEU14      -0.1231
      2  CA       -10.5920    1.6790   20.7420 C.3    14  LEU14       0.1693
      3  C        -10.8180    1.4480   19.2580 C.2    14  LEU14       0.2592
      4  O        -10.2650    2.1590   18.4180 O.2    14  LEU14      -0.2718
      5  CB        -9.3030    0.9810   21.1750 C.3    14  LEU14       0.0284
      6  CG        -8.7640    1.2770   22.5740 C.3    14  LEU14       0.0019
      7  CD1       -7.5650    0.3900   22.8720 C.3    14  LEU14       0.0001
      8  CD2       -8.4050    2.7530   22.7160 C.3    14  LEU14       0.0001
      9  N        -11.6250    0.4480   18.9330 N.am   15  GLY15      -0.1957
     10  CA       -11.8130    0.0680   17.5480 C.3    15  GLY15       0.1869
     11  C        -13.0760   -0.7070   17.2510 C.2    15  GLY15       0.2309
     12  O        -13.4060   -1.6890   17.9150 O.2    15  GLY15      -0.2863
     13  N        -12.2430   -3.7910   19.5310 N.3    22  VAL22      -0.1245
     14  CA       -11.0980   -3.7030   20.4030 C.3    22  VAL22       0.1561
     15  C        -11.4680   -2.7160   21.5040 C.2    22  VAL22       0.2260
     16  O        -11.9180   -1.6110   21.2170 O.2    22  VAL22      -0.2867
     17  CB        -9.8310   -3.2710   19.6500 C.3    22  VAL22       0.0252
     18  CG1       -8.6980   -3.0630   20.6330 C.3    22  VAL22       0.0019
     19  CG2       -9.4620   -4.3250   18.6130 C.3    22  VAL22       0.0019
     20  N         -5.1970   -3.6520   25.8320 N.3    48  ALA48      -0.1231
     21  CA        -6.1480   -3.6680   24.7340 C.3    48  ALA48       0.1694
     22  C         -6.6280   -5.0890   24.5050 C.2    48  ALA48       0.2592
     23  O         -5.8360   -6.0330   24.4980 O.2    48  ALA48      -0.2718
     24  CB        -5.5240   -3.0770   23.4490 C.3    48  ALA48       0.0304
     25  N         -7.9350   -5.2400   24.3290 N.am   49  VAL49      -0.1966
     26  CA        -8.5480   -6.5570   24.2150 C.3    49  VAL49       0.1727
     27  C         -9.3820   -6.6450   22.9500 C.2    49  VAL49       0.2616
     28  O        -10.3070   -5.8470   22.7460 O.2    49  VAL49      -0.2715
     29  CB        -9.4110   -6.8790   25.4680 C.3    49  VAL49       0.0290
     30  CG1      -10.0330   -8.2650   25.3610 C.3    49  VAL49       0.0023
     31  CG2       -8.5720   -6.7550   26.7420 C.3    49  VAL49       0.0023
     32  N         -9.0380   -7.6030   22.0890 N.am   50  LYS50      -0.1977
     33  CA        -9.8040   -7.8480   20.8720 C.3    50  LYS50       0.1596
     34  C        -10.7910   -8.9660   21.1610 C.2    50  LYS50       0.2287
     35  O        -10.4070  -10.0680   21.5600 O.2    50  LYS50      -0.2864
     36  CB        -8.8800   -8.1940   19.6890 C.3    50  LYS50       0.0298
     37  CG        -9.6070   -8.5350   18.3830 C.3    50  LYS50       0.0038
     38  CD        -8.6370   -8.6410   17.1890 C.3    50  LYS50       0.0206
     39  CE        -9.3940   -8.9540   15.8930 C.3    50  LYS50       0.1093
     40  NZ        -8.5200   -8.8680   14.6870 N.3    50  LYS50      -0.1314
     41  N         -5.9250  -16.1750   13.7820 N.3    67  GLU67      -0.1245
     42  CA        -5.1620  -15.0120   14.1860 C.3    67  GLU67       0.1567
     43  C         -4.4980  -15.2760   15.5370 C.2    67  GLU67       0.2260
     44  O         -3.3630  -14.8720   15.7620 O.2    67  GLU67      -0.2867
     45  CB        -6.0470  -13.7700   14.2410 C.3    67  GLU67       0.0388
     46  CG        -5.2890  -12.5090   14.5940 C.3    67  GLU67       0.1160
     47  CD        -6.0120  -11.2650   14.1440 C.2    67  GLU67       0.3649
     48  OE1       -6.3840  -11.1900   12.9530 O.co2  67  GLU67      -0.2457
     49  OE2       -6.2100  -10.3600   14.9770 O.co2  67  GLU67      -0.2457
     50  N         -1.3430  -17.2460   14.8210 N.3    70  ILE70      -0.1231
     51  CA        -0.3030  -16.3880   14.2710 C.3    70  ILE70       0.1692
     52  C          0.3080  -15.5070   15.3640 C.2    70  ILE70       0.2591
     53  O          1.5230  -15.4580   15.5260 O.2    70  ILE70      -0.2718
     54  CB        -0.8700  -15.5480   13.1060 C.3    70  ILE70       0.0266
     55  CG1       -1.2910  -16.4710   11.9540 C.3    70  ILE70       0.0019
     56  CG2        0.1510  -14.5180   12.6580 C.3    70  ILE70       0.0020
     57  CD1       -2.2730  -15.8580   10.9570 C.3    70  ILE70       0.0001
     58  N         -0.5410  -14.8460   16.1500 N.am   71  MET71      -0.1979
     59  CA        -0.0760  -13.9370   17.1960 C.3    71  MET71       0.1605
     60  C          0.7780  -14.6430   18.2520 C.2    71  MET71       0.2287
     61  O          1.7100  -14.0500   18.8020 O.2    71  MET71      -0.2864
     62  CB        -1.2640  -13.2570   17.8770 C.3    71  MET71       0.0413
     63  CG        -1.9190  -12.1590   17.0580 C.3    71  MET71       0.0598
     64  SD        -0.9080  -10.6710   16.9970 S.3    71  MET71      -0.1393
     65  CE        -0.7650  -10.2860   18.7470 C.3    71  MET71       0.0692
     66  N          4.6090  -14.5190   17.8710 N.3    74  LEU74      -0.1245
     67  CA         5.2980  -13.2310   17.7700 C.3    74  LEU74       0.1561
     68  C          5.8740  -12.7260   19.0880 C.2    74  LEU74       0.2260
     69  O          5.1390  -12.2500   19.9470 O.2    74  LEU74      -0.2867
     70  CB         4.3360  -12.1940   17.1980 C.3    74  LEU74       0.0270
     71  CG         3.7380  -12.6510   15.8710 C.3    74  LEU74       0.0019
     72  CD1        2.7590  -11.6130   15.3600 C.3    74  LEU74       0.0001
     73  CD2        4.8460  -12.9030   14.8580 C.3    74  LEU74       0.0001
     74  N          7.1490   -5.7410   17.7470 N.3    79  ILE79      -0.1231
     75  CA         5.9610   -6.3820   17.1760 C.3    79  ILE79       0.1692
     76  C          4.9570   -6.5040   18.3210 C.2    79  ILE79       0.2591
     77  O          5.3640   -6.7590   19.4580 O.2    79  ILE79      -0.2718
     78  CB         6.2630   -7.7870   16.5820 C.3    79  ILE79       0.0266
     79  CG1        7.4090   -7.7460   15.5600 C.3    79  ILE79       0.0019
     80  CG2        4.9950   -8.4270   16.0010 C.3    79  ILE79       0.0020
     81  CD1        7.0390   -7.0790   14.2710 C.3    79  ILE79       0.0001
     82  N          3.6640   -6.3290   18.0640 N.am   80  ILE80      -0.1980
     83  CA         2.7360   -6.4820   19.1810 C.3    80  ILE80       0.1595
     84  C          2.7820   -7.9330   19.6700 C.2    80  ILE80       0.2287
     85  O          3.1440   -8.8610   18.9340 O.2    80  ILE80      -0.2864
     86  CB         1.2960   -6.0500   18.8490 C.3    80  ILE80       0.0276
     87  CG1        0.7100   -6.8670   17.7110 C.3    80  ILE80       0.0022
     88  CG2        1.2250   -4.5270   18.5520 C.3    80  ILE80       0.0022
     89  CD1       -0.8110   -6.7450   17.6570 C.3    80  ILE80       0.0001
     90  N          1.1950  -11.1410   22.3470 N.3    82  LEU82      -0.1245
     91  CA        -0.0170  -11.7200   22.9140 C.3    82  LEU82       0.1561
     92  C          0.1580  -11.9330   24.4240 C.2    82  LEU82       0.2260
     93  O          0.8110  -12.8850   24.8310 O.2    82  LEU82      -0.2867
     94  CB        -0.3470  -13.0420   22.2200 C.3    82  LEU82       0.0270
     95  CG        -1.7610  -13.6060   22.3230 C.3    82  LEU82       0.0019
     96  CD1       -2.7550  -12.7020   21.6160 C.3    82  LEU82       0.0001
     97  CD2       -1.8080  -15.0110   21.7390 C.3    82  LEU82       0.0001
     98  N         -8.4870  -11.9360   22.8100 N.3    94  MET94      -0.1230
     99  CA        -7.0300  -11.7730   22.7840 C.3    94  MET94       0.1702
    100  C         -6.6660  -10.5050   23.5420 C.2    94  MET94       0.2592
    101  O         -7.3820   -9.5020   23.4630 O.2    94  MET94      -0.2718
    102  CB        -6.4930  -11.6720   21.3440 C.3    94  MET94       0.0401
    103  CG        -6.4290  -12.9670   20.5820 C.3    94  MET94       0.0596
    104  SD        -5.6960  -12.7090   18.9310 S.3    94  MET94      -0.1393
    105  CE        -6.8900  -11.6080   18.2150 C.3    94  MET94       0.0692
    106  N         -5.5400  -10.5370   24.2490 N.am   95  ILE95      -0.1966
    107  CA        -5.0870   -9.4030   25.0410 C.3    95  ILE95       0.1727
    108  C         -3.6860   -8.9580   24.6560 C.2    95  ILE95       0.2617
    109  O         -2.7860   -9.7850   24.5540 O.2    95  ILE95      -0.2715
    110  CB        -5.1150   -9.7360   26.5500 C.3    95  ILE95       0.0290
    111  CG1       -6.4440  -10.3760   26.9460 C.3    95  ILE95       0.0022
    112  CG2       -4.8550   -8.4850   27.3790 C.3    95  ILE95       0.0023
    113  CD1       -6.4000  -11.0280   28.3150 C.3    95  ILE95       0.0001
    114  N         -3.4990   -7.6490   24.4880 N.am   96  THR96      -0.1937
    115  CA        -2.1900   -7.0780   24.1440 C.3    96  THR96       0.2028
    116  C         -1.8990   -5.7760   24.9210 C.2    96  THR96       0.2642
    117  O         -2.8010   -5.1600   25.4910 O.2    96  THR96      -0.2714
    118  CB        -2.0890   -6.7960   22.6230 C.3    96  THR96       0.1808
    119  OG1       -0.7120   -6.6360   22.2670 O.3    96  THR96      -0.2208
    120  CG2       -2.8740   -5.5240   22.2450 C.3    96  THR96       0.0379
    121  N         -0.6340   -5.3640   24.9460 N.am   97  ASP97      -0.1957
    122  CA        -0.2370   -4.0850   25.5660 C.3    97  ASP97       0.1840
    123  C         -1.0340   -2.8980   25.0290 C.2    97  ASP97       0.2622
    124  O         -1.3450   -2.8460   23.8410 O.2    97  ASP97      -0.2715
    125  CB         1.2610   -3.8080   25.3420 C.3    97  ASP97       0.1450
    126  CG         2.1630   -4.8540   25.9770 C.2    97  ASP97       0.3671
    127  OD1        2.3010   -4.8420   27.2200 O.co2  97  ASP97      -0.2456
    128  OD2        2.7570   -5.6730   25.2380 O.co2  97  ASP97      -0.2456
    129  N         -1.3580   -1.9410   25.8960 N.am   98  TYR98      -0.1960
    130  CA        -1.9790   -0.6980   25.4450 C.3    98  TYR98       0.1771
    131  C         -0.9080    0.2820   24.9760 C.2    98  TYR98       0.2619
    132  O          0.0610    0.5510   25.6820 O.2    98  TYR98      -0.2715
    133  CB        -2.8300   -0.0600   26.5460 C.3    98  TYR98       0.0574
    134  CG        -3.4630    1.2760   26.1670 C.ar   98  TYR98      -0.0198
    135  CD1       -4.2290    1.4030   25.0200 C.ar   98  TYR98      -0.0009
    136  CD2       -3.3120    2.4040   26.9810 C.ar   98  TYR98      -0.0009
    137  CE1       -4.8230    2.6220   24.6710 C.ar   98  TYR98       0.0417
    138  CE2       -3.9020    3.6240   26.6460 C.ar   98  TYR98       0.0417
    139  CZ        -4.6580    3.7220   25.4860 C.ar   98  TYR98       0.1957
    140  OH        -5.2520    4.9160   25.1330 O.3    98  TYR98      -0.2866
    141  N         -1.0770    0.7850   23.7620 N.am   99  MET99      -0.1977
    142  CA        -0.1380    1.7300   23.1780 C.3    99  MET99       0.1605
    143  C         -0.8440    3.0810   23.1230 C.2    99  MET99       0.2287
    144  O         -1.7040    3.3130   22.2760 O.2    99  MET99      -0.2864
    145  CB         0.3130    1.2490   21.7910 C.3    99  MET99       0.0413
    146  CG         0.9170   -0.1540   21.7950 C.3    99  MET99       0.0598
    147  SD         2.5660   -0.2200   22.5170 S.3    99  MET99      -0.1393
    148  CE         3.5370    0.5080   21.1870 C.3    99  MET99       0.0692
    149  N         -1.7410    5.6320   19.9360 N.3   102  GLY102     -0.1210
    150  CA        -2.5280    5.2520   18.7700 C.3   102  GLY102      0.1956
    151  C         -1.6620    4.9280   17.5710 C.2   102  GLY102      0.2611
    152  O         -0.4940    4.5980   17.7440 O.2   102  GLY102     -0.2717
    153  N         -2.2080    5.0310   16.3610 N.am  103  ASP103     -0.1973
    154  CA        -1.4210    4.6220   15.1960 C.3   103  ASP103      0.1709
    155  C         -0.4470    5.7310   14.7920 C.2   103  ASP103      0.2293
    156  O         -0.6470    6.9150   15.1020 O.2   103  ASP103     -0.2864
    157  CB        -2.3330    4.1460   14.0300 C.3   103  ASP103      0.1436
    158  CG        -2.8900    5.2740   13.1380 C.2   103  ASP103      0.3671
    159  OD1       -2.1550    6.1880   12.7170 O.co2 103  ASP103     -0.2456
    160  OD2       -4.0910    5.1930   12.7840 O.co2 103  ASP103     -0.2456
    161  N         10.6090  -10.5130   11.9170 N.3   140  LEU140     -0.1245
    162  CA         9.6510  -11.2320   11.0880 C.3   140  LEU140      0.1561
    163  C         10.3380  -12.0070    9.9500 C.2   140  LEU140      0.2260
    164  O          9.9120  -13.1100    9.5920 O.2   140  LEU140     -0.2867
    165  CB         8.6120  -10.2600   10.5020 C.3   140  LEU140      0.0270
    166  CG         7.6360   -9.5760   11.4710 C.3   140  LEU140      0.0019
    167  CD1        6.6410   -8.7100   10.7260 C.3   140  LEU140      0.0001
    168  CD2        6.9110  -10.6150   12.3650 C.3   140  LEU140      0.0001
    169  N          8.1890  -14.8350    7.9150 N.3   145  PHE145     -0.1241
    170  CA         6.8320  -14.3200    7.9740 C.3   145  PHE145      0.1605
    171  C          6.7500  -13.0930    7.0860 C.2   145  PHE145      0.2264
    172  O          7.4880  -12.1450    7.2820 O.2   145  PHE145     -0.2867
    173  CB         6.4500  -13.9660    9.4100 C.3   145  PHE145      0.0534
    174  CG         5.0120  -13.5560    9.5760 C.ar  145  PHE145     -0.0203
    175  CD1        4.6160  -12.2400    9.3800 C.ar  145  PHE145     -0.0042
    176  CD2        4.0520  -14.5020    9.9310 C.ar  145  PHE145     -0.0042
    177  CE1        3.2910  -11.8690    9.5370 C.ar  145  PHE145     -0.0003
    178  CE2        2.7320  -14.1400   10.0780 C.ar  145  PHE145     -0.0003
    179  CZ         2.3550  -12.8130    9.8860 C.ar  145  PHE145     -0.0000
    180  N          4.6580   -9.8590    5.9110 N.3   147  HIS147     -0.1241
    181  CA         3.6000   -8.9980    6.4650 C.3   147  HIS147      0.1621
    182  C          2.5000   -8.6760    5.4500 C.2   147  HIS147      0.2264
    183  O          1.3110   -8.8490    5.7610 O.2   147  HIS147     -0.2867
    184  CB         4.2120   -7.6960    7.0210 C.3   147  HIS147      0.0745
    185  CG         3.2450   -6.8520    7.7970 C.ar  147  HIS147      0.0817
    186  ND1        2.1970   -6.1890    7.2030 N.ar  147  HIS147     -0.2268
    187  CD2        3.1790   -6.5530    9.1200 C.ar  147  HIS147      0.1154
    188  CE1        1.5120   -5.5320    8.1250 C.ar  147  HIS147      0.1986
    189  NE2        2.0830   -5.7500    9.2990 N.ar  147  HIS147     -0.2212
    190  N          1.8230    1.0330   15.7740 N.3   156  LEU156     -0.1245
    191  CA         1.2910    1.6460   16.9930 C.3   156  LEU156      0.1561
    192  C          2.4040    2.3770   17.7370 C.2   156  LEU156      0.2260
    193  O          3.5690    2.0440   17.5750 O.2   156  LEU156     -0.2867
    194  CB         0.6550    0.5770   17.8800 C.3   156  LEU156      0.0270
    195  CG        -0.6430   -0.0650   17.3730 C.3   156  LEU156      0.0019
    196  CD1       -1.0760   -1.2060   18.2920 C.3   156  LEU156      0.0001
    197  CD2       -1.7480    0.9700   17.2440 C.3   156  LEU156      0.0001
    198  N          4.8030   -2.9310   15.4200 N.3   165  ILE165     -0.1231
    199  CA         4.1070   -3.2370   14.1720 C.3   165  ILE165      0.1692
    200  C          2.8800   -4.0810   14.4360 C.2   165  ILE165      0.2592
    201  O          2.9340   -5.0480   15.2070 O.2   165  ILE165     -0.2718
    202  CB         5.0430   -3.9440   13.1660 C.3   165  ILE165      0.0266
    203  CG1        6.3080   -3.1120   12.9960 C.3   165  ILE165      0.0019
    204  CG2        4.3430   -4.1170   11.8260 C.3   165  ILE165      0.0020
    205  CD1        7.2900   -3.7010   11.9740 C.3   165  ILE165      0.0001
    206  N          1.7780   -3.7000   13.7980 N.am  166  ALA166     -0.1966
    207  CA         0.5090   -4.4210   13.9010 C.3   166  ALA166      0.1728
    208  C         -0.0360   -4.7000   12.5060 C.2   166  ALA166      0.2616
    209  O          0.6910   -4.5900   11.5350 O.2   166  ALA166     -0.2715
    210  CB        -0.5060   -3.6200   14.7310 C.3   166  ALA166      0.0334
    211  N         -1.3060   -5.0740   12.4050 N.am  167  ASP167     -0.1957
    212  CA        -1.9520   -5.2300   11.1090 C.3   167  ASP167      0.1840
    213  C         -3.4750   -5.0900   11.2440 C.2   167  ASP167      0.2622
    214  O         -4.1910   -6.0650   11.4860 O.2   167  ASP167     -0.2715
    215  CB        -1.5930   -6.5810   10.4820 C.3   167  ASP167      0.1450
    216  CG        -2.0810   -6.6960    9.0380 C.2   167  ASP167      0.3671
    217  OD1       -2.7120   -5.7350    8.5420 O.co2 167  ASP167     -0.2456
    218  OD2       -1.8710   -7.7480    8.4120 O.co2 167  ASP167     -0.2456
    219  N         -3.9640   -3.8700   11.0550 N.am  168  PHE168     -0.1974
    220  CA        -5.3720   -3.5520   11.3080 C.3   168  PHE168      0.1639
    221  C         -6.3270   -4.1870   10.3000 C.2   168  PHE168      0.2290
    222  O         -7.5410   -4.1620   10.4890 O.2   168  PHE168     -0.2864
    223  CB        -5.5880   -2.0360   11.2840 C.3   168  PHE168      0.0560
    224  CG        -5.1720   -1.3170   12.5500 C.ar  168  PHE168     -0.0200
    225  CD1       -3.8360   -1.0470   12.8130 C.ar  168  PHE168     -0.0042
    226  CD2       -6.1310   -0.8600   13.4390 C.ar  168  PHE168     -0.0042
    227  CE1       -3.4520   -0.3560   13.9530 C.ar  168  PHE168     -0.0003
    228  CE2       -5.7640   -0.1700   14.5940 C.ar  168  PHE168     -0.0003
    229  CZ        -4.4220    0.0820   14.8540 C.ar  168  PHE168     -0.0000
@<TRIPOS>BOND
     1   182   183    2
     2   182   181    1
     3   180   181    1
     4   181   184    1
     5   184   185    1
     6   171   172    2
     7   171   170    1
     8   186   185   ar
     9   186   188   ar
    10   185   187   ar
    11   169   170    1
    12   170   173    1
    13   188   189   ar
    14   218   216   ar
    15   217   216   ar
    16   216   215    1
    17   187   189   ar
    18   175   177   ar
    19   175   174   ar
    20   173   174    1
    21   177   179   ar
    22   174   176   ar
    23   164   163    2
    24   179   178   ar
    25   176   178   ar
    26   163   162    1
    27   221   222    2
    28   221   220    1
    29   215   212    1
    30   165   162    1
    31   165   166    1
    32   167   166    1
    33    57    55    1
    34   219   213   am
    35   219   220    1
    36   162   161    1
    37   212   213    1
    38   212   211    1
    39   213   214    2
    40   223   220    1
    41   223   224    1
    42   166   168    1
    43   209   208    2
    44   204   202    1
    45    55    54    1
    46   205   203    1
    47   211   208   am
    48   208   207    1
    49   224   225   ar
    50   224   226   ar
    51    56    54    1
    52   159   158   ar
    53   160   158   ar
    54   225   227   ar
    55    48    47   ar
    56   203   202    1
    57    54    51    1
    58   158   157    1
    59   202   199    1
    60   226   228   ar
    61    41    42    1
    62   206   207    1
    63   206   200   am
    64   207   210    1
    65   227   229   ar
    66   157   154    1
    67    47    46    1
    68    47    49   ar
    69   199   200    1
    70   199   198    1
    71    42    45    1
    72    42    43    1
    73    45    46    1
    74    51    50    1
    75    51    52    1
    76    81    79    1
    77   200   201    2
    78   228   229   ar
    79    40    39    1
    80   155   156    2
    81   155   154    1
    82    73    71    1
    83   154   153    1
    84    72    71    1
    85    52    53    2
    86    52    58   am
    87    43    44    2
    88    79    78    1
    89   190   191    1
    90    71    70    1
    91    39    38    1
    92    80    78    1
    93    58    59    1
    94   153   151   am
    95    78    75    1
    96   191   192    1
    97   191   194    1
    98    64    63    1
    99    64    65    1
   100    63    62    1
   101    75    74    1
   102    75    76    1
   103    38    37    1
   104    59    62    1
   105    59    60    1
   106    70    67    1
   107   197   195    1
   108    11    10    1
   109    11    12    2
   110   195   194    1
   111   195   196    1
   112    10     9    1
   113   151   152    2
   114   151   150    1
   115   193   192    2
   116    89    87    1
   117    87    86    1
   118    67    66    1
   119    67    68    1
   120    82    76   am
   121    82    83    1
   122   105   104    1
   123    60    61    2
   124    76    77    2
   125    37    36    1
   126     4     3    2
   127    88    86    1
   128    19    17    1
   129   150   149    1
   130    86    83    1
   131   104   103    1
   132     9     3   am
   133    85    84    2
   134    68    69    2
   135    83    84    1
   136     3     2    1
   137    13    14    1
   138    17    14    1
   139    17    18    1
   140    36    33    1
   141    14    15    1
   142   103   102    1
   143     2     5    1
   144     2     1    1
   145    33    34    1
   146    33    32    1
   147    34    35    2
   148     5     6    1
   149   148   147    1
   150    16    15    2
   151   102    99    1
   152    96    95    1
   153    97    95    1
   154   145   146    1
   155   145   142    1
   156   146   147    1
   157    32    27   am
   158    94    95    1
   159    94    91    1
   160   120   118    1
   161   119   118    1
   162   144   143    2
   163    90    91    1
   164     6     8    1
   165     6     7    1
   166   118   115    1
   167    28    27    2
   168    99    98    1
   169    99   100    1
   170    91    92    1
   171    27    26    1
   172   143   142    1
   173   142   141    1
   174    24    21    1
   175   101   100    2
   176   100   106   am
   177   141   131   am
   178   124   123    2
   179   115   114    1
   180   115   116    1
   181    26    25    1
   182    26    29    1
   183   106   107    1
   184    25    22   am
   185    92    93    2
   186   114   108   am
   187    23    22    2
   188    22    21    1
   189   109   108    2
   190   108   107    1
   191   137   135   ar
   192   137   139   ar
   193    21    20    1
   194   116   121   am
   195   116   117    2
   196   121   122    1
   197   131   130    1
   198   131   132    2
   199   135   134   ar
   200   123   122    1
   201   123   129   am
   202   107   110    1
   203   140   139    1
   204   128   126   ar
   205   125   122    1
   206   125   126    1
   207    30    29    1
   208   130   129    1
   209   130   133    1
   210    29    31    1
   211   139   138   ar
   212   126   127   ar
   213   134   133    1
   214   134   136   ar
   215   110   111    1
   216   110   112    1
   217   138   136   ar
   218   111   113    1
