@<TRIPOS>MOLECULE
tmp/6fioA00.pdb
 226 214 0 0 0
SMALL
GASTEIGER

@<TRIPOS>ATOM
      1  N         -6.0220   28.6530  -17.1520 N.3    19  LEU19      -0.1231
      2  CA        -6.5130   29.4190  -16.0040 C.3    19  LEU19       0.1696
      3  C         -7.0290   28.5010  -14.9120 C.2    19  LEU19       0.2632
      4  O         -7.0760   28.8830  -13.7410 O.2    19  LEU19      -0.2714
      5  CB        -7.6270   30.3860  -16.4130 C.3    19  LEU19       0.0284
      6  CG        -7.2840   31.6240  -17.2450 C.3    19  LEU19       0.0019
      7  CD1       -8.5590   32.3320  -17.6580 C.3    19  LEU19       0.0001
      8  CD2       -6.4030   32.5750  -16.4670 C.3    19  LEU19       0.0001
      9  N         -7.4400   27.2950  -15.2910 N.am   20  GLY20      -0.1718
     10  CA        -7.9390   26.3560  -14.3070 C.2    20  GLY20       0.1480
     11  C         -8.4450   25.0340  -14.8370 C.2    20  GLY20       0.2820
     12  O         -8.3870   24.7600  -16.0380 O.2    20  GLY20      -0.2669
     13  N         -8.9430   24.2160  -13.9130 N.am   21  GLU21      -0.1943
     14  CA        -9.4460   22.8820  -14.2070 C.3    21  GLU21       0.1605
     15  C        -10.8600   22.6950  -13.6680 C.2    21  GLU21       0.2287
     16  O        -11.4880   23.6330  -13.1710 O.2    21  GLU21      -0.2864
     17  CB        -8.5410   21.8140  -13.5910 C.3    21  GLU21       0.0415
     18  CG        -7.0690   22.1660  -13.5560 C.3    21  GLU21       0.1163
     19  CD        -6.2960   21.5310  -14.6900 C.2    21  GLU21       0.3649
     20  OE1       -6.9160   20.8090  -15.5020 O.co2  21  GLU21      -0.2457
     21  OE2       -5.0680   21.7480  -14.7680 O.co2  21  GLU21      -0.2457
     22  N        -15.3030   19.1230  -15.8070 N.3    24  PHE24      -0.1241
     23  CA       -15.7520   19.3180  -17.1780 C.3    24  PHE24       0.1605
     24  C        -14.5700   19.3310  -18.1350 C.2    24  PHE24       0.2264
     25  O        -14.6910   18.9760  -19.3060 O.2    24  PHE24      -0.2867
     26  CB       -16.5360   20.6280  -17.2930 C.3    24  PHE24       0.0534
     27  CG       -15.8170   21.8120  -16.7040 C.ar   24  PHE24      -0.0203
     28  CD1      -14.8650   22.5060  -17.4450 C.ar   24  PHE24      -0.0042
     29  CD2      -16.0840   22.2260  -15.4080 C.ar   24  PHE24      -0.0042
     30  CE1      -14.1930   23.5880  -16.9020 C.ar   24  PHE24      -0.0003
     31  CE2      -15.4180   23.3090  -14.8630 C.ar   24  PHE24      -0.0003
     32  CZ       -14.4720   23.9900  -15.6100 C.ar   24  PHE24      -0.0000
     33  N        -10.2330   25.5590  -18.2910 N.3    27  VAL27      -0.1245
     34  CA       -10.4990   26.9450  -18.6420 C.3    27  VAL27       0.1561
     35  C         -9.2010   27.5620  -19.1560 C.2    27  VAL27       0.2260
     36  O         -8.1870   27.5350  -18.4630 O.2    27  VAL27      -0.2867
     37  CB       -11.0540   27.7430  -17.4590 C.3    27  VAL27       0.0252
     38  CG1      -11.2710   29.2010  -17.8680 C.3    27  VAL27       0.0019
     39  CG2      -12.3590   27.1140  -16.9240 C.3    27  VAL27       0.0019
     40  N        -11.5490   34.4130  -21.5250 N.3    56  ALA56      -0.1245
     41  CA       -11.4820   33.1430  -20.7990 C.3    56  ALA56       0.1562
     42  C        -12.4160   32.1300  -21.4250 C.2    56  ALA56       0.2260
     43  O        -13.5870   32.4230  -21.6420 O.2    56  ALA56      -0.2867
     44  CB       -11.8270   33.3350  -19.3130 C.3    56  ALA56       0.0290
     45  N        -14.0910   28.3420  -21.2270 N.3    58  LYS58      -0.1245
     46  CA       -14.3900   27.0940  -20.5230 C.3    58  LYS58       0.1561
     47  C        -14.6440   25.9940  -21.5430 C.2    58  LYS58       0.2260
     48  O        -15.6000   26.0690  -22.3170 O.2    58  LYS58      -0.2867
     49  CB       -15.6000   27.2650  -19.5990 C.3    58  LYS58       0.0271
     50  CG       -16.0770   25.9930  -18.9050 C.3    58  LYS58       0.0035
     51  CD       -17.1080   26.3410  -17.8210 C.3    58  LYS58       0.0206
     52  CE       -17.6130   25.1060  -17.0900 C.3    58  LYS58       0.1093
     53  NZ       -18.4300   25.4410  -15.8860 N.3    58  LYS58      -0.1314
     54  N        -25.7420   24.1430  -19.1050 N.3    75  GLU75      -0.1245
     55  CA       -25.1090   25.3280  -18.5310 C.3    75  GLU75       0.1567
     56  C        -25.0310   26.4600  -19.5630 C.2    75  GLU75       0.2260
     57  O        -25.1960   27.6320  -19.2120 O.2    75  GLU75      -0.2867
     58  CB       -23.7120   25.0060  -17.9910 C.3    75  GLU75       0.0388
     59  CG       -23.2240   26.0000  -16.9330 C.3    75  GLU75       0.1160
     60  CD       -21.7600   25.8150  -16.5650 C.2    75  GLU75       0.3649
     61  OE1      -21.1350   24.8420  -17.0440 O.co2  75  GLU75      -0.2457
     62  OE2      -21.2340   26.6500  -15.7960 O.co2  75  GLU75      -0.2457
     63  N        -26.2890   30.0870  -18.6180 N.3    79  MET79      -0.1245
     64  CA       -25.4110   31.2470  -18.7420 C.3    79  MET79       0.1570
     65  C        -25.9670   32.2470  -19.7410 C.2    79  MET79       0.2261
     66  O        -25.7850   33.4500  -19.5910 O.2    79  MET79      -0.2867
     67  CB       -24.0010   30.8280  -19.1760 C.3    79  MET79       0.0387
     68  CG       -23.2030   30.0630  -18.1280 C.3    79  MET79       0.0595
     69  SD       -23.0230   30.9520  -16.5620 S.3    79  MET79      -0.1393
     70  CE       -22.1590   32.4190  -17.1190 C.3    79  MET79       0.0692
     71  N        -28.0820   35.0060  -18.2090 N.3    82  LEU82      -0.1245
     72  CA       -27.5460   35.8840  -17.1550 C.3    82  LEU82       0.1561
     73  C        -26.9350   37.1790  -17.6920 C.2    82  LEU82       0.2260
     74  O        -25.8140   37.1840  -18.2120 O.2    82  LEU82      -0.2867
     75  CB       -26.4960   35.1350  -16.3290 C.3    82  LEU82       0.0270
     76  CG       -27.0000   33.9000  -15.5840 C.3    82  LEU82       0.0019
     77  CD1      -25.8850   33.3120  -14.7520 C.3    82  LEU82       0.0001
     78  CD2      -28.2200   34.2490  -14.7260 C.3    82  LEU82       0.0001
     79  N        -22.2760   39.9610  -12.9140 N.3    87  ILE87      -0.1231
     80  CA       -22.3170   38.5190  -13.1190 C.3    87  ILE87       0.1692
     81  C        -21.4910   38.2010  -14.3580 C.2    87  ILE87       0.2591
     82  O        -21.5350   38.9420  -15.3510 O.2    87  ILE87      -0.2718
     83  CB       -23.7650   38.0030  -13.2760 C.3    87  ILE87       0.0266
     84  CG1      -24.6300   38.3710  -12.0510 C.3    87  ILE87       0.0019
     85  CG2      -23.7750   36.5020  -13.5210 C.3    87  ILE87       0.0020
     86  CD1      -24.1770   37.7550  -10.7310 C.3    87  ILE87       0.0001
     87  N        -20.7420   37.1050  -14.3030 N.am   88  ILE88      -0.1980
     88  CA       -19.9500   36.6490  -15.4370 C.3    88  ILE88       0.1595
     89  C        -20.8380   36.5230  -16.6780 C.2    88  ILE88       0.2287
     90  O        -21.8640   35.8390  -16.6510 O.2    88  ILE88      -0.2864
     91  CB       -19.2490   35.3150  -15.1100 C.3    88  ILE88       0.0276
     92  CG1      -17.9740   35.5740  -14.3180 C.3    88  ILE88       0.0022
     93  CG2      -18.9230   34.5300  -16.3870 C.3    88  ILE88       0.0022
     94  CD1      -16.9080   36.2550  -15.1230 C.3    88  ILE88       0.0001
     95  N        -21.6320   35.6530  -20.7750 N.3    90  LEU90      -0.1245
     96  CA       -21.2580   34.8310  -21.8970 C.3    90  LEU90       0.1561
     97  C        -21.0350   35.7250  -23.1200 C.2    90  LEU90       0.2260
     98  O        -21.9520   36.4180  -23.5620 O.2    90  LEU90      -0.2867
     99  CB       -22.3510   33.7950  -22.1330 C.3    90  LEU90       0.0270
    100  CG       -22.1380   32.6130  -23.0630 C.3    90  LEU90       0.0019
    101  CD1      -20.9930   31.7560  -22.5690 C.3    90  LEU90       0.0001
    102  CD2      -23.4270   31.8150  -23.1160 C.3    90  LEU90       0.0001
    103  N        -17.5480   27.8090  -23.9100 N.3   102  MET102     -0.1230
    104  CA       -18.2130   29.0260  -23.4660 C.3   102  MET102      0.1702
    105  C        -17.1690   30.1130  -23.2660 C.2   102  MET102      0.2592
    106  O        -16.1130   29.8690  -22.6790 O.2   102  MET102     -0.2718
    107  CB       -18.9950   28.7930  -22.1780 C.3   102  MET102      0.0401
    108  CG       -20.2560   27.9790  -22.3610 C.3   102  MET102      0.0596
    109  SD       -21.1170   27.8130  -20.7830 S.3   102  MET102     -0.1393
    110  CE       -20.2040   26.4490  -20.0620 C.3   102  MET102      0.0692
    111  N        -17.4520   31.3140  -23.7530 N.am  103  ILE103     -0.1966
    112  CA       -16.4430   32.3580  -23.7330 C.3   103  ILE103      0.1727
    113  C        -16.9040   33.5230  -22.8850 C.2   103  ILE103      0.2617
    114  O        -18.0530   33.9520  -22.9850 O.2   103  ILE103     -0.2715
    115  CB       -16.0990   32.8160  -25.1530 C.3   103  ILE103      0.0290
    116  CG1      -15.7030   31.6160  -26.0150 C.3   103  ILE103      0.0022
    117  CG2      -14.9660   33.8260  -25.1140 C.3   103  ILE103      0.0023
    118  CD1      -15.7580   31.8880  -27.4990 C.3   103  ILE103      0.0001
    119  N        -16.0090   34.0230  -22.0350 N.am  104  THR104     -0.1937
    120  CA       -16.3390   35.1300  -21.1550 C.3   104  THR104      0.2028
    121  C        -15.1860   36.1260  -21.1230 C.2   104  THR104      0.2642
    122  O        -14.1070   35.8370  -21.6480 O.2   104  THR104     -0.2714
    123  CB       -16.6630   34.6380  -19.7130 C.3   104  THR104      0.1808
    124  OG1      -17.2410   35.7110  -18.9630 O.3   104  THR104     -0.2208
    125  CG2      -15.4070   34.1790  -19.0030 C.3   104  THR104      0.0379
    126  N        -15.4290   37.2910  -20.5160 N.am  105  ASP105     -0.1957
    127  CA       -14.4210   38.3370  -20.3110 C.3   105  ASP105      0.1840
    128  C        -13.2310   37.8430  -19.5020 C.2   105  ASP105      0.2622
    129  O        -13.3660   36.9500  -18.6600 O.2   105  ASP105     -0.2715
    130  CB       -15.0200   39.5420  -19.5650 C.3   105  ASP105      0.1450
    131  CG       -16.2100   40.1470  -20.2720 C.2   105  ASP105      0.3671
    132  OD1      -16.0160   41.1050  -21.0480 O.co2 105  ASP105     -0.2456
    133  OD2      -17.3430   39.6830  -20.0340 O.co2 105  ASP105     -0.2456
    134  N        -12.0730   38.4550  -19.7210 N.am  106  TYR106     -0.1960
    135  CA       -10.9310   38.2020  -18.8550 C.3   106  TYR106      0.1771
    136  C        -10.8700   39.2510  -17.7450 C.2   106  TYR106      0.2619
    137  O        -10.8170   40.4570  -18.0080 O.2   106  TYR106     -0.2715
    138  CB        -9.6380   38.1900  -19.6620 C.3   106  TYR106      0.0574
    139  CG        -8.3670   38.0940  -18.8370 C.ar  106  TYR106     -0.0198
    140  CD1       -8.1070   36.9860  -18.0360 C.ar  106  TYR106     -0.0009
    141  CD2       -7.4120   39.1010  -18.8820 C.ar  106  TYR106     -0.0009
    142  CE1       -6.9260   36.8920  -17.2980 C.ar  106  TYR106      0.0417
    143  CE2       -6.2410   39.0170  -18.1510 C.ar  106  TYR106      0.0417
    144  CZ        -6.0000   37.9130  -17.3590 C.ar  106  TYR106      0.1957
    145  OH        -4.8300   37.8410  -16.6280 O.3   106  TYR106     -0.2866
    146  N        -10.9010   38.7800  -16.5040 N.am  107  MET107     -0.1977
    147  CA       -10.7200   39.6440  -15.3420 C.3   107  MET107      0.1605
    148  C         -9.2580   39.5900  -14.9030 C.2   107  MET107      0.2287
    149  O         -8.7940   38.5740  -14.3780 O.2   107  MET107     -0.2864
    150  CB       -11.6610   39.2150  -14.2280 C.3   107  MET107      0.0413
    151  CG       -13.0840   38.9980  -14.7300 C.3   107  MET107      0.0598
    152  SD       -13.8930   40.5380  -15.2000 S.3   107  MET107     -0.1393
    153  CE       -14.2760   41.1990  -13.5720 C.3   107  MET107      0.0692
    154  N         -7.9190   38.1680  -11.1340 N.3   110  GLY110     -0.1225
    155  CA        -8.2060   36.8740  -10.5360 C.3   110  GLY110      0.1811
    156  C         -9.2690   36.8950   -9.4530 C.2   110  GLY110      0.2280
    157  O        -10.1420   37.7680   -9.4400 O.2   110  GLY110     -0.2866
    158  N        -29.7290   38.2370   -9.5150 N.3   152  LEU152     -0.1245
    159  CA       -29.9840   36.8020   -9.5670 C.3   152  LEU152      0.1561
    160  C        -31.2950   36.4580   -8.8760 C.2   152  LEU152      0.2260
    161  O        -31.9710   35.5050   -9.2520 O.2   152  LEU152     -0.2867
    162  CB       -28.8420   36.0130   -8.9200 C.3   152  LEU152      0.0270
    163  CG       -27.4810   35.9910   -9.6200 C.3   152  LEU152      0.0019
    164  CD1      -26.5020   35.1000   -8.8580 C.3   152  LEU152      0.0001
    165  CD2      -27.6320   35.5250  -11.0490 C.3   152  LEU152      0.0001
    166  N        -32.9890   32.7170   -9.2740 N.3   157  PHE157     -0.1241
    167  CA       -31.7930   31.9070   -9.4670 C.3   157  PHE157      0.1605
    168  C        -31.0060   31.8140   -8.1610 C.2   157  PHE157      0.2264
    169  O        -30.5580   32.8280   -7.6250 O.2   157  PHE157     -0.2867
    170  CB       -30.9310   32.5030  -10.5880 C.3   157  PHE157      0.0534
    171  CG       -29.6520   31.7430  -10.8620 C.ar  157  PHE157     -0.0203
    172  CD1      -28.5240   31.9350  -10.0790 C.ar  157  PHE157     -0.0042
    173  CD2      -29.5790   30.8510  -11.9210 C.ar  157  PHE157     -0.0042
    174  CE1      -27.3540   31.2420  -10.3430 C.ar  157  PHE157     -0.0003
    175  CE2      -28.4120   30.1530  -12.1900 C.ar  157  PHE157     -0.0003
    176  CZ       -27.2960   30.3540  -11.4140 C.ar  157  PHE157     -0.0000
    177  N        -27.7120   30.6530   -6.1720 N.3   159  HIS159     -0.1241
    178  CA       -26.2920   30.4040   -6.4410 C.3   159  HIS159      0.1621
    179  C        -25.7440   29.1560   -5.7250 C.2   159  HIS159      0.2264
    180  O        -25.0600   28.3320   -6.3610 O.2   159  HIS159     -0.2867
    181  CB       -25.4750   31.6400   -6.0390 C.3   159  HIS159      0.0745
    182  CG       -24.0600   31.6130   -6.5250 C.ar  159  HIS159      0.0817
    183  ND1      -23.0780   30.8560   -5.9220 N.ar  159  HIS159     -0.2268
    184  CD2      -23.4650   32.2430   -7.5680 C.ar  159  HIS159      0.1154
    185  CE1      -21.9390   31.0200   -6.5710 C.ar  159  HIS159      0.1986
    186  NE2      -22.1460   31.8550   -7.5770 N.ar  159  HIS159     -0.2212
    187  N        -14.5740   37.4230   -9.1350 N.3   168  LEU168     -0.1245
    188  CA       -13.4300   37.8260   -9.9520 C.3   168  LEU168      0.1561
    189  C        -13.2630   39.3360   -9.9510 C.2   168  LEU168      0.2260
    190  O        -14.2470   40.0810   -9.8730 O.2   168  LEU168     -0.2867
    191  CB       -13.5940   37.3210  -11.3960 C.3   168  LEU168      0.0270
    192  CG       -13.5420   35.8020  -11.5560 C.3   168  LEU168      0.0019
    193  CD1      -13.8150   35.3660  -12.9890 C.3   168  LEU168      0.0001
    194  CD2      -12.1890   35.2830  -11.0820 C.3   168  LEU168      0.0001
    195  N        -19.5190   37.9510  -10.1820 N.3   177  ILE177     -0.1231
    196  CA       -19.7770   36.6880   -9.5070 C.3   177  ILE177      0.1692
    197  C        -19.6480   35.5220  -10.4850 C.2   177  ILE177      0.2592
    198  O        -20.1770   35.5570  -11.6220 O.2   177  ILE177     -0.2718
    199  CB       -21.1530   36.7230   -8.8300 C.3   177  ILE177      0.0266
    200  CG1      -21.1400   37.7950   -7.7310 C.3   177  ILE177      0.0019
    201  CG2      -21.4930   35.3740   -8.2300 C.3   177  ILE177      0.0020
    202  CD1      -22.5030   38.2190   -7.2550 C.3   177  ILE177      0.0001
    203  N        -18.9190   34.4940  -10.0580 N.am  178  ALA178     -0.1966
    204  CA       -18.7530   33.2920  -10.8740 C.3   178  ALA178      0.1728
    205  C        -19.1190   32.0700  -10.0470 C.2   178  ALA178      0.2616
    206  O        -19.7400   32.1970   -8.9900 O.2   178  ALA178     -0.2715
    207  CB       -17.3260   33.1830  -11.4000 C.3   178  ALA178      0.0334
    208  N        -18.7300   30.8920  -10.5250 N.am  179  ASP179     -0.1957
    209  CA       -19.0550   29.6420   -9.8450 C.3   179  ASP179      0.1840
    210  C        -18.0810   28.5490  -10.3000 C.2   179  ASP179      0.2622
    211  O        -18.3520   27.8150  -11.2610 O.2   179  ASP179     -0.2715
    212  CB       -20.5150   29.2570  -10.1240 C.3   179  ASP179      0.1450
    213  CG       -20.9880   28.0660   -9.3040 C.2   179  ASP179      0.3671
    214  OD1      -20.3350   27.7290   -8.2920 O.co2 179  ASP179     -0.2456
    215  OD2      -22.0250   27.4680   -9.6800 O.co2 179  ASP179     -0.2456
    216  N        -16.9450   28.4630   -9.6060 N.am  180  PHE180     -0.1974
    217  CA       -15.8260   27.6180  -10.0230 C.3   180  PHE180      0.1639
    218  C        -16.0450   26.1250   -9.7830 C.2   180  PHE180      0.2290
    219  O        -15.3080   25.2940  -10.3090 O.2   180  PHE180     -0.2864
    220  CB       -14.5450   28.0110   -9.2810 C.3   180  PHE180      0.0560
    221  CG       -13.8800   29.2660   -9.7790 C.ar  180  PHE180     -0.0200
    222  CD1      -14.3700   30.5200   -9.4310 C.ar  180  PHE180     -0.0042
    223  CD2      -12.7180   29.1890  -10.5410 C.ar  180  PHE180     -0.0042
    224  CE1      -13.7290   31.6790   -9.8650 C.ar  180  PHE180     -0.0003
    225  CE2      -12.0740   30.3350  -10.9770 C.ar  180  PHE180     -0.0003
    226  CZ       -12.5810   31.5820  -10.6420 C.ar  180  PHE180     -0.0000
@<TRIPOS>BOND
     1   118   116    1
     2   116   115    1
     3   115   117    1
     4   115   112    1
     5   103   104    1
     6   111   112    1
     7   111   105   am
     8   112   113    1
     9    98    97    2
    10   104   105    1
    11   104   107    1
    12   105   106    2
    13    97    96    1
    14   102   100    1
    15   100   101    1
    16   100    99    1
    17   114   113    2
    18   113   119   am
    19   108   107    1
    20   108   109    1
    21    48    47    2
    22    99    96    1
    23   119   120    1
    24    96    95    1
    25   122   121    2
    26    43    42    2
    27    47    46    1
    28    40    41    1
    29    42    41    1
    30    45    46    1
    31   120   121    1
    32   120   123    1
    33   121   126   am
    34   132   131   ar
    35    41    44    1
    36   109   110    1
    37    46    49    1
    38   126   127    1
    39   127   130    1
    40   127   128    1
    41   131   133   ar
    42   131   130    1
    43    65    66    2
    44    65    64    1
    45   134   128   am
    46   134   135    1
    47   123   125    1
    48   123   124    1
    49   138   135    1
    50   138   139    1
    51    49    50    1
    52    56    57    2
    53    56    55    1
    54   128   129    2
    55    25    24    2
    56    67    64    1
    57    67    68    1
    58    35    34    1
    59    35    36    2
    60    54    55    1
    61    50    51    1
    62   141   139   ar
    63   141   143   ar
    64   135   136    1
    65   139   140   ar
    66    64    63    1
    67    34    33    1
    68    34    37    1
    69    55    58    1
    70    74    73    2
    71    71    72    1
    72   143   144   ar
    73    24    23    1
    74    68    69    1
    75   140   142   ar
    76   137   136    2
    77    58    59    1
    78    38    37    1
    79    51    52    1
    80   136   146   am
    81    73    72    1
    82     7     6    1
    83    37    39    1
    84    28    30   ar
    85    28    27   ar
    86   144   142   ar
    87   144   145    1
    88    26    23    1
    89    26    27    1
    90     6     8    1
    91     6     5    1
    92    23    22    1
    93    72    75    1
    94     1     2    1
    95    70    69    1
    96    52    53    1
    97    61    60   ar
    98    59    60    1
    99    30    32   ar
   100    27    29   ar
   101    89    90    2
   102    89    88    1
   103    60    62   ar
   104   146   147    1
   105     5     2    1
   106    93    91    1
   107    75    76    1
   108    12    11    2
   109     2     3    1
   110    32    31   ar
   111    76    77    1
   112    76    78    1
   113    20    19   ar
   114    88    91    1
   115    88    87    1
   116    29    31   ar
   117    82    81    2
   118   147   148    1
   119   147   150    1
   120     9     3    1
   121     9    10    2
   122   152   151    1
   123   152   153    1
   124    94    92    1
   125    91    92    1
   126     3     4    2
   127   148   149    2
   128    11    10    1
   129    11    13   am
   130    21    19   ar
   131   151   150    1
   132    19    18    1
   133    81    87   am
   134    81    80    1
   135    14    13    1
   136    14    15    1
   137    14    17    1
   138    15    16    2
   139    17    18    1
   140    85    83    1
   141    83    80    1
   142    83    84    1
   143    80    79    1
   144   193   192    1
   145   175   173   ar
   146   175   176   ar
   147    84    86    1
   148   173   171   ar
   149   198   197    2
   150   192   191    1
   151   192   194    1
   152   176   174   ar
   153   207   204    1
   154   191   188    1
   155   211   210    2
   156   154   155    1
   157   165   163    1
   158   225   226   ar
   159   225   223   ar
   160   204   203    1
   161   204   205    1
   162   171   170    1
   163   171   172   ar
   164   226   224   ar
   165   170   167    1
   166   223   221   ar
   167   155   156    1
   168   208   205   am
   169   208   209    1
   170   197   203   am
   171   197   196    1
   172   174   172   ar
   173   219   218    2
   174   210   209    1
   175   210   216   am
   176   195   196    1
   177   212   209    1
   178   212   213    1
   179   205   206    2
   180   217   218    1
   181   217   216    1
   182   217   220    1
   183   188   189    1
   184   188   187    1
   185   189   190    2
   186   224   222   ar
   187   221   222   ar
   188   221   220    1
   189   215   213   ar
   190   163   162    1
   191   163   164    1
   192   159   158    1
   193   159   162    1
   194   159   160    1
   195   196   199    1
   196   167   166    1
   197   167   168    1
   198   156   157    2
   199   213   214   ar
   200   161   160    2
   201   199   201    1
   202   199   200    1
   203   168   169    2
   204   200   202    1
   205   186   184   ar
   206   186   185   ar
   207   184   182   ar
   208   185   183   ar
   209   182   181    1
   210   182   183   ar
   211   178   177    1
   212   178   181    1
   213   178   179    1
   214   180   179    2
