@<TRIPOS>MOLECULE
tmp/6fiqA00.pdb
 230 218 0 0 0
SMALL
GASTEIGER

@<TRIPOS>ATOM
      1  N        -15.4620   -4.6820    4.7070 N.3    16  LEU16      -0.1231
      2  CA       -14.9380   -3.6420    3.8070 C.3    16  LEU16       0.1696
      3  C        -15.2830   -2.2320    4.2720 C.2    16  LEU16       0.2632
      4  O        -14.6360   -1.2710    3.8580 O.2    16  LEU16      -0.2714
      5  CB       -15.4660   -3.8250    2.3770 C.3    16  LEU16       0.0284
      6  CG       -15.0870   -5.0870    1.6060 C.3    16  LEU16       0.0019
      7  CD1      -15.9670   -5.2270    0.3710 C.3    16  LEU16       0.0001
      8  CD2      -13.6150   -5.0660    1.2130 C.3    16  LEU16       0.0001
      9  N        -16.3000   -2.1010    5.1210 N.am   17  GLY17      -0.1718
     10  CA       -16.7260   -0.7850    5.5620 C.2    17  GLY17       0.1480
     11  C        -17.9050   -0.7790    6.5120 C.2    17  GLY17       0.2820
     12  O        -18.5780   -1.7770    6.7060 O.2    17  GLY17      -0.2669
     13  N        -18.1350    0.3690    7.1240 N.am   18  GLU18      -0.1943
     14  CA       -19.2260    0.5290    8.0540 C.3    18  GLU18       0.1605
     15  C        -19.8160    1.9060    7.8180 C.2    18  GLU18       0.2287
     16  O        -19.0770    2.8790    7.6980 O.2    18  GLU18      -0.2864
     17  CB       -18.7350    0.3640    9.4880 C.3    18  GLU18       0.0415
     18  CG       -19.8350    0.1050   10.4960 C.3    18  GLU18       0.1163
     19  CD       -19.2840   -0.2040   11.8770 C.2    18  GLU18       0.3649
     20  OE1      -18.1090   -0.6210   11.9670 O.co2  18  GLU18      -0.2457
     21  OE2      -20.0260   -0.0270   12.8690 O.co2  18  GLU18      -0.2457
     22  N        -20.4830   -3.3610    5.3550 N.3    24  VAL24      -0.1245
     23  CA       -20.2410   -3.9790    4.0730 C.3    24  VAL24       0.1561
     24  C        -19.1510   -5.0310    4.2050 C.2    24  VAL24       0.2260
     25  O        -18.0470   -4.7310    4.6800 O.2    24  VAL24      -0.2867
     26  CB       -19.8610   -2.9270    3.0280 C.3    24  VAL24       0.0252
     27  CG1      -19.5560   -3.5910    1.6960 C.3    24  VAL24       0.0019
     28  CG2      -20.9990   -1.8730    2.8730 C.3    24  VAL24       0.0019
     29  N        -19.6190   -7.5710   -2.9500 N.3    39  ALA39      -0.1231
     30  CA       -19.7280   -6.7690   -1.7370 C.3    39  ALA39       0.1694
     31  C        -21.1580   -6.8440   -1.2100 C.2    39  ALA39       0.2592
     32  O        -22.1190   -6.6640   -1.9610 O.2    39  ALA39      -0.2718
     33  CB       -19.3280   -5.3210   -2.0000 C.3    39  ALA39       0.0304
     34  N        -21.3120   -7.0870    0.0830 N.am   40  VAL40      -0.1966
     35  CA       -22.6560   -7.2960    0.6320 C.3    40  VAL40       0.1727
     36  C        -22.9270   -6.3710    1.8110 C.2    40  VAL40       0.2616
     37  O        -22.2270   -6.4130    2.8220 O.2    40  VAL40      -0.2715
     38  CB       -22.8510   -8.7660    1.0490 C.3    40  VAL40       0.0290
     39  CG1      -24.2680   -9.0020    1.5530 C.3    40  VAL40       0.0023
     40  CG2      -22.5240   -9.6990   -0.1150 C.3    40  VAL40       0.0023
     41  N        -23.9310   -5.5160    1.6810 N.am   41  LYS41      -0.1977
     42  CA       -24.2920   -4.6240    2.7750 C.3    41  LYS41       0.1596
     43  C        -25.4070   -5.2590    3.6050 C.2    41  LYS41       0.2287
     44  O        -26.4120   -5.7010    3.0610 O.2    41  LYS41      -0.2864
     45  CB       -24.7260   -3.2420    2.2510 C.3    41  LYS41       0.0298
     46  CG       -25.0710   -2.2750    3.3510 C.3    41  LYS41       0.0038
     47  CD       -25.1030   -0.8260    2.8330 C.3    41  LYS41       0.0206
     48  CE       -25.7320    0.0980    3.8570 C.3    41  LYS41       0.1093
     49  NZ       -25.6230    1.5400    3.4780 N.3    41  LYS41      -0.1314
     50  N        -33.1700    2.4610    1.3030 N.3    58  GLU58      -0.1245
     51  CA       -32.0360    2.4860    0.3930 C.3    58  GLU58       0.1567
     52  C        -32.2050    1.4580   -0.6970 C.2    58  GLU58       0.2260
     53  O        -31.7940    1.6940   -1.8270 O.2    58  GLU58      -0.2867
     54  CB       -30.7020    2.2430    1.1170 C.3    58  GLU58       0.0388
     55  CG       -29.4970    2.4500    0.1880 C.3    58  GLU58       0.1160
     56  CD       -28.1640    2.5490    0.9190 C.2    58  GLU58       0.3649
     57  OE1      -27.6560    1.5160    1.4030 O.co2  58  GLU58      -0.2457
     58  OE2      -27.6240    3.6700    1.0140 O.co2  58  GLU58      -0.2457
     59  N        -34.1790    3.1560   -3.3580 N.3    61  ILE61      -0.1231
     60  CA       -33.3670    4.1130   -4.0870 C.3    61  ILE61       0.1692
     61  C        -32.4360    3.3940   -5.0630 C.2    61  ILE61       0.2591
     62  O        -32.3580    3.7490   -6.2420 O.2    61  ILE61      -0.2718
     63  CB       -32.5690    4.9990   -3.1050 C.3    61  ILE61       0.0266
     64  CG1      -33.5340    5.7870   -2.2070 C.3    61  ILE61       0.0019
     65  CG2      -31.6170    5.9030   -3.8680 C.3    61  ILE61       0.0020
     66  CD1      -32.8890    6.4210   -0.9860 C.3    61  ILE61       0.0001
     67  N        -31.7350    2.3790   -4.5660 N.am   62  MET62      -0.1979
     68  CA       -30.7680    1.6470   -5.3810 C.3    62  MET62       0.1605
     69  C        -31.4280    0.8990   -6.5400 C.2    62  MET62       0.2287
     70  O        -30.8190    0.7000   -7.5880 O.2    62  MET62      -0.2864
     71  CB       -29.9750    0.6610   -4.5130 C.3    62  MET62       0.0413
     72  CG       -29.1530    1.3210   -3.4280 C.3    62  MET62       0.0598
     73  SD       -27.8930    2.4630   -4.0730 S.3    62  MET62      -0.1393
     74  CE       -26.9400    1.3720   -5.0950 C.3    62  MET62       0.0692
     75  N        -31.2080    2.5480  -10.0020 N.3    65  LEU65      -0.1245
     76  CA       -29.9200    2.8460  -10.6290 C.3    65  LEU65       0.1561
     77  C        -29.3320    1.7130  -11.4540 C.2    65  LEU65       0.2260
     78  O        -28.9660    0.6720  -10.9220 O.2    65  LEU65      -0.2867
     79  CB       -28.9130    3.2590   -9.5530 C.3    65  LEU65       0.0270
     80  CG       -29.4230    4.4240   -8.7060 C.3    65  LEU65       0.0019
     81  CD1      -28.5720    4.6130   -7.4610 C.3    65  LEU65       0.0001
     82  CD2      -29.4470    5.6920   -9.5340 C.3    65  LEU65       0.0001
     83  N        -22.3180    3.7450  -12.1740 N.3    70  ILE70      -0.1231
     84  CA       -22.9650    3.8940  -10.8750 C.3    70  ILE70       0.1692
     85  C        -23.0280    2.5250  -10.1940 C.2    70  ILE70       0.2591
     86  O        -23.1870    1.5130  -10.8730 O.2    70  ILE70      -0.2718
     87  CB       -24.3920    4.5040  -11.0270 C.3    70  ILE70       0.0266
     88  CG1      -24.3420    5.8080  -11.8230 C.3    70  ILE70       0.0019
     89  CG2      -25.0390    4.7180   -9.6640 C.3    70  ILE70       0.0020
     90  CD1      -23.6140    6.9190  -11.1260 C.3    70  ILE70       0.0001
     91  N        -22.9060    2.4870   -8.8640 N.am   71  ILE71      -0.1980
     92  CA       -23.1560    1.2620   -8.0930 C.3    71  ILE71       0.1595
     93  C        -24.4920    0.6310   -8.5020 C.2    71  ILE71       0.2287
     94  O        -25.5010    1.3290   -8.5720 O.2    71  ILE71      -0.2864
     95  CB       -23.1710    1.5390   -6.5790 C.3    71  ILE71       0.0276
     96  CG1      -21.8030    1.9970   -6.0980 C.3    71  ILE71       0.0022
     97  CG2      -23.5970    0.3100   -5.8040 C.3    71  ILE71       0.0022
     98  CD1      -20.6900    1.0220   -6.4140 C.3    71  ILE71       0.0001
     99  N        -27.2560   -2.7670   -7.7670 N.3    73  LEU73      -0.1245
    100  CA       -27.6470   -3.9470   -7.0090 C.3    73  LEU73       0.1561
    101  C        -27.5990   -5.1690   -7.9090 C.2    73  LEU73       0.2260
    102  O        -28.3090   -5.2330   -8.9050 O.2    73  LEU73      -0.2867
    103  CB       -29.0520   -3.8010   -6.4310 C.3    73  LEU73       0.0270
    104  CG       -29.2950   -2.7230   -5.3790 C.3    73  LEU73       0.0019
    105  CD1      -30.7180   -2.8120   -4.8410 C.3    73  LEU73       0.0001
    106  CD2      -28.2680   -2.8450   -4.2690 C.3    73  LEU73       0.0001
    107  N        -28.0380   -6.3030    0.7030 N.3    85  MET85      -0.1245
    108  CA       -27.9220   -5.7680   -0.6440 C.3    85  MET85       0.1570
    109  C        -26.6050   -6.2470   -1.2210 C.2    85  MET85       0.2261
    110  O        -25.5860   -6.2610   -0.5150 O.2    85  MET85      -0.2867
    111  CB       -27.9770   -4.2420   -0.6460 C.3    85  MET85       0.0387
    112  CG       -29.3820   -3.6790   -0.5860 C.3    85  MET85       0.0595
    113  SD       -29.3550   -1.8710   -0.6840 S.3    85  MET85      -0.1393
    114  CE       -28.9140   -1.4580    1.0070 C.3    85  MET85       0.0692
    115  N        -23.6900   -6.0260   -4.3620 N.3    87  THR87      -0.1203
    116  CA       -23.1020   -5.3140   -5.4970 C.3    87  THR87       0.1994
    117  C        -21.7520   -5.9130   -5.9060 C.2    87  THR87       0.2618
    118  O        -21.2100   -6.7700   -5.2090 O.2    87  THR87      -0.2717
    119  CB       -22.9080   -3.8050   -5.1720 C.3    87  THR87       0.1784
    120  OG1      -22.6100   -3.0860   -6.3770 O.3    87  THR87      -0.2211
    121  CG2      -21.7770   -3.6090   -4.1730 C.3    87  THR87       0.0376
    122  N        -21.2150   -5.4470   -7.0340 N.am   88  ASP88      -0.1959
    123  CA       -19.8970   -5.8620   -7.5110 C.3    88  ASP88       0.1840
    124  C        -18.8060   -5.4890   -6.5270 C.2    88  ASP88       0.2622
    125  O        -18.8090   -4.4130   -5.9370 O.2    88  ASP88      -0.2715
    126  CB       -19.5580   -5.2210   -8.8650 C.3    88  ASP88       0.1450
    127  CG       -20.5790   -5.5310   -9.9360 C.2    88  ASP88       0.3671
    128  OD1      -20.5010   -6.6280  -10.5290 O.co2  88  ASP88      -0.2456
    129  OD2      -21.4570   -4.6690  -10.1890 O.co2  88  ASP88      -0.2456
    130  N        -17.8570   -6.3870   -6.3670 N.am   89  TYR89      -0.1960
    131  CA       -16.6540   -6.0670   -5.6410 C.3    89  TYR89       0.1771
    132  C        -15.7080   -5.2560   -6.5330 C.2    89  TYR89       0.2619
    133  O        -15.3730   -5.6560   -7.6360 O.2    89  TYR89      -0.2715
    134  CB       -15.9970   -7.3470   -5.1490 C.3    89  TYR89       0.0574
    135  CG       -14.6510   -7.1370   -4.5230 C.ar   89  TYR89      -0.0198
    136  CD1      -14.4830   -6.2470   -3.4700 C.ar   89  TYR89      -0.0009
    137  CD2      -13.5430   -7.8540   -4.9640 C.ar   89  TYR89      -0.0009
    138  CE1      -13.2280   -6.0640   -2.8810 C.ar   89  TYR89       0.0417
    139  CE2      -12.2990   -7.6740   -4.3940 C.ar   89  TYR89       0.0417
    140  CZ       -12.1480   -6.7850   -3.3500 C.ar   89  TYR89       0.1957
    141  OH       -10.8960   -6.6100   -2.7830 O.3    89  TYR89      -0.2866
    142  N        -15.3070   -4.0960   -6.0420 N.am   90  MET90      -0.1977
    143  CA       -14.3820   -3.2080   -6.7410 C.3    90  MET90       0.1605
    144  C        -13.0410   -3.3350   -6.0540 C.2    90  MET90       0.2287
    145  O        -12.8420   -2.7780   -4.9730 O.2    90  MET90      -0.2864
    146  CB       -14.8950   -1.7660   -6.6990 C.3    90  MET90       0.0413
    147  CG       -16.3370   -1.6650   -7.1570 C.3    90  MET90       0.0598
    148  SD       -16.4110   -1.9470   -8.9320 S.3    90  MET90      -0.1393
    149  CE       -15.8750   -0.3380   -9.5270 C.3    90  MET90       0.0692
    150  N        -10.6470   -0.4220   -4.4170 N.3    93  GLY93      -0.1210
    151  CA       -11.1310    0.4250   -3.3370 C.3    93  GLY93       0.1956
    152  C        -11.4810    1.8350   -3.7730 C.2    93  GLY93       0.2611
    153  O        -11.8140    2.0530   -4.9430 O.2    93  GLY93      -0.2717
    154  N        -11.3990    2.8020   -2.8590 N.am   94  ASP94      -0.1973
    155  CA       -11.8750    4.1330   -3.2120 C.3    94  ASP94       0.1709
    156  C        -10.8420    4.8670   -4.0510 C.2    94  ASP94       0.2293
    157  O         -9.6270    4.6170   -3.9680 O.2    94  ASP94      -0.2864
    158  CB       -12.3390    4.9250   -1.9580 C.3    94  ASP94       0.1436
    159  CG       -11.2420    5.7250   -1.2540 C.2    94  ASP94       0.3671
    160  OD1      -10.5100    6.5310   -1.8820 O.co2  94  ASP94      -0.2456
    161  OD2      -11.1800    5.5970   -0.0080 O.co2  94  ASP94      -0.2456
    162  N        -27.3030   10.0960  -13.7380 N.3   137  LEU137     -0.1245
    163  CA       -28.0980   10.5250  -12.5850 C.3   137  LEU137      0.1561
    164  C        -28.9050   11.7850  -12.8920 C.2   137  LEU137      0.2260
    165  O        -30.0230   11.9340  -12.3970 O.2   137  LEU137     -0.2867
    166  CB       -27.2070   10.7730  -11.3650 C.3   137  LEU137      0.0270
    167  CG       -26.4790    9.5650  -10.7660 C.3   137  LEU137      0.0019
    168  CD1      -25.6070    9.9950   -9.5940 C.3   137  LEU137      0.0001
    169  CD2      -27.4510    8.5040  -10.3250 C.3   137  LEU137      0.0001
    170  N        -31.7970   12.8070  -10.2480 N.3   142  PHE142     -0.1241
    171  CA       -31.2360   12.3760   -8.9800 C.3   142  PHE142      0.1605
    172  C        -30.0810   13.3070   -8.6210 C.2   142  PHE142      0.2264
    173  O        -29.1200   13.4320   -9.3920 O.2   142  PHE142     -0.2867
    174  CB       -30.7510   10.9230   -9.0810 C.3   142  PHE142      0.0534
    175  CG       -30.3230   10.3350   -7.7770 C.ar  142  PHE142     -0.0203
    176  CD1      -29.0350   10.5380   -7.2980 C.ar  142  PHE142     -0.0042
    177  CD2      -31.2060    9.5710   -7.0270 C.ar  142  PHE142     -0.0042
    178  CE1      -28.6470    9.9950   -6.0950 C.ar  142  PHE142     -0.0003
    179  CE2      -30.8170    9.0220   -5.8270 C.ar  142  PHE142     -0.0003
    180  CZ       -29.5460    9.2420   -5.3580 C.ar  142  PHE142     -0.0000
    181  N        -26.9800   14.0240   -6.2210 N.3   144  HIS144     -0.1241
    182  CA       -26.0930   13.1950   -5.3990 C.3   144  HIS144      0.1621
    183  C        -25.7570   13.8400   -4.0520 C.2   144  HIS144      0.2264
    184  O        -25.8450   13.1920   -3.0160 O.2   144  HIS144     -0.2867
    185  CB       -24.7940   12.8960   -6.1690 C.3   144  HIS144      0.0745
    186  CG       -23.8930   11.9100   -5.4890 C.ar  144  HIS144      0.0817
    187  ND1      -23.1240   12.2330   -4.3940 N.ar  144  HIS144     -0.2268
    188  CD2      -23.6340   10.6060   -5.7620 C.ar  144  HIS144      0.1154
    189  CE1      -22.4390   11.1670   -4.0100 C.ar  144  HIS144      0.1986
    190  NE2      -22.7320   10.1690   -4.8220 N.ar  144  HIS144     -0.2212
    191  N        -15.5000    4.3210   -6.5050 N.3   153  LEU153     -0.1245
    192  CA       -14.8410    3.0230   -6.3700 C.3   153  LEU153      0.1561
    193  C        -14.1280    2.6730   -7.6570 C.2   153  LEU153      0.2260
    194  O        -14.5730    3.0600   -8.7430 O.2   153  LEU153     -0.2867
    195  CB       -15.8490    1.9250   -6.0320 C.3   153  LEU153      0.0270
    196  CG       -16.5420    2.0830   -4.6840 C.3   153  LEU153      0.0019
    197  CD1      -17.5880    1.0000   -4.4810 C.3   153  LEU153      0.0001
    198  CD2      -15.5090    2.0270   -3.5910 C.3   153  LEU153      0.0001
    199  N        -19.5480    5.4510   -9.1960 N.3   162  ILE162     -0.1231
    200  CA       -19.9530    6.4140   -8.1740 C.3   162  ILE162      0.1692
    201  C        -20.7640    5.7170   -7.0850 C.2   162  ILE162      0.2592
    202  O        -21.7020    4.9660   -7.3770 O.2   162  ILE162     -0.2718
    203  CB       -20.7690    7.5600   -8.7940 C.3   162  ILE162      0.0266
    204  CG1      -19.9660    8.2500   -9.8960 C.3   162  ILE162      0.0019
    205  CG2      -21.2170    8.5700   -7.7220 C.3   162  ILE162      0.0020
    206  CD1      -20.7130    9.3320  -10.5910 C.3   162  ILE162      0.0001
    207  N        -20.4060    5.9730   -5.8350 N.am  163  ALA163     -0.1966
    208  CA       -21.1360    5.4580   -4.6800 C.3   163  ALA163      0.1728
    209  C        -21.4350    6.6110   -3.7210 C.2   163  ALA163      0.2616
    210  O        -21.3260    7.7710   -4.0960 O.2   163  ALA163     -0.2715
    211  CB       -20.3350    4.3580   -3.9730 C.3   163  ALA163      0.0334
    212  N        -21.8120    6.2980   -2.4870 N.am  164  ASP164     -0.1957
    213  CA       -22.0770    7.3390   -1.5000 C.3   164  ASP164      0.1840
    214  C        -21.9700    6.7620   -0.0950 C.2   164  ASP164      0.2622
    215  O        -22.9700    6.3610    0.5150 O.2   164  ASP164     -0.2715
    216  CB       -23.4600    7.9700   -1.7270 C.3   164  ASP164      0.1450
    217  CG       -23.7170    9.1490   -0.7990 C.2   164  ASP164      0.3671
    218  OD1      -22.7500    9.6440   -0.1810 O.co2 164  ASP164     -0.2456
    219  OD2      -24.8820    9.5920   -0.6920 O.co2 164  ASP164     -0.2456
    220  N        -20.7440    6.7380    0.4230 N.am  165  PHE165     -0.1974
    221  CA       -20.4530    6.0600    1.6820 C.3   165  PHE165      0.1639
    222  C        -21.1490    6.7280    2.8690 C.2   165  PHE165      0.2290
    223  O        -21.3080    6.1280    3.9320 O.2   165  PHE165     -0.2864
    224  CB       -18.9560    6.0430    1.9510 C.3   165  PHE165      0.0560
    225  CG       -18.1570    5.1070    1.0730 C.ar  165  PHE165     -0.0200
    226  CD1      -17.9830    5.3610   -0.2790 C.ar  165  PHE165     -0.0042
    227  CD2      -17.5040    4.0250    1.6290 C.ar  165  PHE165     -0.0042
    228  CE1      -17.1840    4.5380   -1.0620 C.ar  165  PHE165     -0.0003
    229  CE2      -16.7080    3.1950    0.8520 C.ar  165  PHE165     -0.0003
    230  CZ       -16.5460    3.4540   -0.4920 C.ar  165  PHE165     -0.0000
@<TRIPOS>BOND
     1   162   163    1
     2   164   163    1
     3   164   165    2
     4   163   166    1
     5    83    84    1
     6    88    90    1
     7    88    87    1
     8    77    78    2
     9    77    76    1
    10   166   167    1
    11    87    84    1
    12    87    89    1
    13    84    85    1
    14    86    85    2
    15   167   169    1
    16   167   168    1
    17    76    75    1
    18    76    79    1
    19   206   204    1
    20   128   127   ar
    21   170   171    1
    22    85    91   am
    23   129   127   ar
    24   127   126    1
    25   204   203    1
    26    79    80    1
    27    82    80    1
    28   149   148    1
    29   173   172    2
    30   199   200    1
    31   174   171    1
    32   174   175    1
    33   171   172    1
    34   148   147    1
    35   102   101    2
    36   126   123    1
    37    91    92    1
    38   203   200    1
    39   203   205    1
    40   194   193    2
    41    80    81    1
    42    94    93    2
    43    93    92    1
    44   200   201    1
    45    92    95    1
    46   101   100    1
    47   175   176   ar
    48   175   177   ar
    49    99   100    1
    50   193   192    1
    51   133   132    2
    52    70    69    2
    53   123   122    1
    54   123   124    1
    55   202   201    2
    56   176   178   ar
    57   147   146    1
    58   201   207   am
    59   122   117   am
    60   177   179   ar
    61   100   103    1
    62   143   146    1
    63   143   144    1
    64   143   142    1
    65    95    96    1
    66    95    97    1
    67    69    68    1
    68   132   142   am
    69   132   131    1
    70   124   130   am
    71   124   125    2
    72   191   192    1
    73   103   104    1
    74    98    96    1
    75   120   119    1
    76   192   195    1
    77   130   131    1
    78    62    61    2
    79   181   182    1
    80   185   186    1
    81   185   182    1
    82   178   180   ar
    83   144   145    2
    84   195   196    1
    85   117   116    1
    86   117   118    2
    87   207   208    1
    88   179   180   ar
    89   188   186   ar
    90   188   190   ar
    91   131   134    1
    92   116   119    1
    93   116   115    1
    94   186   187   ar
    95   182   183    1
    96    68    67    1
    97    68    71    1
    98   104   105    1
    99   104   106    1
   100   119   121    1
   101   134   135    1
   102    74    73    1
   103    61    67   am
   104    61    60    1
   105   137   135   ar
   106   137   139   ar
   107   153   152    2
   108   190   189   ar
   109   196   197    1
   110   196   198    1
   111   208   211    1
   112   208   209    1
   113   135   136   ar
   114    71    72    1
   115   150   151    1
   116   139   140   ar
   117   187   189   ar
   118   210   209    2
   119    60    59    1
   120    60    63    1
   121    73    72    1
   122   183   184    2
   123   156   157    2
   124   156   155    1
   125    65    63    1
   126   152   151    1
   127   152   154   am
   128   209   212   am
   129   136   138   ar
   130   140   138   ar
   131   140   141    1
   132   155   154    1
   133   155   158    1
   134    63    64    1
   135    29    30    1
   136   212   213    1
   137    64    66    1
   138    33    30    1
   139    32    31    2
   140   158   159    1
   141   160   159   ar
   142    53    52    2
   143    30    31    1
   144   216   213    1
   145   216   217    1
   146   213   214    1
   147   159   161   ar
   148   109   108    1
   149   109   110    2
   150    31    34   am
   151   228   230   ar
   152   228   226   ar
   153   217   219   ar
   154   217   218   ar
   155    52    51    1
   156   113   112    1
   157   113   114    1
   158   111   108    1
   159   111   112    1
   160   108   107    1
   161   230   229   ar
   162   226   225   ar
   163    40    38    1
   164   214   220   am
   165   214   215    2
   166    34    35    1
   167    55    56    1
   168    55    54    1
   169     7     6    1
   170    51    54    1
   171    51    50    1
   172   220   221    1
   173    35    38    1
   174    35    36    1
   175   229   227   ar
   176    56    58   ar
   177    56    57   ar
   178    38    39    1
   179   225   227   ar
   180   225   224    1
   181     8     6    1
   182     6     5    1
   183    41    36   am
   184    41    42    1
   185   221   224    1
   186   221   222    1
   187    27    26    1
   188    36    37    2
   189    45    42    1
   190    45    46    1
   191     5     2    1
   192    42    43    1
   193    47    46    1
   194    47    48    1
   195   222   223    2
   196    28    26    1
   197    26    23    1
   198    44    43    2
   199    49    48    1
   200     2     3    1
   201     2     1    1
   202     4     3    2
   203    23    24    1
   204    23    22    1
   205    24    25    2
   206     3     9    1
   207     9    10    2
   208    10    11    1
   209    11    12    2
   210    11    13   am
   211    13    14    1
   212    16    15    2
   213    15    14    1
   214    14    17    1
   215    17    18    1
   216    18    19    1
   217    19    20   ar
   218    19    21   ar
