@<TRIPOS>MOLECULE
tmp/6fj0A00.pdb
 131 120 0 0 0
SMALL
GASTEIGER

@<TRIPOS>ATOM
      1  N        -19.4830   22.0640   38.3450 N.3    21  ILE21      -0.1231
      2  CA       -19.1250   21.5950   39.6770 C.3    21  ILE21       0.1692
      3  C        -17.8990   22.3260   40.2110 C.2    21  ILE21       0.2593
      4  O        -17.9380   22.9120   41.2920 O.2    21  ILE21      -0.2718
      5  CB       -18.8970   20.0660   39.6900 C.3    21  ILE21       0.0266
      6  CG1      -20.1820   19.3130   39.3500 C.3    21  ILE21       0.0019
      7  CG2      -18.3780   19.6210   41.0580 C.3    21  ILE21       0.0020
      8  CD1      -20.0260   17.8040   39.4330 C.3    21  ILE21       0.0001
      9  N        -16.8000   22.2930   39.4680 N.am   22  GLY22      -0.1942
     10  CA       -15.5420   22.8550   39.9330 C.3    22  GLY22       0.2014
     11  C        -14.5720   22.9730   38.7810 C.2    22  GLY22       0.2639
     12  O        -14.8370   22.5130   37.6670 O.2    22  GLY22      -0.2714
     13  N        -13.4270   23.5900   39.0670 N.am   23  GLU23      -0.1963
     14  CA       -12.4620   23.9390   38.0310 C.3    23  GLU23       0.1733
     15  C        -11.0700   23.4360   38.3960 C.2    23  GLU23       0.2616
     16  O        -10.8600   22.7880   39.4260 O.2    23  GLU23      -0.2715
     17  CB       -12.4350   25.4530   37.7920 C.3    23  GLU23       0.0429
     18  CG       -13.3090   25.9060   36.6450 C.3    23  GLU23       0.1163
     19  CD       -13.4380   27.4120   36.5800 C.2    23  GLU23       0.3649
     20  OE1      -14.2920   27.9690   37.3010 O.co2  23  GLU23      -0.2457
     21  OE2      -12.6770   28.0390   35.8140 O.co2  23  GLU23      -0.2457
     22  N        -10.1230   23.7410   37.5160 N.am   24  GLY24      -0.1955
     23  CA        -8.7310   23.4090   37.7060 C.3    24  GLY24       0.1869
     24  C         -7.8680   24.2930   36.8320 C.2    24  GLY24       0.2309
     25  O         -8.3570   25.2160   36.1760 O.2    24  GLY24      -0.2863
     26  N        -14.7490   20.6120   35.7660 N.3    29  VAL29      -0.1245
     27  CA       -15.5720   19.4500   36.0840 C.3    29  VAL29       0.1561
     28  C        -17.0320   19.8770   36.0930 C.2    29  VAL29       0.2260
     29  O        -17.3900   20.8650   36.7440 O.2    29  VAL29      -0.2867
     30  CB       -15.1770   18.8210   37.4300 C.3    29  VAL29       0.0252
     31  CG1      -16.0970   17.6570   37.7450 C.3    29  VAL29       0.0019
     32  CG2      -13.7300   18.3600   37.3920 C.3    29  VAL29       0.0019
     33  N        -20.4010   12.5710   36.3280 N.3    42  ALA42      -0.1245
     34  CA       -19.3950   13.6190   36.3580 C.3    42  ALA42       0.1562
     35  C        -18.5480   13.5290   35.1000 C.2    42  ALA42       0.2260
     36  O        -18.2390   12.4290   34.6320 O.2    42  ALA42      -0.2867
     37  CB       -18.4960   13.4900   37.5900 C.3    42  ALA42       0.0290
     38  N        -14.9890   15.3020   33.4950 N.3    44  LYS44      -0.1245
     39  CA       -13.8250   16.1560   33.6820 C.3    44  LYS44       0.1561
     40  C        -13.2300   16.4750   32.3140 C.2    44  LYS44       0.2260
     41  O        -12.7720   15.5710   31.6140 O.2    44  LYS44      -0.2867
     42  CB       -12.7730   15.4800   34.5620 C.3    44  LYS44       0.0271
     43  CG       -13.2720   14.9840   35.9050 C.3    44  LYS44       0.0035
     44  CD       -12.0960   14.6100   36.8010 C.3    44  LYS44       0.0206
     45  CE       -11.1590   13.6250   36.1100 C.3    44  LYS44       0.1093
     46  NZ       -10.0190   13.2250   36.9880 N.3    44  LYS44      -0.1314
     47  N        -12.1820    5.3040   42.1370 N.3    74  ILE74      -0.1245
     48  CA       -13.0910    5.8250   41.1200 C.3    74  ILE74       0.1561
     49  C        -12.7650    5.1680   39.7830 C.2    74  ILE74       0.2260
     50  O        -11.5980    4.9680   39.4240 O.2    74  ILE74      -0.2867
     51  CB       -13.0040    7.3600   41.0380 C.3    74  ILE74       0.0252
     52  CG1      -14.1690    7.9450   40.2130 C.3    74  ILE74       0.0019
     53  CG2      -11.6600    7.7990   40.4220 C.3    74  ILE74       0.0019
     54  CD1      -15.5240    7.8090   40.8960 C.3    74  ILE74       0.0001
     55  N        -17.0470    9.8770   34.8270 N.3    95  GLN95      -0.1231
     56  CA       -16.9990    9.0720   36.0430 C.3    95  GLN95       0.1698
     57  C        -18.3650    9.0950   36.7160 C.2    95  GLN95       0.2592
     58  O        -19.1950    9.9630   36.4300 O.2    95  GLN95      -0.2718
     59  CB       -15.9300    9.5970   37.0100 C.3    95  GLN95       0.0381
     60  CG       -14.5310    9.6330   36.4180 C.3    95  GLN95       0.0905
     61  CD       -13.4830   10.1690   37.3880 C.2    95  GLN95       0.2608
     62  OE1      -13.7440   11.0950   38.1530 O.2    95  GLN95      -0.2717
     63  NE2      -12.2970    9.5740   37.3710 N.am   95  GLN95      -0.0878
     64  N        -18.5860    8.1330   37.6220 N.am   96  ASP96      -0.1960
     65  CA       -19.7360    8.2140   38.5190 C.3    96  ASP96       0.1840
     66  C        -19.7610    9.5770   39.1960 C.2    96  ASP96       0.2622
     67  O        -18.7230   10.0990   39.6130 O.2    96  ASP96      -0.2715
     68  CB       -19.6790    7.1270   39.6020 C.3    96  ASP96       0.1450
     69  CG       -19.7400    5.7230   39.0440 C.2    96  ASP96       0.3671
     70  OD1      -20.2870    5.5290   37.9360 O.co2  96  ASP96      -0.2456
     71  OD2      -19.2500    4.8060   39.7410 O.co2  96  ASP96      -0.2456
     72  N        -20.9540   10.1450   39.3190 N.am   97  LEU97      -0.1963
     73  CA       -21.1230   11.4210   39.9970 C.3    97  LEU97       0.1728
     74  C        -21.0870   11.1990   41.5070 C.2    97  LEU97       0.2616
     75  O        -21.8740   10.4130   42.0430 O.2    97  LEU97      -0.2715
     76  CB       -22.4340   12.0750   39.5700 C.3    97  LEU97       0.0311
     77  CG       -22.7780   13.4160   40.2240 C.3    97  LEU97       0.0022
     78  CD1      -21.7190   14.4580   39.9360 C.3    97  LEU97       0.0001
     79  CD2      -24.1490   13.9110   39.7740 C.3    97  LEU97       0.0001
     80  N        -20.1630   11.8690   42.1840 N.am   98  MET98      -0.1977
     81  CA       -20.0540   11.7880   43.6310 C.3    98  MET98       0.1605
     82  C        -20.5670   13.0850   44.2530 C.2    98  MET98       0.2287
     83  O        -20.3820   14.1660   43.6900 O.2    98  MET98      -0.2864
     84  CB       -18.6030   11.5010   44.0310 C.3    98  MET98       0.0413
     85  CG       -18.0200   10.2460   43.3410 C.3    98  MET98       0.0598
     86  SD       -18.7730    8.6630   43.8450 S.3    98  MET98      -0.1393
     87  CE       -17.8330    8.3050   45.3140 C.3    98  MET98       0.0692
     88  N        -19.7280   14.7570   47.0220 N.3   100  THR100     -0.1203
     89  CA       -18.7740   15.6730   47.6340 C.3   100  THR100      0.1994
     90  C        -17.4080   14.9850   47.6790 C.2   100  THR100      0.2617
     91  O        -17.2200   13.8980   47.1250 O.2   100  THR100     -0.2717
     92  CB       -19.2750   16.0900   49.0280 C.3   100  THR100      0.1784
     93  OG1      -18.4500   17.1240   49.5740 O.3   100  THR100     -0.2211
     94  CG2      -19.2880   14.9050   49.9720 C.3   100  THR100      0.0376
     95  N        -16.4350   15.6350   48.3040 N.am  101  ASP101     -0.1973
     96  CA       -15.1740   14.9780   48.6270 C.3   101  ASP101      0.1709
     97  C        -14.8510   15.2790   50.0820 C.2   101  ASP101      0.2293
     98  O        -15.5220   16.0890   50.7310 O.2   101  ASP101     -0.2864
     99  CB       -14.0340   15.3990   47.6840 C.3   101  ASP101      0.1436
    100  CG       -13.7670   16.9000   47.6950 C.2   101  ASP101      0.3671
    101  OD1      -13.4520   17.4540   48.7630 O.co2 101  ASP101     -0.2456
    102  OD2      -13.8420   17.5260   46.6190 O.co2 101  ASP101     -0.2456
    103  N        -14.1670   19.0790   50.9670 N.3   104  LYS104     -0.1245
    104  CA       -15.3680   19.9010   51.0770 C.3   104  LYS104      0.1561
    105  C        -16.1830   19.5100   52.2990 C.2   104  LYS104      0.2260
    106  O        -16.7510   20.3700   52.9850 O.2   104  LYS104     -0.2867
    107  CB       -16.2020   19.7680   49.7980 C.3   104  LYS104      0.0271
    108  CG       -15.4610   20.2120   48.5340 C.3   104  LYS104      0.0035
    109  CD       -16.3670   20.3630   47.2990 C.3   104  LYS104      0.0206
    110  CE       -16.5870   19.0450   46.5500 C.3   104  LYS104      0.1093
    111  NZ       -17.2470   19.2410   45.2090 N.3   104  LYS104     -0.1314
    112  N         -9.0630   16.0520   49.4490 N.3   143  SER143     -0.1217
    113  CA        -9.7230   16.4230   48.2040 C.3   143  SER143      0.1889
    114  C         -9.6400   15.3310   47.1420 C.2   143  SER143      0.2288
    115  O        -10.3480   15.4330   46.1360 O.2   143  SER143     -0.2866
    116  CB        -9.1480   17.7360   47.6520 C.3   143  SER143      0.2089
    117  OG        -7.8000   17.5720   47.2410 O.3   143  SER143     -0.2183
    118  N        -13.3230   10.9360   47.0970 N.3   146  LEU146     -0.1245
    119  CA       -14.6860   11.2790   46.7310 C.3   146  LEU146      0.1561
    120  C        -15.6840   10.4700   47.5520 C.2   146  LEU146      0.2260
    121  O        -15.4120    9.3400   47.9630 O.2   146  LEU146     -0.2867
    122  CB       -14.9180   11.0280   45.2410 C.3   146  LEU146      0.0270
    123  CG       -13.9180   11.6850   44.2850 C.3   146  LEU146      0.0019
    124  CD1      -14.1180   11.1690   42.8430 C.3   146  LEU146      0.0001
    125  CD2      -14.0660   13.1950   44.3330 C.3   146  LEU146      0.0001
    126  N         -9.3140    8.9360   44.1440 N.3   155  CYS155     -0.1235
    127  CA        -9.2010    9.4700   42.7890 C.3   155  CYS155      0.1677
    128  C         -7.8580   10.1730   42.5980 C.2   155  CYS155      0.2270
    129  O         -7.0340   10.2580   43.5140 O.2   155  CYS155     -0.2867
    130  CB       -10.3510   10.4300   42.4740 C.3   155  CYS155      0.0956
    131  SG       -10.3190   11.9720   43.4050 S.3   155  CYS155     -0.0801
@<TRIPOS>BOND
     1    41    40    2
     2    40    39    1
     3    38    39    1
     4    39    42    1
     5    42    43    1
     6    36    35    2
     7    55    56    1
     8    35    34    1
     9    26    27    1
    10    21    19   ar
    11    43    44    1
    12    56    57    1
    13    56    59    1
    14    27    28    1
    15    27    30    1
    16    28    29    2
    17    45    44    1
    18    45    46    1
    19    25    24    2
    20    33    34    1
    21    34    37    1
    22    60    59    1
    23    60    61    1
    24    58    57    2
    25    19    18    1
    26    19    20   ar
    27    18    17    1
    28    57    64   am
    29    24    23    1
    30    63    61   am
    31    61    62    2
    32    32    30    1
    33    30    31    1
    34    22    23    1
    35    22    15   am
    36    64    65    1
    37    12    11    2
    38    17    14    1
    39    70    69   ar
    40    14    15    1
    41    14    13    1
    42     1     2    1
    43    15    16    2
    44    65    66    1
    45    65    68    1
    46    11    13   am
    47    11    10    1
    48    69    68    1
    49    69    71   ar
    50    66    72   am
    51    66    67    2
    52    72    73    1
    53     6     8    1
    54     6     5    1
    55    50    49    2
    56     9    10    1
    57     9     3   am
    58    76    73    1
    59    76    77    1
    60     2     5    1
    61     2     3    1
    62     5     7    1
    63    79    77    1
    64    49    48    1
    65    78    77    1
    66    73    74    1
    67     3     4    2
    68    52    54    1
    69    52    51    1
    70    53    51    1
    71    51    48    1
    72    48    47    1
    73    74    75    2
    74    74    80   am
    75    80    81    1
    76   130   127    1
    77   130   131    1
    78   128   127    1
    79   128   129    2
    80   127   126    1
    81   124   123    1
    82    85    86    1
    83    85    84    1
    84    81    84    1
    85    81    82    1
    86    83    82    2
    87    86    87    1
    88   123   125    1
    89   123   122    1
    90   111   110    1
    91   122   119    1
    92   115   114    2
    93   110   109    1
    94   102   100   ar
    95   119   118    1
    96   119   120    1
    97    88    89    1
    98    91    90    2
    99   114   113    1
   100   117   116    1
   101   109   108    1
   102   120   121    2
   103    89    90    1
   104    89    92    1
   105   116   113    1
   106    90    95   am
   107    99   100    1
   108    99    96    1
   109   100   101   ar
   110   113   112    1
   111    95    96    1
   112   108   107    1
   113    96    97    1
   114    92    93    1
   115    92    94    1
   116   107   104    1
   117    97    98    2
   118   103   104    1
   119   104   105    1
   120   105   106    2
