@<TRIPOS>MOLECULE
tmp/6fj1A00.pdb
 92 90 0 0 0
SMALL
GASTEIGER

@<TRIPOS>ATOM
      1  N        -33.3710    2.1320   -5.3270 N.3    24  GLU24      -0.1245
      2  CA       -32.3120    1.4980   -6.1300 C.3    24  GLU24       0.1567
      3  C        -31.2580    0.8140   -5.2230 C.2    24  GLU24       0.2260
      4  O        -30.9390    1.2760   -4.1370 O.2    24  GLU24      -0.2867
      5  CB       -31.6830    2.4910   -7.1240 C.3    24  GLU24       0.0388
      6  CG       -32.4480    2.6090   -8.4510 C.3    24  GLU24       0.1160
      7  CD       -32.3210    3.9890   -9.1250 C.2    24  GLU24       0.3649
      8  OE1      -33.1120    4.8820   -8.7550 O.co2  24  GLU24      -0.2457
      9  OE2      -31.4630    4.1890  -10.0260 O.co2  24  GLU24      -0.2457
     10  N        -27.3800   -1.1210   -5.5610 N.3    26  PHE26      -0.1227
     11  CA       -26.2380   -1.4000   -6.3990 C.3    26  PHE26       0.1736
     12  C        -24.9970   -1.6730   -5.6180 C.2    26  PHE26       0.2595
     13  O        -24.9370   -1.3490   -4.4610 O.2    26  PHE26      -0.2718
     14  CB       -25.9890   -0.2310   -7.2970 C.3    26  PHE26       0.0547
     15  CG       -25.6740    1.0280   -6.5770 C.ar   26  PHE26      -0.0202
     16  CD1      -24.3950    1.3030   -6.1720 C.ar   26  PHE26      -0.0042
     17  CD2      -26.6570    1.9680   -6.3530 C.ar   26  PHE26      -0.0042
     18  CE1      -24.1070    2.4960   -5.5560 C.ar   26  PHE26      -0.0003
     19  CE2      -26.3670    3.1630   -5.7250 C.ar   26  PHE26      -0.0003
     20  CZ       -25.1000    3.4210   -5.3330 C.ar   26  PHE26      -0.0000
     21  N        -24.0000   -2.2340   -6.2910 N.am   27  GLN27      -0.1979
     22  CA       -22.7250   -2.6220   -5.6940 C.3    27  GLN27       0.1601
     23  C        -21.6280   -1.6240   -6.1090 C.2    27  GLN27       0.2287
     24  O        -21.6100   -1.1690   -7.2310 O.2    27  GLN27      -0.2864
     25  CB       -22.3940   -4.0230   -6.1460 C.3    27  GLN27       0.0394
     26  CG       -21.7060   -4.8310   -5.1070 C.3    27  GLN27       0.0908
     27  CD       -21.0680   -6.0780   -5.7030 C.2    27  GLN27       0.2608
     28  OE1      -21.7150   -7.1450   -5.8130 O.2    27  GLN27      -0.2717
     29  NE2      -19.7650   -5.9680   -6.0500 N.am   27  GLN27      -0.0878
     30  N        -18.2650   -0.8610   -7.4830 N.3    29  PRO29      -0.2116
     31  CA       -17.3570   -1.6630   -8.3380 C.3    29  PRO29       0.1372
     32  C        -15.9660   -1.9440   -7.7610 C.2    29  PRO29       0.2244
     33  O        -15.2980   -1.0160   -7.2960 O.2    29  PRO29      -0.2868
     34  CB       -17.1630   -0.7810   -9.5580 C.3    29  PRO29       0.0268
     35  CG       -18.2540    0.2400   -9.5190 C.3    29  PRO29       0.0207
     36  CD       -18.7510    0.3670   -8.1470 C.3    29  PRO29       0.0892
     37  N        -16.8780   10.0550   -4.5050 N.3    54  TYR54      -0.1241
     38  CA       -17.9290    9.0590   -4.7150 C.3    54  TYR54       0.1605
     39  C        -19.1810    9.4080   -3.9560 C.2    54  TYR54       0.2264
     40  O        -20.2540    9.4430   -4.5480 O.2    54  TYR54      -0.2867
     41  CB       -17.4680    7.6810   -4.2960 C.3    54  TYR54       0.0534
     42  CG       -18.3550    6.5690   -4.7560 C.ar   54  TYR54      -0.0201
     43  CD1      -18.2650    6.0880   -6.0280 C.ar   54  TYR54      -0.0009
     44  CD2      -19.2590    5.9610   -3.8960 C.ar   54  TYR54      -0.0009
     45  CE1      -19.0560    5.0410   -6.4670 C.ar   54  TYR54       0.0417
     46  CE2      -20.0590    4.8920   -4.3210 C.ar   54  TYR54       0.0417
     47  CZ       -19.9510    4.4370   -5.6220 C.ar   54  TYR54       0.1957
     48  OH       -20.7000    3.3920   -6.1270 O.3    54  TYR54      -0.2866
     49  N        -21.0110   12.3900   -5.3260 N.3    57  ASP57      -0.1225
     50  CA       -21.7140   12.0360   -6.5510 C.3    57  ASP57       0.1805
     51  C        -23.0090   11.2840   -6.2390 C.2    57  ASP57       0.2597
     52  O        -24.0490   11.6540   -6.7800 O.2    57  ASP57      -0.2718
     53  CB       -20.8240   11.2040   -7.5070 C.3    57  ASP57       0.1424
     54  CG       -19.6070   12.0110   -8.0960 C.2    57  ASP57       0.3668
     55  OD1      -19.7030   13.2760   -8.1930 O.co2  57  ASP57      -0.2456
     56  OD2      -18.5720   11.3600   -8.4650 O.co2  57  ASP57      -0.2456
     57  N        -22.9810   10.2890   -5.3420 N.am   58  LEU58      -0.1979
     58  CA       -24.2350    9.7170   -4.7880 C.3    58  LEU58       0.1596
     59  C        -25.2450   10.8180   -4.4180 C.2    58  LEU58       0.2287
     60  O        -26.4520   10.6950   -4.6200 O.2    58  LEU58      -0.2864
     61  CB       -23.9880    8.8690   -3.5470 C.3    58  LEU58       0.0297
     62  CG       -23.1500    7.6050   -3.7040 C.3    58  LEU58       0.0022
     63  CD1      -23.0520    6.8190   -2.4190 C.3    58  LEU58       0.0001
     64  CD2      -23.7440    6.7150   -4.7400 C.3    58  LEU58       0.0001
     65  N        -25.3900   13.9930   -5.6410 N.3    60  THR60      -0.1203
     66  CA       -25.7430   14.5700   -6.9120 C.3    60  THR60       0.1994
     67  C        -26.7600   13.7140   -7.6590 C.2    60  THR60       0.2618
     68  O        -27.8130   14.2650   -8.0500 O.2    60  THR60      -0.2717
     69  CB       -24.4770   14.7790   -7.7380 C.3    60  THR60       0.1784
     70  OG1      -23.6160   15.6970   -7.0460 O.3    60  THR60      -0.2211
     71  CG2      -24.7940   15.3060   -9.1040 C.3    60  THR60       0.0376
     72  N        -26.4560   12.4120   -7.8440 N.am   61  LYS61      -0.1965
     73  CA       -27.3880   11.4160   -8.4240 C.3    61  LYS61       0.1728
     74  C        -28.7350   11.3160   -7.6890 C.2    61  LYS61       0.2616
     75  O        -29.7700   11.5260   -8.2920 O.2    61  LYS61      -0.2715
     76  CB       -26.8010   10.0160   -8.4470 C.3    61  LYS61       0.0311
     77  CG       -25.8400    9.6070   -9.5480 C.3    61  LYS61       0.0038
     78  CD       -25.6820    8.0750   -9.7060 C.3    61  LYS61       0.0206
     79  CE       -24.6680    7.6460  -10.7920 C.3    61  LYS61       0.1093
     80  NZ       -25.0060    6.3440  -11.4560 N.3    61  LYS61      -0.1314
     81  N        -28.7150   11.0500   -6.3810 N.am   62  TYR62      -0.1974
     82  CA       -29.8980   10.5540   -5.6680 C.3    62  TYR62       0.1639
     83  C        -30.6830   11.5030   -4.7600 C.2    62  TYR62       0.2290
     84  O        -31.8480   11.2470   -4.4750 O.2    62  TYR62      -0.2864
     85  CB       -29.4850    9.3660   -4.8520 C.3    62  TYR62       0.0560
     86  CG       -29.1590    8.1800   -5.6840 C.ar   62  TYR62      -0.0198
     87  CD1      -30.1500    7.4440   -6.2920 C.ar   62  TYR62      -0.0009
     88  CD2      -27.8530    7.7700   -5.8520 C.ar   62  TYR62      -0.0009
     89  CE1      -29.8480    6.3230   -7.0610 C.ar   62  TYR62       0.0417
     90  CE2      -27.5420    6.6520   -6.6230 C.ar   62  TYR62       0.0417
     91  CZ       -28.5430    5.9310   -7.2360 C.ar   62  TYR62       0.1957
     92  OH       -28.2640    4.8210   -8.0010 O.3    62  TYR62      -0.2866
@<TRIPOS>BOND
     1    80    79    1
     2    79    78    1
     3     9     7   ar
     4    78    77    1
     5    34    35    1
     6    34    31    1
     7    77    76    1
     8    35    36    1
     9     7     8   ar
    10     7     6    1
    11    71    69    1
    12    56    54   ar
    13     6     5    1
    14    76    73    1
    15    73    72    1
    16    73    74    1
    17    31    32    1
    18    31    30    1
    19    75    74    2
    20    55    54   ar
    21    36    30    1
    22    54    53    1
    23    68    67    2
    24    92    91    1
    25    72    67   am
    26    32    33    2
    27    69    70    1
    28    69    66    1
    29    74    81   am
    30    67    66    1
    31    53    50    1
    32    14    15    1
    33    14    11    1
    34    91    89   ar
    35    91    90   ar
    36    24    23    2
    37     5     2    1
    38    89    87   ar
    39    66    65    1
    40    52    51    2
    41    90    88   ar
    42    15    17   ar
    43    15    16   ar
    44    50    51    1
    45    50    49    1
    46    45    43   ar
    47    45    47   ar
    48    11    12    1
    49    11    10    1
    50    81    82    1
    51    17    19   ar
    52    87    86   ar
    53    21    22    1
    54    21    12   am
    55    51    57   am
    56    16    18   ar
    57    25    22    1
    58    25    26    1
    59     2     1    1
    60     2     3    1
    61    48    47    1
    62    23    22    1
    63    29    27   am
    64    43    42   ar
    65    88    86   ar
    66    28    27    2
    67    19    20   ar
    68    27    26    1
    69    86    85    1
    70    82    85    1
    71    82    83    1
    72    47    46   ar
    73    12    13    2
    74    18    20   ar
    75    57    58    1
    76     3     4    2
    77    58    59    1
    78    58    61    1
    79    83    84    2
    80    42    41    1
    81    42    44   ar
    82    64    62    1
    83    38    37    1
    84    38    41    1
    85    38    39    1
    86    60    59    2
    87    40    39    2
    88    46    44   ar
    89    62    61    1
    90    62    63    1
