@<TRIPOS>MOLECULE
tmp/6fj1A01.pdb
 136 134 0 0 0
SMALL
GASTEIGER

@<TRIPOS>ATOM
      1  N        -56.4890   30.7520   10.2580 N.3   179  LEU179     -0.1231
      2  CA       -55.3610   31.0650    9.3830 C.3   179  LEU179      0.1693
      3  C        -55.3470   32.5480    9.0140 C.2   179  LEU179      0.2592
      4  O        -56.3960   33.1450    8.7950 O.2   179  LEU179     -0.2718
      5  CB       -55.4080   30.2370    8.0970 C.3   179  LEU179      0.0284
      6  CG       -55.4120   28.7010    7.9730 C.3   179  LEU179      0.0019
      7  CD1      -54.9730   27.9080    9.2050 C.3   179  LEU179      0.0001
      8  CD2      -56.7760   28.2320    7.4900 C.3   179  LEU179      0.0001
      9  N        -54.1470   33.1180    8.8920 N.am  180  LYS180     -0.1966
     10  CA       -53.9350   34.5260    8.5530 C.3   180  LYS180      0.1728
     11  C        -53.5070   34.6840    7.0530 C.2   180  LYS180      0.2617
     12  O        -52.7840   33.8430    6.5640 O.2   180  LYS180     -0.2715
     13  CB       -52.8910   35.1040    9.5250 C.3   180  LYS180      0.0311
     14  CG       -53.2740   34.9150   11.0050 C.3   180  LYS180      0.0038
     15  CD       -52.5850   35.9150   11.9230 C.3   180  LYS180      0.0206
     16  CE       -51.0730   35.6740   12.1120 C.3   180  LYS180      0.1093
     17  NZ       -50.7090   34.3300   12.6680 N.3   180  LYS180     -0.1314
     18  N        -53.9580   35.7330    6.3470 N.am  181  GLY181     -0.1940
     19  CA       -53.5640   35.9990    4.9300 C.3   181  GLY181      0.2014
     20  C        -53.3390   37.4590    4.4870 C.2   181  GLY181      0.2639
     21  O        -53.0490   38.2920    5.3210 O.2   181  GLY181     -0.2714
     22  N        -53.4240   37.7510    3.1760 N.am  182  THR182     -0.1950
     23  CA       -53.2330   39.1240    2.6160 C.3   182  THR182      0.1897
     24  C        -54.0370   39.3700    1.3060 C.2   182  THR182      0.2313
     25  O        -54.1350   38.4550    0.4760 O.2   182  THR182     -0.2863
     26  CB       -51.7340   39.3850    2.2820 C.3   182  THR182      0.1794
     27  OG1      -50.8890   38.9270    3.3340 O.3   182  THR182     -0.2208
     28  CG2      -51.4460   40.8810    2.0580 C.3   182  THR182      0.0378
     29  N        -56.0970   39.8440    6.6510 N.3   187  TYR187     -0.1241
     30  CA       -57.3850   39.1100    6.7220 C.3   187  TYR187      0.1605
     31  C        -57.2640   37.7030    7.4250 C.2   187  TYR187      0.2264
     32  O        -56.1640   37.1880    7.5980 O.2   187  TYR187     -0.2867
     33  CB       -58.0230   38.9810    5.3230 C.3   187  TYR187      0.0534
     34  CG       -57.6620   37.7190    4.5660 C.ar  187  TYR187     -0.0201
     35  CD1      -58.3440   36.5050    4.8060 C.ar  187  TYR187     -0.0009
     36  CD2      -56.6650   37.7290    3.6050 C.ar  187  TYR187     -0.0009
     37  CE1      -58.0180   35.3460    4.1300 C.ar  187  TYR187      0.0417
     38  CE2      -56.3480   36.5690    2.9180 C.ar  187  TYR187      0.0417
     39  CZ       -57.0280   35.3920    3.1920 C.ar  187  TYR187      0.1957
     40  OH       -56.7130   34.2700    2.4870 O.3   187  TYR187     -0.2866
     41  N        -59.4220   33.5390    8.5260 N.3   189  SER189     -0.1217
     42  CA       -60.2610   32.4350    8.0660 C.3   189  SER189      0.1889
     43  C        -60.2550   31.3280    9.1150 C.2   189  SER189      0.2288
     44  O        -59.2020   30.7380    9.3810 O.2   189  SER189     -0.2866
     45  CB       -59.7240   31.8610    6.7470 C.3   189  SER189      0.2089
     46  OG       -59.7100   32.7780    5.6620 O.3   189  SER189     -0.2183
     47  N        -56.9330   21.4130    9.8250 N.3   194  TRP194     -0.1241
     48  CA       -55.8660   22.0220    9.0190 C.3   194  TRP194      0.1605
     49  C        -54.6120   21.1710    8.9860 C.2   194  TRP194      0.2264
     50  O        -54.1000   20.8150   10.0330 O.2   194  TRP194     -0.2867
     51  CB       -55.5350   23.3410    9.6120 C.3   194  TRP194      0.0550
     52  CG       -54.2220   23.9590    9.2720 C.ar  194  TRP194      0.0003
     53  CD1      -53.2250   24.2050   10.1390 C.ar  194  TRP194      0.0946
     54  CD2      -53.8130   24.5180    8.0190 C.ar  194  TRP194      0.0152
     55  NE1      -52.1940   24.8730    9.5130 N.ar  194  TRP194     -0.2442
     56  CE2      -52.5340   25.0920    8.2150 C.ar  194  TRP194      0.0810
     57  CE3      -54.3970   24.5880    6.7620 C.ar  194  TRP194      0.0012
     58  CZ2      -51.8150   25.7140    7.2080 C.ar  194  TRP194      0.0191
     59  CZ3      -53.7020   25.2280    5.7480 C.ar  194  TRP194      0.0001
     60  CH2      -52.3980   25.7670    5.9720 C.ar  194  TRP194      0.0015
     61  N        -44.2510   27.9660    3.0160 N.3   200  THR200     -0.1203
     62  CA       -45.0310   29.1800    2.7800 C.3   200  THR200      0.1994
     63  C        -46.4900   29.0430    3.2760 C.2   200  THR200      0.2618
     64  O        -47.2940   29.8890    2.9620 O.2   200  THR200     -0.2717
     65  CB       -45.1060   29.5380    1.2730 C.3   200  THR200      0.1784
     66  OG1      -46.1240   28.7420    0.6360 O.3   200  THR200     -0.2211
     67  CG2      -43.7490   29.3510    0.5570 C.3   200  THR200      0.0376
     68  N        -46.8420   27.9750    4.0020 N.am  201  GLY201     -0.1942
     69  CA       -48.1570   27.8480    4.6380 C.3   201  GLY201      0.2014
     70  C        -49.2490   27.5910    3.6020 C.2   201  GLY201      0.2638
     71  O        -50.3500   28.1560    3.6420 O.2   201  GLY201     -0.2714
     72  N        -48.9160   26.7640    2.6260 N.am  202  VAL202     -0.1977
     73  CA       -49.9250   26.1020    1.8420 C.3   202  VAL202      0.1596
     74  C        -50.3220   24.8860    2.6820 C.2   202  VAL202      0.2287
     75  O        -49.5010   24.3810    3.4680 O.2   202  VAL202     -0.2864
     76  CB       -49.3450   25.7120    0.4720 C.3   202  VAL202      0.0276
     77  CG1      -50.2330   24.6950   -0.2380 C.3   202  VAL202      0.0022
     78  CG2      -49.0940   26.9630   -0.3710 C.3   202  VAL202      0.0022
     79  N        -57.3280   22.0000    3.9050 N.3   205  HIS205     -0.1241
     80  CA       -58.3530   22.2770    4.9240 C.3   205  HIS205      0.1621
     81  C        -59.7690   22.3260    4.3990 C.2   205  HIS205      0.2264
     82  O        -59.9930   22.4100    3.2010 O.2   205  HIS205     -0.2867
     83  CB       -58.0740   23.6150    5.5690 C.3   205  HIS205      0.0745
     84  CG       -58.1510   24.7750    4.6350 C.ar  205  HIS205      0.0817
     85  ND1      -59.3450   25.3350    4.2500 N.ar  205  HIS205     -0.2268
     86  CD2      -57.1810   25.5130    4.0490 C.ar  205  HIS205      0.1154
     87  CE1      -59.1080   26.3580    3.4500 C.ar  205  HIS205      0.1986
     88  NE2      -57.8040   26.4910    3.3150 N.ar  205  HIS205     -0.2212
     89  N        -67.3650   27.7940    2.8560 N.3   209  TRP209     -0.1241
     90  CA       -67.7190   28.8590    1.9310 C.3   209  TRP209      0.1605
     91  C        -67.6590   28.4530    0.4590 C.2   209  TRP209      0.2264
     92  O        -68.0920   29.2160   -0.3950 O.2   209  TRP209     -0.2867
     93  CB       -66.8510   30.1060    2.1810 C.3   209  TRP209      0.0550
     94  CG       -65.3930   29.8860    2.0030 C.ar  209  TRP209      0.0003
     95  CD1      -64.6550   30.1280    0.8800 C.ar  209  TRP209      0.0946
     96  CD2      -64.4930   29.3550    2.9730 C.ar  209  TRP209      0.0152
     97  NE1      -63.3550   29.7640    1.0870 N.ar  209  TRP209     -0.2442
     98  CE2      -63.2230   29.3030    2.3710 C.ar  209  TRP209      0.0810
     99  CE3      -64.6410   28.9110    4.2990 C.ar  209  TRP209      0.0012
    100  CZ2      -62.1000   28.8320    3.0460 C.ar  209  TRP209      0.0191
    101  CZ3      -63.5300   28.4400    4.9720 C.ar  209  TRP209      0.0001
    102  CH2      -62.2710   28.4090    4.3430 C.ar  209  TRP209      0.0015
    103  N        -58.4820   29.5260   -4.4410 N.3   223  SER223     -0.1202
    104  CA       -57.9250   29.8650   -3.1420 C.3   223  SER223      0.2020
    105  C        -56.6990   30.7840   -3.2100 C.2   223  SER223      0.2619
    106  O        -56.3260   31.2590   -4.2870 O.2   223  SER223     -0.2717
    107  CB       -57.5510   28.5730   -2.4340 C.3   223  SER223      0.2103
    108  OG       -57.1860   28.8790   -1.1100 O.3   223  SER223     -0.2182
    109  N        -56.0700   31.0290   -2.0530 N.am  224  HIS224     -0.1961
    110  CA       -54.7810   31.7540   -2.0120 C.3   224  HIS224      0.1787
    111  C        -53.5810   30.8340   -2.2400 C.2   224  HIS224      0.2621
    112  O        -52.4550   31.3050   -2.3180 O.2   224  HIS224     -0.2715
    113  CB       -54.6180   32.5680   -0.7150 C.3   224  HIS224      0.0785
    114  CG       -55.3310   33.8850   -0.7520 C.ar  224  HIS224      0.0821
    115  ND1      -56.6770   34.0060   -0.4610 N.ar  224  HIS224     -0.2267
    116  CD2      -54.8990   35.1290   -1.0830 C.ar  224  HIS224      0.1154
    117  CE1      -57.0410   35.2690   -0.6040 C.ar  224  HIS224      0.1986
    118  NE2      -55.9810   35.9690   -0.9780 N.ar  224  HIS224     -0.2212
    119  N        -53.8300   29.5390   -2.4020 N.am  225  GLY225     -0.1940
    120  CA       -52.7730   28.5360   -2.5120 C.3   225  GLY225      0.2014
    121  C        -53.2400   27.1920   -1.9680 C.2   225  GLY225      0.2639
    122  O        -52.9560   26.1560   -2.5460 O.2   225  GLY225     -0.2714
    123  N        -54.0030   27.2250   -0.8770 N.am  226  CYS226     -0.1967
    124  CA       -54.4080   26.0220   -0.1530 C.3   226  CYS226      0.1712
    125  C        -55.3520   25.1870   -0.9750 C.2   226  CYS226      0.2296
    126  O        -55.8180   25.6120   -2.0300 O.2   226  CYS226     -0.2864
    127  CB       -55.0800   26.3810    1.1850 C.3   226  CYS226      0.0983
    128  SG       -54.1180   27.4780    2.2600 S.3   226  CYS226     -0.0798
    129  N        -58.7640   23.6510   -0.8690 N.3   228  ASN228     -0.1240
    130  CA       -60.0980   23.6980   -0.2760 C.3   228  ASN228      0.1653
    131  C        -60.7800   22.3590   -0.4590 C.2   228  ASN228      0.2266
    132  O        -60.7820   21.8120   -1.5510 O.2   228  ASN228     -0.2867
    133  CB       -60.9310   24.7960   -0.9400 C.3   228  ASN228      0.1155
    134  CG       -60.3500   26.1850   -0.7320 C.2   228  ASN228      0.2627
    135  OD1      -59.2680   26.3420   -0.1690 O.2   228  ASN228     -0.2716
    136  ND2      -61.0700   27.1940   -1.1830 N.am  228  ASN228     -0.0877
@<TRIPOS>BOND
     1   103   104    1
     2   106   105    2
     3   105   104    1
     4   105   109   am
     5   104   107    1
     6   122   121    2
     7   120   119    1
     8   120   121    1
     9   107   108    1
    10   119   111   am
    11   112   111    2
    12   111   110    1
    13   109   110    1
    14   126   125    2
    15   110   113    1
    16   121   123   am
    17   132   131    2
    18   136   134   am
    19   116   118   ar
    20   116   114   ar
    21   118   117   ar
    22   125   124    1
    23   133   134    1
    24   133   130    1
    25   123   124    1
    26   129   130    1
    27   114   113    1
    28   114   115   ar
    29   134   135    2
    30   117   115   ar
    31   131   130    1
    32    92    91    2
    33    78    76    1
    34    77    76    1
    35   124   127    1
    36    91    90    1
    37    76    73    1
    38    25    24    2
    39    67    65    1
    40    66    65    1
    41    95    97   ar
    42    95    94   ar
    43    97    98   ar
    44   127   128    1
    45    65    62    1
    46    24    23    1
    47    73    72    1
    48    73    74    1
    49    90    93    1
    50    90    89    1
    51    94    93    1
    52    94    96   ar
    53    28    26    1
    54    26    23    1
    55    26    27    1
    56    98    96   ar
    57    98   100   ar
    58    40    39    1
    59    23    22    1
    60    72    70   am
    61    74    75    2
    62    62    61    1
    63    62    63    1
    64    38    39   ar
    65    38    36   ar
    66    64    63    2
    67    96    99   ar
    68   100   102   ar
    69    22    20   am
    70    39    37   ar
    71    82    81    2
    72    63    68   am
    73    88    87   ar
    74    88    86   ar
    75    87    85   ar
    76    70    71    2
    77    70    69    1
    78    36    34   ar
    79    79    80    1
    80    68    69    1
    81    86    84   ar
    82    37    35   ar
    83    85    84   ar
    84    99   101   ar
    85   102   101   ar
    86    81    80    1
    87    20    19    1
    88    20    21    2
    89    34    35   ar
    90    34    33    1
    91    84    83    1
    92    80    83    1
    93    19    18    1
    94    33    30    1
    95    46    45    1
    96    59    60   ar
    97    59    57   ar
    98    60    58   ar
    99    18    11   am
   100    12    11    2
   101    29    30    1
   102    30    31    1
   103    45    42    1
   104    57    54   ar
   105    11    10    1
   106    58    56   ar
   107    31    32    2
   108     8     6    1
   109     6     5    1
   110     6     7    1
   111    54    56   ar
   112    54    52   ar
   113    42    41    1
   114    42    43    1
   115     5     2    1
   116    56    55   ar
   117    10     9    1
   118    10    13    1
   119     4     3    2
   120     9     3   am
   121    49    48    1
   122    49    50    2
   123     3     2    1
   124    48    51    1
   125    48    47    1
   126    43    44    2
   127    52    51    1
   128    52    53   ar
   129     2     1    1
   130    55    53   ar
   131    13    14    1
   132    14    15    1
   133    15    16    1
   134    16    17    1
