@<TRIPOS>MOLECULE
tmp/6fj3A09.pdb
 127 122 0 0 0
SMALL
GASTEIGER

@<TRIPOS>ATOM
      1  N         48.0270 -105.9900  179.8410 N.3   273  PHE273     -0.1241
      2  CA        46.9200 -106.9040  179.5790 C.3   273  PHE273      0.1605
      3  C         45.8320 -106.2320  178.7500 C.2   273  PHE273      0.2264
      4  O         45.2940 -106.8340  177.8130 O.2   273  PHE273     -0.2867
      5  CB        46.3500 -107.4200  180.9010 C.3   273  PHE273      0.0534
      6  CG        45.1910 -108.3630  180.7420 C.ar  273  PHE273     -0.0203
      7  CD1       45.4040 -109.7260  180.6180 C.ar  273  PHE273     -0.0042
      8  CD2       43.8870 -107.8890  180.7360 C.ar  273  PHE273     -0.0042
      9  CE1       44.3400 -110.5970  180.4790 C.ar  273  PHE273     -0.0003
     10  CE2       42.8210 -108.7550  180.5940 C.ar  273  PHE273     -0.0003
     11  CZ        43.0480 -110.1110  180.4670 C.ar  273  PHE273     -0.0000
     12  N         44.6110 -107.5140  174.7980 N.3   277  VAL277     -0.1245
     13  CA        43.2950 -108.0800  174.5220 C.3   277  VAL277      0.1561
     14  C         42.4830 -107.2090  173.5720 C.2   277  VAL277      0.2260
     15  O         41.5770 -107.7150  172.9000 O.2   277  VAL277     -0.2867
     16  CB        42.5170 -108.3190  175.8300 C.3   277  VAL277      0.0252
     17  CG1       43.2550 -109.3130  176.7130 C.3   277  VAL277      0.0019
     18  CG2       42.2870 -107.0070  176.5650 C.3   277  VAL277      0.0019
     19  N         40.6970 -113.5200  170.1100 N.3   282  THR282     -0.1218
     20  CA        40.6670 -114.7780  170.8460 C.3   282  THR282      0.1862
     21  C         40.8520 -115.9870  169.9380 C.2   282  THR282      0.2287
     22  O         41.2780 -117.0430  170.4170 O.2   282  THR282     -0.2866
     23  CB        39.3550 -114.9130  171.6210 C.3   282  THR282      0.1770
     24  OG1       38.2480 -114.8180  170.7160 O.3   282  THR282     -0.2211
     25  CG2       39.2410 -113.8160  172.6700 C.3   282  THR282      0.0375
     26  N         49.3270 -116.0970  169.7860 N.3   485  ARG485     -0.1245
     27  CA        48.1550 -116.5510  170.5270 C.3   485  ARG485      0.1563
     28  C         48.4820 -117.7380  171.4220 C.2   485  ARG485      0.2260
     29  O         47.9020 -117.8750  172.5050 O.2   485  ARG485     -0.2867
     30  CB        47.0320 -116.9130  169.5570 C.3   485  ARG485      0.0307
     31  CG        45.6340 -116.6790  170.1020 C.3   485  ARG485      0.0489
     32  CD        44.5800 -117.1690  169.1230 C.3   485  ARG485      0.2205
     33  NE        44.9800 -116.9410  167.7360 N.pl3 485  ARG485     -0.0865
     34  CZ        44.8190 -115.7910  167.0900 C.cat 485  ARG485      0.5346
     35  NH1       45.2140 -115.6770  165.8290 N.pl3 485  ARG485      0.1354
     36  NH2       44.2670 -114.7540  167.7050 N.pl3 485  ARG485      0.1354
     37  N         50.1230 -116.2550  174.4330 N.3   488  ALA488     -0.1231
     38  CA        49.1410 -115.5070  175.2060 C.3   488  ALA488      0.1694
     39  C         48.1090 -116.4110  175.8660 C.2   488  ALA488      0.2591
     40  O         47.4430 -115.9790  176.8130 O.2   488  ALA488     -0.2718
     41  CB        48.4380 -114.4830  174.3150 C.3   488  ALA488      0.0304
     42  N         47.9600 -117.6520  175.3900 N.am  489  LYS489     -0.1980
     43  CA        47.0030 -118.5700  176.0000 C.3   489  LYS489      0.1596
     44  C         47.3340 -118.8410  177.4610 C.2   489  LYS489      0.2287
     45  O         46.4350 -119.1410  178.2550 O.2   489  LYS489     -0.2864
     46  CB        46.9560 -119.8810  175.2140 C.3   489  LYS489      0.0298
     47  CG        45.9250 -119.9040  174.0950 C.3   489  LYS489      0.0038
     48  CD        44.5100 -119.9400  174.6520 C.3   489  LYS489      0.0206
     49  CE        43.4730 -119.9880  173.5410 C.3   489  LYS489      0.1093
     50  NZ        43.4750 -118.7450  172.7200 N.3   489  LYS489     -0.1314
     51  N         48.4450 -114.5010  179.3350 N.3   492  LEU492     -0.1231
     52  CA        47.2930 -113.6880  179.7080 C.3   492  LEU492      0.1693
     53  C         46.4850 -114.2980  180.8450 C.2   492  LEU492      0.2591
     54  O         45.5470 -113.6550  181.3280 O.2   492  LEU492     -0.2718
     55  CB        46.3890 -113.4610  178.4960 C.3   492  LEU492      0.0284
     56  CG        46.9760 -112.6090  177.3690 C.3   492  LEU492      0.0019
     57  CD1       45.9740 -112.4490  176.2360 C.3   492  LEU492      0.0001
     58  CD2       47.4160 -111.2520  177.8960 C.3   492  LEU492      0.0001
     59  N         46.8150 -115.5110  181.2750 N.am  493  VAL493     -0.1980
     60  CA        46.1750 -116.1310  182.4260 C.3   493  VAL493      0.1595
     61  C         46.9910 -115.9260  183.6960 C.2   493  VAL493      0.2287
     62  O         46.4330 -115.6300  184.7520 O.2   493  VAL493     -0.2864
     63  CB        45.9330 -117.6330  182.1560 C.3   493  VAL493      0.0276
     64  CG1       45.3210 -118.3050  183.3750 C.3   493  VAL493      0.0022
     65  CG2       45.0400 -117.8160  180.9400 C.3   493  VAL493      0.0022
     66  N         46.9360 -111.8890  185.3670 N.3   496  PRO496     -0.2102
     67  CA        45.8810 -111.4530  186.2920 C.3   496  PRO496      0.1504
     68  C         45.7080 -112.3940  187.4740 C.2   496  PRO496      0.2575
     69  O         45.3080 -111.9600  188.5570 O.2   496  PRO496     -0.2718
     70  CB        44.6310 -111.4250  185.4060 C.3   496  PRO496      0.0282
     71  CG        44.8850 -112.4720  184.3950 C.3   496  PRO496      0.0208
     72  CD        46.3640 -112.4300  184.1190 C.3   496  PRO496      0.0893
     73  N         46.0050 -113.6820  187.2820 N.am  497  LEU497     -0.1980
     74  CA        45.8450 -114.6460  188.3670 C.3   497  LEU497      0.1596
     75  C         46.7700 -114.3160  189.5320 C.2   497  LEU497      0.2287
     76  O         46.3390 -114.2680  190.6900 O.2   497  LEU497     -0.2864
     77  CB        46.1100 -116.0620  187.8560 C.3   497  LEU497      0.0297
     78  CG        45.8070 -117.2040  188.8280 C.3   497  LEU497      0.0022
     79  CD1       44.3040 -117.3600  189.0150 C.3   497  LEU497      0.0001
     80  CD2       46.4340 -118.5050  188.3490 C.3   497  LEU497      0.0001
     81  N         45.7040 -110.5120  190.8470 N.3   500  VAL500     -0.1231
     82  CA        44.4670 -110.3960  191.6130 C.3   500  VAL500      0.1692
     83  C         44.6020 -111.0950  192.9600 C.2   500  VAL500      0.2592
     84  O         44.1640 -110.5720  193.9910 O.2   500  VAL500     -0.2718
     85  CB        43.2800 -110.9450  190.8000 C.3   500  VAL500      0.0266
     86  CG1       42.0420 -111.0640  191.6750 C.3   500  VAL500      0.0020
     87  CG2       42.9980 -110.0460  189.6040 C.3   500  VAL500      0.0020
     88  N         45.2170 -112.2800  192.9780 N.am  501  HIS501     -0.1976
     89  CA        45.4060 -112.9940  194.2370 C.3   501  HIS501      0.1656
     90  C         46.2800 -112.1950  195.1960 C.2   501  HIS501      0.2291
     91  O         45.9650 -112.0720  196.3850 O.2   501  HIS501     -0.2864
     92  CB        46.0110 -114.3730  193.9790 C.3   501  HIS501      0.0771
     93  CG        44.9990 -115.4250  193.6480 C.ar  501  HIS501      0.0820
     94  ND1       44.5180 -115.6220  192.3720 N.ar  501  HIS501     -0.2267
     95  CD2       44.3740 -116.3370  194.4310 C.ar  501  HIS501      0.1154
     96  CE1       43.6420 -116.6110  192.3820 C.ar  501  HIS501      0.1986
     97  NE2       43.5360 -117.0620  193.6190 N.ar  501  HIS501     -0.2212
     98  N         44.2310 -109.2120  196.5410 N.3   504  VAL504     -0.1231
     99  CA        43.1800 -109.6380  197.4620 C.3   504  VAL504      0.1692
    100  C         43.7800 -110.1110  198.7810 C.2   504  VAL504      0.2592
    101  O         43.2910 -109.7600  199.8620 O.2   504  VAL504     -0.2718
    102  CB        42.3060 -110.7250  196.8100 C.3   504  VAL504      0.0266
    103  CG1       41.3900 -111.3620  197.8410 C.3   504  VAL504      0.0020
    104  CG2       41.4910 -110.1330  195.6710 C.3   504  VAL504      0.0020
    105  N         44.8520 -110.9060  198.7170 N.am  505  PHE505     -0.1976
    106  CA        45.4900 -111.3850  199.9400 C.3   505  PHE505      0.1639
    107  C         46.1220 -110.2470  200.7310 C.2   505  PHE505      0.2290
    108  O         46.1520 -110.2960  201.9670 O.2   505  PHE505     -0.2864
    109  CB        46.5390 -112.4460  199.6090 C.3   505  PHE505      0.0560
    110  CG        45.9620 -113.7170  199.0540 C.ar  505  PHE505     -0.0200
    111  CD1       44.7190 -114.1670  199.4680 C.ar  505  PHE505     -0.0042
    112  CD2       46.6600 -114.4600  198.1150 C.ar  505  PHE505     -0.0042
    113  CE1       44.1840 -115.3360  198.9580 C.ar  505  PHE505     -0.0003
    114  CE2       46.1300 -115.6290  197.6020 C.ar  505  PHE505     -0.0003
    115  CZ        44.8900 -116.0680  198.0250 C.ar  505  PHE505     -0.0000
    116  N         43.6180 -121.3120  201.8540 N.3   524  TYR524     -0.1241
    117  CA        43.5900 -121.0790  200.4140 C.3   524  TYR524      0.1605
    118  C         44.8560 -120.3790  199.9360 C.2   524  TYR524      0.2264
    119  O         45.3930 -120.7150  198.8740 O.2   524  TYR524     -0.2867
    120  CB        42.3520 -120.2680  200.0350 C.3   524  TYR524      0.0534
    121  CG        42.2630 -119.9650  198.5570 C.ar  524  TYR524     -0.0201
    122  CD1       41.9640 -120.9650  197.6410 C.ar  524  TYR524     -0.0009
    123  CD2       42.4790 -118.6800  198.0770 C.ar  524  TYR524     -0.0009
    124  CE1       41.8840 -120.6950  196.2880 C.ar  524  TYR524      0.0417
    125  CE2       42.4000 -118.4000  196.7250 C.ar  524  TYR524      0.0417
    126  CZ        42.1020 -119.4110  195.8360 C.ar  524  TYR524      0.1957
    127  OH        42.0220 -119.1380  194.4900 O.3   524  TYR524     -0.2866
@<TRIPOS>BOND
     1    35    34    1
     2    34    36    1
     3    34    33    2
     4    33    32    1
     5    32    31    1
     6    30    31    1
     7    30    27    1
     8    26    27    1
     9    21    22    2
    10    21    20    1
    11    19    20    1
    12    27    28    1
    13    24    23    1
    14    20    23    1
    15    28    29    2
    16    23    25    1
    17    50    49    1
    18    15    14    2
    19    49    48    1
    20    14    13    1
    21    47    48    1
    22    47    46    1
    23    41    38    1
    24    37    38    1
    25    13    12    1
    26    13    16    1
    27    38    39    1
    28    46    43    1
    29    42    39   am
    30    42    43    1
    31    16    18    1
    32    16    17    1
    33    39    40    2
    34    43    44    1
    35    57    56    1
    36    56    58    1
    37    56    55    1
    38    44    45    2
    39     4     3    2
    40    55    52    1
    41     3     2    1
    42    51    52    1
    43     2     1    1
    44     2     5    1
    45    52    53    1
    46    11     9   ar
    47    11    10   ar
    48     9     7   ar
    49    10     8   ar
    50     7     6   ar
    51     8     6   ar
    52     6     5    1
    53    53    59   am
    54    53    54    2
    55    65    63    1
    56    59    60    1
    57    63    60    1
    58    63    64    1
    59    60    61    1
    60    61    62    2
    61    72    71    1
    62    72    66    1
    63    71    70    1
    64    66    67    1
    65    70    67    1
    66    67    68    1
    67    73    68   am
    68    73    74    1
    69    68    69    2
    70    77    74    1
    71    77    78    1
    72    80    78    1
    73    74    75    1
    74    78    79    1
    75    75    76    2
    76    87    85    1
    77    85    82    1
    78    85    86    1
    79    81    82    1
    80    82    83    1
    81    94    96   ar
    82    94    93   ar
    83    96    97   ar
    84    83    88   am
    85    83    84    2
    86    88    89    1
    87    97    95   ar
    88    93    92    1
    89    93    95   ar
    90    92    89    1
    91    89    90    1
    92   127   126    1
    93    90    91    2
    94   104   102    1
    95   126   124   ar
    96   126   125   ar
    97   124   122   ar
    98    98    99    1
    99   125   123   ar
   100   102    99    1
   101   102   103    1
   102    99   100    1
   103   114   115   ar
   104   114   112   ar
   105   122   121   ar
   106   115   113   ar
   107   123   121   ar
   108   112   110   ar
   109   121   120    1
   110   105   100   am
   111   105   106    1
   112   100   101    2
   113   119   118    2
   114   113   111   ar
   115   110   111   ar
   116   110   109    1
   117   109   106    1
   118   118   117    1
   119   106   107    1
   120   120   117    1
   121   117   116    1
   122   107   108    2
