@<TRIPOS>MOLECULE
tmp/6fj3A10.pdb
 114 107 0 0 0
SMALL
GASTEIGER

@<TRIPOS>ATOM
      1  N         47.9600 -117.6520  175.3900 N.3   489  LYS489     -0.1231
      2  CA        47.0030 -118.5700  176.0000 C.3   489  LYS489      0.1693
      3  C         47.3340 -118.8410  177.4610 C.2   489  LYS489      0.2592
      4  O         46.4350 -119.1410  178.2550 O.2   489  LYS489     -0.2718
      5  CB        46.9560 -119.8810  175.2140 C.3   489  LYS489      0.0285
      6  CG        45.9250 -119.9040  174.0950 C.3   489  LYS489      0.0035
      7  CD        44.5100 -119.9400  174.6520 C.3   489  LYS489      0.0206
      8  CE        43.4730 -119.9880  173.5410 C.3   489  LYS489      0.1093
      9  NZ        43.4750 -118.7450  172.7200 N.3   489  LYS489     -0.1314
     10  N         48.6090 -118.7410  177.8360 N.am  490  SER490     -0.1952
     11  CA        49.0290 -118.9240  179.2180 C.3   490  SER490      0.1924
     12  C         49.5260 -117.6480  179.8770 C.2   490  SER490      0.2314
     13  O         49.3290 -117.4770  181.0810 O.2   490  SER490     -0.2863
     14  CB        50.1290 -119.9900  179.3040 C.3   490  SER490      0.2116
     15  OG        51.2830 -119.5900  178.5880 O.3   490  SER490     -0.2180
     16  N         46.8150 -115.5110  181.2750 N.3   493  VAL493     -0.1231
     17  CA        46.1750 -116.1310  182.4260 C.3   493  VAL493      0.1692
     18  C         46.9910 -115.9260  183.6960 C.2   493  VAL493      0.2591
     19  O         46.4330 -115.6300  184.7520 O.2   493  VAL493     -0.2718
     20  CB        45.9330 -117.6330  182.1560 C.3   493  VAL493      0.0266
     21  CG1       45.3210 -118.3050  183.3750 C.3   493  VAL493      0.0020
     22  CG2       45.0400 -117.8160  180.9400 C.3   493  VAL493      0.0020
     23  N         48.3170 -116.0640  183.6050 N.am  494  LEU494     -0.1980
     24  CA        49.1570 -115.9620  184.7930 C.3   494  LEU494      0.1596
     25  C         49.2850 -114.5260  185.2830 C.2   494  LEU494      0.2287
     26  O         49.4360 -114.2990  186.4890 O.2   494  LEU494     -0.2864
     27  CB        50.5410 -116.5470  184.5080 C.3   494  LEU494      0.0297
     28  CG        50.5840 -118.0170  184.0890 C.3   494  LEU494      0.0022
     29  CD1       52.0220 -118.4940  183.9610 C.3   494  LEU494      0.0001
     30  CD2       49.8140 -118.8830  185.0730 C.3   494  LEU494      0.0001
     31  N         46.0050 -113.6820  187.2820 N.3   497  LEU497     -0.1245
     32  CA        45.8450 -114.6460  188.3670 C.3   497  LEU497      0.1561
     33  C         46.7700 -114.3160  189.5320 C.2   497  LEU497      0.2260
     34  O         46.3390 -114.2680  190.6900 O.2   497  LEU497     -0.2867
     35  CB        46.1100 -116.0620  187.8560 C.3   497  LEU497      0.0270
     36  CG        45.8070 -117.2040  188.8280 C.3   497  LEU497      0.0019
     37  CD1       44.3040 -117.3600  189.0150 C.3   497  LEU497      0.0001
     38  CD2       46.4340 -118.5050  188.3490 C.3   497  LEU497      0.0001
     39  N         45.2170 -112.2800  192.9780 N.3   501  HIS501     -0.1241
     40  CA        45.4060 -112.9940  194.2370 C.3   501  HIS501      0.1621
     41  C         46.2800 -112.1950  195.1960 C.2   501  HIS501      0.2264
     42  O         45.9650 -112.0720  196.3850 O.2   501  HIS501     -0.2867
     43  CB        46.0110 -114.3730  193.9790 C.3   501  HIS501      0.0745
     44  CG        44.9990 -115.4250  193.6480 C.ar  501  HIS501      0.0817
     45  ND1       44.5180 -115.6220  192.3720 N.ar  501  HIS501     -0.2268
     46  CD2       44.3740 -116.3370  194.4310 C.ar  501  HIS501      0.1154
     47  CE1       43.6420 -116.6110  192.3820 C.ar  501  HIS501      0.1986
     48  NE2       43.5360 -117.0620  193.6190 N.ar  501  HIS501     -0.2212
     49  N         43.6180 -121.3120  201.8540 N.3   524  TYR524     -0.1241
     50  CA        43.5900 -121.0790  200.4140 C.3   524  TYR524      0.1605
     51  C         44.8560 -120.3790  199.9360 C.2   524  TYR524      0.2264
     52  O         45.3930 -120.7150  198.8740 O.2   524  TYR524     -0.2867
     53  CB        42.3520 -120.2680  200.0350 C.3   524  TYR524      0.0534
     54  CG        42.2630 -119.9650  198.5570 C.ar  524  TYR524     -0.0201
     55  CD1       41.9640 -120.9650  197.6410 C.ar  524  TYR524     -0.0009
     56  CD2       42.4790 -118.6800  198.0770 C.ar  524  TYR524     -0.0009
     57  CE1       41.8840 -120.6950  196.2880 C.ar  524  TYR524      0.0417
     58  CE2       42.4000 -118.4000  196.7250 C.ar  524  TYR524      0.0417
     59  CZ        42.1020 -119.4110  195.8360 C.ar  524  TYR524      0.1957
     60  OH        42.0220 -119.1380  194.4900 O.3   524  TYR524     -0.2866
     61  N         47.5210 -121.7410  197.2040 N.3   528  PHE528     -0.1241
     62  CA        47.8110 -121.0070  195.9770 C.3   528  PHE528      0.1605
     63  C         49.2970 -120.6930  195.8590 C.2   528  PHE528      0.2264
     64  O         49.9130 -120.9430  194.8160 O.2   528  PHE528     -0.2867
     65  CB        46.9800 -119.7240  195.9290 C.3   528  PHE528      0.0534
     66  CG        47.1600 -118.9310  194.6650 C.ar  528  PHE528     -0.0203
     67  CD1       46.4400 -119.2500  193.5260 C.ar  528  PHE528     -0.0042
     68  CD2       48.0420 -117.8650  194.6190 C.ar  528  PHE528     -0.0042
     69  CE1       46.6010 -118.5220  192.3610 C.ar  528  PHE528     -0.0003
     70  CE2       48.2080 -117.1340  193.4580 C.ar  528  PHE528     -0.0003
     71  CZ        47.4860 -117.4630  192.3280 C.ar  528  PHE528     -0.0000
     72  N         51.9160 -124.2060  188.8340 N.3   535  PHE535     -0.1241
     73  CA        51.0660 -123.5350  187.8560 C.3   535  PHE535      0.1605
     74  C         51.8810 -123.0430  186.6670 C.2   535  PHE535      0.2264
     75  O         51.4650 -123.1990  185.5130 O.2   535  PHE535     -0.2867
     76  CB        50.3280 -122.3650  188.5090 C.3   535  PHE535      0.0534
     77  CG        49.3360 -122.7760  189.5590 C.ar  535  PHE535     -0.0203
     78  CD1       48.7040 -124.0070  189.4940 C.ar  535  PHE535     -0.0042
     79  CD2       49.0340 -121.9270  190.6100 C.ar  535  PHE535     -0.0042
     80  CE1       47.7890 -124.3820  190.4600 C.ar  535  PHE535     -0.0003
     81  CE2       48.1210 -122.2960  191.5790 C.ar  535  PHE535     -0.0003
     82  CZ        47.4970 -123.5260  191.5030 C.ar  535  PHE535     -0.0000
     83  N         53.0890 -125.9390  184.3790 N.3   538  ILE538     -0.1231
     84  CA        52.0500 -126.4650  183.5000 C.3   538  ILE538      0.1692
     85  C         51.7670 -125.4910  182.3620 C.2   538  ILE538      0.2591
     86  O         51.5900 -125.8980  181.2080 O.2   538  ILE538     -0.2718
     87  CB        50.7790 -126.7800  184.3110 C.3   538  ILE538      0.0266
     88  CG1       50.9090 -128.1370  185.0030 C.3   538  ILE538      0.0019
     89  CG2       49.5410 -126.7440  183.4260 C.3   538  ILE538      0.0020
     90  CD1       49.6290 -128.6110  185.6530 C.3   538  ILE538      0.0001
     91  N         51.7440 -124.1910  182.6620 N.am  539  ALA539     -0.1980
     92  CA        51.3310 -123.2060  181.6680 C.3   539  ALA539      0.1597
     93  C         52.3630 -123.0320  180.5600 C.2   539  ALA539      0.2287
     94  O         51.9960 -122.7110  179.4230 O.2   539  ALA539     -0.2864
     95  CB        51.0540 -121.8650  182.3480 C.3   539  ALA539      0.0319
     96  N         51.6990 -127.9830  179.0520 N.3   543  CYS543     -0.1235
     97  CA        50.6060 -127.6930  178.1350 C.3   543  CYS543      0.1677
     98  C         51.0760 -127.0730  176.8270 C.2   543  CYS543      0.2270
     99  O         50.2430 -126.7690  175.9670 O.2   543  CYS543     -0.2867
    100  CB        49.5810 -126.7680  178.8010 C.3   543  CYS543      0.0956
    101  SG        48.5570 -127.5730  180.0540 S.3   543  CYS543     -0.0801
    102  N         52.3410 -126.8700  173.1220 N.3   545  GLY545     -0.1225
    103  CA        52.1830 -127.7680  171.9900 C.3   545  GLY545      0.1811
    104  C         53.4920 -128.3250  171.4700 C.2   545  GLY545      0.2280
    105  O         53.5460 -129.4770  171.0290 O.2   545  GLY545     -0.2866
    106  N         54.8020 -131.0950  174.0560 N.3   548  GLN548     -0.1245
    107  CA        54.0420 -132.3370  173.9570 C.3   548  GLN548      0.1566
    108  C         54.4170 -133.1170  172.7040 C.2   548  GLN548      0.2260
    109  O         54.5360 -134.3470  172.7420 O.2   548  GLN548     -0.2867
    110  CB        52.5420 -132.0420  173.9710 C.3   548  GLN548      0.0367
    111  CG        52.0310 -131.4310  175.2640 C.3   548  GLN548      0.0905
    112  CD        50.5260 -131.2490  175.2610 C.2   548  GLN548      0.2608
    113  OE1       49.8360 -131.7030  174.3480 O.2   548  GLN548     -0.2717
    114  NE2       50.0090 -130.5810  176.2850 N.am  548  GLN548     -0.0878
@<TRIPOS>BOND
     1   105   104    2
     2   104   103    1
     3   103   102    1
     4   108   109    2
     5   108   107    1
     6     9     8    1
     7     8     7    1
     8   107   110    1
     9   107   106    1
    10   110   111    1
    11     6     7    1
    12     6     5    1
    13   113   112    2
    14     5     2    1
    15   112   111    1
    16   112   114   am
    17     1     2    1
    18    99    98    2
    19     2     3    1
    20    98    97    1
    21     3    10   am
    22     3     4    2
    23    10    11    1
    24    97   100    1
    25    97    96    1
    26    15    14    1
    27   100   101    1
    28    11    14    1
    29    11    12    1
    30    94    93    2
    31    12    13    2
    32    93    92    1
    33    22    20    1
    34    86    85    2
    35    16    17    1
    36    92    95    1
    37    92    91    1
    38    20    17    1
    39    20    21    1
    40    85    91   am
    41    85    84    1
    42    17    18    1
    43    89    87    1
    44    84    87    1
    45    84    83    1
    46    23    18   am
    47    23    24    1
    48    18    19    2
    49    29    28    1
    50    28    27    1
    51    28    30    1
    52    87    88    1
    53    27    24    1
    54    24    25    1
    55    88    90    1
    56    25    26    2
    57    75    74    2
    58    74    73    1
    59    31    32    1
    60    35    32    1
    61    35    36    1
    62    73    76    1
    63    73    72    1
    64    38    36    1
    65    32    33    1
    66    76    77    1
    67    36    37    1
    68    78    77   ar
    69    78    80   ar
    70    33    34    2
    71    77    79   ar
    72    80    82   ar
    73    79    81   ar
    74    82    81   ar
    75    71    69   ar
    76    71    70   ar
    77    69    67   ar
    78    45    47   ar
    79    45    44   ar
    80    47    48   ar
    81    39    40    1
    82    70    68   ar
    83    67    66   ar
    84    48    46   ar
    85    44    43    1
    86    44    46   ar
    87    43    40    1
    88    40    41    1
    89    60    59    1
    90    68    66   ar
    91    66    65    1
    92    64    63    2
    93    41    42    2
    94    59    57   ar
    95    59    58   ar
    96    63    62    1
    97    65    62    1
    98    62    61    1
    99    57    55   ar
   100    58    56   ar
   101    55    54   ar
   102    56    54   ar
   103    54    53    1
   104    52    51    2
   105    51    50    1
   106    53    50    1
   107    50    49    1
