@<TRIPOS>MOLECULE
tmp/6fjbA00.pdb
 153 143 0 0 0
SMALL
GASTEIGER

@<TRIPOS>ATOM
      1  N        -19.6700   20.3140   38.7110 N.3    21  ILE21      -0.1231
      2  CA       -19.3810   19.8360   40.0540 C.3    21  ILE21       0.1692
      3  C        -18.1640   20.5310   40.6510 C.2    21  ILE21       0.2593
      4  O        -18.1760   20.9050   41.8270 O.2    21  ILE21      -0.2718
      5  CB       -19.2000   18.3020   40.0760 C.3    21  ILE21       0.0266
      6  CG1      -20.4980   17.6150   39.6480 C.3    21  ILE21       0.0019
      7  CG2      -18.7730   17.8210   41.4690 C.3    21  ILE21       0.0020
      8  CD1      -20.4990   16.1250   39.8520 C.3    21  ILE21       0.0001
      9  N        -17.1070   20.7130   39.8660 N.am   22  GLY22      -0.1942
     10  CA       -15.9080   21.3330   40.3940 C.3    22  GLY22       0.2014
     11  C        -14.7340   21.2750   39.4420 C.2    22  GLY22       0.2639
     12  O        -14.7320   20.4950   38.4820 O.2    22  GLY22      -0.2714
     13  N        -13.7310   22.1040   39.6990 N.am   23  GLU23      -0.1963
     14  CA       -12.5380   22.1040   38.8760 C.3    23  GLU23       0.1733
     15  C        -11.6620   20.9070   39.2260 C.2    23  GLU23       0.2617
     16  O        -11.7000   20.3750   40.3390 O.2    23  GLU23      -0.2715
     17  CB       -11.7620   23.4100   39.0500 C.3    23  GLU23       0.0429
     18  CG       -10.7230   23.6530   37.9810 C.3    23  GLU23       0.1163
     19  CD       -11.3180   23.6030   36.5920 C.2    23  GLU23       0.3649
     20  OE1      -12.4650   24.0750   36.4180 O.co2  23  GLU23      -0.2457
     21  OE2      -10.6450   23.0810   35.6770 O.co2  23  GLU23      -0.2457
     22  N        -10.8810   20.4690   38.2470 N.am   24  GLY24      -0.1940
     23  CA        -9.9570   19.3790   38.4660 C.3    24  GLY24       0.2014
     24  C         -8.5390   19.7740   38.1250 C.2    24  GLY24       0.2638
     25  O         -8.2560   20.9510   37.8730 O.2    24  GLY24      -0.2714
     26  N         -7.6360   18.7920   38.1150 N.am   25  ALA25      -0.1977
     27  CA        -6.2530   19.0760   37.7530 C.3    25  ALA25       0.1597
     28  C         -6.1540   19.5860   36.3220 C.2    25  ALA25       0.2287
     29  O         -5.4150   20.5370   36.0450 O.2    25  ALA25      -0.2864
     30  CB        -5.3940   17.8260   37.9380 C.3    25  ALA25       0.0319
     31  N        -15.1900   18.8960   35.9140 N.3    29  VAL29      -0.1245
     32  CA       -15.8930   17.6880   36.3360 C.3    29  VAL29       0.1561
     33  C        -17.3770   18.0160   36.4040 C.2    29  VAL29       0.2260
     34  O        -17.7810   18.9450   37.1180 O.2    29  VAL29      -0.2867
     35  CB       -15.3820   17.1660   37.6860 C.3    29  VAL29       0.0252
     36  CG1      -16.1930   15.9690   38.1320 C.3    29  VAL29       0.0019
     37  CG2      -13.9080   16.8060   37.5880 C.3    29  VAL29       0.0019
     38  N        -20.5510   10.6140   36.7110 N.3    42  ALA42      -0.1245
     39  CA       -19.5800   11.6950   36.7700 C.3    42  ALA42       0.1562
     40  C        -18.7060   11.6360   35.5300 C.2    42  ALA42       0.2260
     41  O        -18.3210   10.5500   35.0880 O.2    42  ALA42      -0.2867
     42  CB       -18.7070   11.5980   38.0210 C.3    42  ALA42       0.0290
     43  N        -15.2090   13.5220   33.7830 N.3    44  LYS44      -0.1245
     44  CA       -14.0400   14.3670   34.0000 C.3    44  LYS44       0.1561
     45  C        -13.4180   14.7220   32.6540 C.2    44  LYS44       0.2260
     46  O        -12.9580   13.8360   31.9190 O.2    44  LYS44      -0.2867
     47  CB       -13.0140   13.6670   34.8960 C.3    44  LYS44       0.0271
     48  CG       -13.4890   13.3510   36.2980 C.3    44  LYS44       0.0035
     49  CD       -12.3330   12.8390   37.1570 C.3    44  LYS44       0.0206
     50  CE       -11.6030   11.6820   36.4790 C.3    44  LYS44       0.1093
     51  NZ       -10.2890   11.3830   37.1210 N.3    44  LYS44      -0.1314
     52  N        -12.2410    3.3450   42.5610 N.3    74  ILE74      -0.1245
     53  CA       -13.1140    3.8710   41.5130 C.3    74  ILE74       0.1561
     54  C        -12.7840    3.1940   40.1870 C.2    74  ILE74       0.2260
     55  O        -11.6190    2.9170   39.8610 O.2    74  ILE74      -0.2867
     56  CB       -13.0140    5.4050   41.4120 C.3    74  ILE74       0.0252
     57  CG1      -14.1540    5.9690   40.5520 C.3    74  ILE74       0.0019
     58  CG2      -11.6880    5.8320   40.8270 C.3    74  ILE74       0.0019
     59  CD1      -15.5440    5.8210   41.1770 C.3    74  ILE74       0.0001
     60  N        -17.0660    8.0720   35.2640 N.3    95  GLN95      -0.1231
     61  CA       -17.0280    7.2340   36.4580 C.3    95  GLN95       0.1698
     62  C        -18.3890    7.2450   37.1340 C.2    95  GLN95       0.2592
     63  O        -19.2360    8.0960   36.8470 O.2    95  GLN95      -0.2718
     64  CB       -15.9560    7.7060   37.4570 C.3    95  GLN95       0.0381
     65  CG       -14.5590    7.7740   36.8700 C.3    95  GLN95       0.0905
     66  CD       -13.5590    8.4290   37.8140 C.2    95  GLN95       0.2608
     67  OE1      -13.9390    9.1800   38.7160 O.2    95  GLN95      -0.2717
     68  NE2      -12.2770    8.1370   37.6160 N.am   95  GLN95      -0.0878
     69  N        -18.5960    6.2770   38.0380 N.am   96  ASP96      -0.1960
     70  CA       -19.7760    6.3130   38.8940 C.3    96  ASP96       0.1840
     71  C        -19.8720    7.6780   39.5590 C.2    96  ASP96       0.2622
     72  O        -18.8590    8.2830   39.9260 O.2    96  ASP96      -0.2715
     73  CB       -19.7170    5.2370   39.9800 C.3    96  ASP96       0.1450
     74  CG       -19.8020    3.8430   39.4390 C.2    96  ASP96       0.3671
     75  OD1      -20.2770    3.6630   38.2940 O.co2  96  ASP96      -0.2456
     76  OD2      -19.3990    2.9170   40.1810 O.co2  96  ASP96      -0.2456
     77  N        -21.0970    8.1650   39.7090 N.am   97  LEU97      -0.1963
     78  CA       -21.3210    9.4320   40.3870 C.3    97  LEU97       0.1728
     79  C        -21.2550    9.2070   41.8970 C.2    97  LEU97       0.2616
     80  O        -21.9970    8.3820   42.4420 O.2    97  LEU97      -0.2715
     81  CB       -22.6670   10.0200   39.9740 C.3    97  LEU97       0.0311
     82  CG       -23.1340   11.2560   40.7280 C.3    97  LEU97       0.0022
     83  CD1      -22.3020   12.4530   40.3480 C.3    97  LEU97       0.0001
     84  CD2      -24.6140   11.4980   40.4410 C.3    97  LEU97       0.0001
     85  N        -20.3620    9.9230   42.5690 N.am   98  MET98      -0.1963
     86  CA       -20.2460    9.8290   44.0150 C.3    98  MET98       0.1736
     87  C        -20.7870   11.1070   44.6530 C.2    98  MET98       0.2616
     88  O        -20.7470   12.1810   44.0550 O.2    98  MET98      -0.2715
     89  CB       -18.7920    9.5590   44.4150 C.3    98  MET98       0.0427
     90  CG       -18.2230    8.3040   43.7330 C.3    98  MET98       0.0599
     91  SD       -18.9610    6.7140   44.2510 S.3    98  MET98      -0.1393
     92  CE       -18.0600    6.4130   45.7660 C.3    98  MET98       0.0692
     93  N        -21.3410   10.9830   45.8620 N.am   99  GLU99      -0.1963
     94  CA       -21.9910   12.1410   46.4730 C.3    99  GLU99       0.1733
     95  C        -20.9680   13.1890   46.9060 C.2    99  GLU99       0.2617
     96  O        -21.1550   14.3880   46.6590 O.2    99  GLU99      -0.2715
     97  CB       -22.8700   11.6960   47.6540 C.3    99  GLU99       0.0429
     98  CG       -23.5550   12.8450   48.4070 C.3    99  GLU99       0.1163
     99  CD       -24.5720   12.3770   49.4500 C.2    99  GLU99       0.3649
    100  OE1      -25.6260   11.8200   49.0570 O.co2  99  GLU99      -0.2457
    101  OE2      -24.3220   12.5810   50.6650 O.co2  99  GLU99      -0.2457
    102  N        -19.8660   12.7610   47.5120 N.am  100  THR100     -0.1937
    103  CA       -18.9000   13.6840   48.0870 C.3   100  THR100      0.2028
    104  C        -17.5410   12.9860   48.1520 C.2   100  THR100      0.2642
    105  O        -17.3420   11.9230   47.5510 O.2   100  THR100     -0.2714
    106  CB       -19.3990   14.1500   49.4570 C.3   100  THR100      0.1808
    107  OG1      -18.5900   15.2210   49.9330 O.3   100  THR100     -0.2208
    108  CG2      -19.3870   12.9950   50.4550 C.3   100  THR100      0.0379
    109  N        -16.5900   13.5960   48.8620 N.am  101  ASP101     -0.1971
    110  CA       -15.3270   12.9450   49.1940 C.3   101  ASP101      0.1709
    111  C        -14.9830   13.2820   50.6400 C.2   101  ASP101      0.2293
    112  O        -15.5890   14.1650   51.2460 O.2   101  ASP101     -0.2864
    113  CB       -14.1840   13.3360   48.2300 C.3   101  ASP101      0.1436
    114  CG       -13.8780   14.8350   48.2240 C.2   101  ASP101      0.3671
    115  OD1      -13.5590   15.4000   49.2980 O.co2 101  ASP101     -0.2456
    116  OD2      -13.9150   15.4420   47.1230 O.co2 101  ASP101     -0.2456
    117  N        -14.2340   17.1610   51.5760 N.3   104  LYS104     -0.1245
    118  CA       -15.4290   17.9930   51.7090 C.3   104  LYS104      0.1561
    119  C        -16.2520   17.5830   52.9250 C.2   104  LYS104      0.2260
    120  O        -16.7930   18.4350   53.6410 O.2   104  LYS104     -0.2867
    121  CB       -16.2640   17.9040   50.4230 C.3   104  LYS104      0.0271
    122  CG       -15.5130   18.3260   49.1570 C.3   104  LYS104      0.0035
    123  CD       -16.4440   18.4860   47.9420 C.3   104  LYS104      0.0206
    124  CE       -16.8070   17.1370   47.3060 C.3   104  LYS104      0.1093
    125  NZ       -17.4430   17.3100   45.9560 N.3   104  LYS104     -0.1314
    126  N         -9.2530   14.0450   50.0030 N.3   143  SER143     -0.1217
    127  CA        -9.9260   14.3990   48.7600 C.3   143  SER143      0.1889
    128  C         -9.7980   13.3120   47.7060 C.2   143  SER143      0.2288
    129  O        -10.5270   13.3580   46.7080 O.2   143  SER143     -0.2866
    130  CB        -9.3920   15.7280   48.2130 C.3   143  SER143      0.2089
    131  OG        -8.0520   15.5710   47.8170 O.3   143  SER143     -0.2183
    132  N        -13.4500    8.9730   47.6360 N.3   146  LEU146     -0.1245
    133  CA       -14.8120    9.3230   47.2530 C.3   146  LEU146      0.1561
    134  C        -15.8310    8.5250   48.0710 C.2   146  LEU146      0.2260
    135  O        -15.6010    7.3650   48.4100 O.2   146  LEU146     -0.2867
    136  CB       -15.0270    9.0490   45.7620 C.3   146  LEU146      0.0270
    137  CG       -14.0250    9.6560   44.7740 C.3   146  LEU146      0.0019
    138  CD1      -14.3100    9.1720   43.3440 C.3   146  LEU146      0.0001
    139  CD2      -14.0740   11.1930   44.8290 C.3   146  LEU146      0.0001
    140  N         -9.5020    6.9970   44.6510 N.3   155  CYS155     -0.1221
    141  CA        -9.3620    7.5300   43.3020 C.3   155  CYS155      0.1808
    142  C         -8.0100    8.2260   43.1400 C.2   155  CYS155      0.2601
    143  O         -7.1970    8.3000   44.0650 O.2   155  CYS155     -0.2717
    144  CB       -10.5070    8.4970   42.9820 C.3   155  CYS155      0.0970
    145  SG       -10.3610   10.1290   43.8000 S.3   155  CYS155     -0.0800
    146  N         -7.7690    8.7240   41.9260 N.am  156  ASP156     -0.1973
    147  CA        -6.5840    9.5060   41.5550 C.3   156  ASP156      0.1709
    148  C         -5.2640    8.7730   41.7530 C.2   156  ASP156      0.2293
    149  O         -4.5580    9.0110   42.7390 O.2   156  ASP156     -0.2864
    150  CB        -6.5270   10.8160   42.3360 C.3   156  ASP156      0.1436
    151  CG        -5.6620   11.8540   41.6500 C.2   156  ASP156      0.3671
    152  OD1       -6.1110   13.0160   41.5530 O.co2 156  ASP156     -0.2456
    153  OD2       -4.5590   11.4990   41.1750 O.co2 156  ASP156     -0.2456
@<TRIPOS>BOND
     1    46    45    2
     2    45    44    1
     3    43    44    1
     4    44    47    1
     5    47    48    1
     6    41    40    2
     7    60    61    1
     8    40    39    1
     9    21    19   ar
    10    31    32    1
    11    29    28    2
    12    48    49    1
    13    28    27    1
    14    32    33    1
    15    32    35    1
    16    33    34    2
    17    20    19   ar
    18    61    62    1
    19    61    64    1
    20    50    51    1
    21    50    49    1
    22    19    18    1
    23    38    39    1
    24    39    42    1
    25    63    62    2
    26    65    64    1
    27    65    66    1
    28    62    69   am
    29    37    35    1
    30    68    66   am
    31    35    36    1
    32    27    30    1
    33    27    26    1
    34    66    67    2
    35    25    24    2
    36    18    17    1
    37    69    70    1
    38    26    24   am
    39    24    23    1
    40    22    23    1
    41    22    15   am
    42    75    74   ar
    43    12    11    2
    44     1     2    1
    45    14    17    1
    46    14    15    1
    47    14    13    1
    48    70    71    1
    49    70    73    1
    50    15    16    2
    51    74    73    1
    52    74    76   ar
    53    11    13   am
    54    11    10    1
    55    71    77   am
    56    71    72    2
    57     6     8    1
    58     6     5    1
    59    77    78    1
    60    55    54    2
    61     9    10    1
    62     9     3   am
    63    81    78    1
    64    81    82    1
    65     2     5    1
    66     2     3    1
    67     5     7    1
    68    54    53    1
    69    83    82    1
    70    78    79    1
    71    84    82    1
    72    57    59    1
    73    57    56    1
    74     3     4    2
    75    58    56    1
    76   153   151   ar
    77    56    53    1
    78    53    52    1
    79   152   151   ar
    80   147   148    1
    81   147   146    1
    82   147   150    1
    83   151   150    1
    84   148   149    2
    85    79    80    2
    86    79    85   am
    87   146   142   am
    88    85    86    1
    89   144   141    1
    90   144   145    1
    91   142   141    1
    92   142   143    2
    93   141   140    1
    94   138   137    1
    95    90    91    1
    96    90    89    1
    97    86    89    1
    98    86    87    1
    99    88    87    2
   100    91    92    1
   101    87    93   am
   102   137   139    1
   103   137   136    1
   104   136   133    1
   105    93    94    1
   106   125   124    1
   107    94    95    1
   108    94    97    1
   109    96    95    2
   110   129   128    2
   111    95   102   am
   112   116   114   ar
   113   133   132    1
   114   133   134    1
   115   124   123    1
   116   102   103    1
   117   105   104    2
   118    97    98    1
   119   128   127    1
   120   131   130    1
   121   123   122    1
   122   134   135    2
   123   103   104    1
   124   103   106    1
   125   104   109   am
   126   130   127    1
   127   114   113    1
   128   114   115   ar
   129   113   110    1
   130    98    99    1
   131   127   126    1
   132   109   110    1
   133   100    99   ar
   134   122   121    1
   135   110   111    1
   136    99   101   ar
   137   106   107    1
   138   106   108    1
   139   121   118    1
   140   111   112    2
   141   117   118    1
   142   118   119    1
   143   119   120    2
