@<TRIPOS>MOLECULE
tmp/6fjcA00.pdb
 100 91 0 0 0
SMALL
GASTEIGER

@<TRIPOS>ATOM
      1  N        -16.8910  -17.8780  -18.5490 N.3     8  GLN8       -0.1245
      2  CA       -16.3900  -16.5640  -18.1730 C.3     8  GLN8        0.1566
      3  C        -17.5660  -15.6080  -18.0600 C.2     8  GLN8        0.2260
      4  O        -18.3750  -15.4960  -18.9860 O.2     8  GLN8       -0.2867
      5  CB       -15.3710  -16.0450  -19.1870 C.3     8  GLN8        0.0367
      6  CG       -14.5050  -14.9220  -18.6520 C.3     8  GLN8        0.0905
      7  CD       -13.6770  -14.2570  -19.7230 C.2     8  GLN8        0.2608
      8  OE1      -14.1270  -14.0740  -20.8590 O.2     8  GLN8       -0.2717
      9  NE2      -12.4580  -13.8930  -19.3720 N.am    8  GLN8       -0.0878
     10  N        -18.9190  -11.6950  -16.3650 N.3    10  ALA10      -0.1245
     11  CA       -18.6720  -10.4090  -15.7300 C.3    10  ALA10       0.1562
     12  C        -19.9010  -10.0320  -14.9230 C.2    10  ALA10       0.2260
     13  O        -21.0380  -10.3260  -15.3210 O.2    10  ALA10      -0.2867
     14  CB       -18.3450   -9.3090  -16.7540 C.3    10  ALA10       0.0290
     15  N        -21.5350   -6.6850  -12.4480 N.3    12  LYS12      -0.1245
     16  CA       -21.4300   -5.2480  -12.2120 C.3    12  LYS12       0.1561
     17  C        -22.7280   -4.7740  -11.5830 C.2    12  LYS12       0.2260
     18  O        -23.8120   -5.1410  -12.0420 O.2    12  LYS12      -0.2867
     19  CB       -21.1640   -4.4920  -13.5230 C.3    12  LYS12       0.0271
     20  CG       -20.9800   -2.9790  -13.4180 C.3    12  LYS12       0.0035
     21  CD       -21.1270   -2.3150  -14.7930 C.3    12  LYS12       0.0206
     22  CE       -20.6730   -0.8610  -14.7890 C.3    12  LYS12       0.1093
     23  NZ       -19.1900   -0.7540  -14.7810 N.3    12  LYS12      -0.1314
     24  N        -25.9920   -6.2570  -13.3380 N.3    21  ALA21      -0.1245
     25  CA       -25.7590   -6.7470  -14.6880 C.3    21  ALA21       0.1562
     26  C        -24.9830   -8.0540  -14.6510 C.2    21  ALA21       0.2260
     27  O        -23.9900   -8.1740  -13.9320 O.2    21  ALA21      -0.2867
     28  CB       -25.0160   -5.7240  -15.5430 C.3    21  ALA21       0.0290
     29  N        -23.1800  -10.5360  -17.4070 N.3    23  LEU23      -0.1245
     30  CA       -22.6910  -10.6500  -18.7730 C.3    23  LEU23       0.1561
     31  C        -22.1290  -12.0530  -18.9390 C.2    23  LEU23       0.2260
     32  O        -21.0150  -12.3400  -18.4970 O.2    23  LEU23      -0.2867
     33  CB       -21.6290   -9.5860  -19.0580 C.3    23  LEU23       0.0270
     34  CG       -20.7450   -9.7770  -20.2970 C.3    23  LEU23       0.0019
     35  CD1      -21.5520   -9.7910  -21.5710 C.3    23  LEU23       0.0001
     36  CD2      -19.7110   -8.6890  -20.3710 C.3    23  LEU23       0.0001
     37  N        -20.2280  -14.2850  -20.9650 N.3    25  ILE25      -0.1231
     38  CA       -19.2590  -14.0550  -22.0250 C.3    25  ILE25       0.1692
     39  C        -19.0990  -15.3170  -22.8700 C.2    25  ILE25       0.2591
     40  O        -19.5490  -15.3390  -24.0220 O.2    25  ILE25      -0.2718
     41  CB       -17.9090  -13.5730  -21.4540 C.3    25  ILE25       0.0266
     42  CG1      -18.0960  -12.2700  -20.6750 C.3    25  ILE25       0.0019
     43  CG2      -16.9390  -13.3150  -22.5820 C.3    25  ILE25       0.0020
     44  CD1      -16.8740  -11.7640  -19.9810 C.3    25  ILE25       0.0001
     45  N        -18.4810  -16.3780  -22.3220 N.am   26  GLN26      -0.1979
     46  CA       -18.0860  -17.5050  -23.1650 C.3    26  GLN26       0.1601
     47  C        -17.8270  -18.7770  -22.3640 C.2    26  GLN26       0.2287
     48  O        -17.6370  -18.7650  -21.1470 O.2    26  GLN26      -0.2864
     49  CB       -16.8280  -17.1710  -23.9630 C.3    26  GLN26       0.0394
     50  CG       -15.6490  -16.8180  -23.0710 C.3    26  GLN26       0.0908
     51  CD       -14.3810  -16.6810  -23.8500 C.2    26  GLN26       0.2608
     52  OE1      -14.1920  -17.3520  -24.8640 O.2    26  GLN26      -0.2717
     53  NE2      -13.4970  -15.8050  -23.3910 N.am   26  GLN26      -0.0878
     54  N        -18.7060  -18.3710  -27.6910 N.3    70  VAL70      -0.1245
     55  CA       -18.9160  -16.9990  -27.2270 C.3    70  VAL70       0.1561
     56  C        -20.3880  -16.6330  -27.3650 C.2    70  VAL70       0.2260
     57  O        -20.9520  -16.6870  -28.4640 O.2    70  VAL70      -0.2867
     58  CB       -18.0360  -16.0110  -28.0030 C.3    70  VAL70       0.0252
     59  CG1      -18.1830  -14.6120  -27.4560 C.3    70  VAL70       0.0019
     60  CG2      -16.6230  -16.4350  -27.8900 C.3    70  VAL70       0.0019
     61  N        -21.7440  -13.6530  -25.3400 N.3    72  ASN72      -0.1240
     62  CA       -21.8320  -12.2250  -25.0680 C.3    72  ASN72       0.1653
     63  C        -23.2590  -11.7170  -24.9470 C.2    72  ASN72       0.2266
     64  O        -23.7000  -10.9020  -25.7620 O.2    72  ASN72      -0.2867
     65  CB       -21.0990  -11.4530  -26.1470 C.3    72  ASN72       0.1155
     66  CG       -19.6210  -11.3650  -25.8690 C.2    72  ASN72       0.2627
     67  OD1      -19.2020  -11.1430  -24.7270 O.2    72  ASN72      -0.2716
     68  ND2      -18.8200  -11.5630  -26.8990 N.am   72  ASN72      -0.0877
     69  N        -25.9520   -9.9280  -22.0340 N.3    74  VAL74      -0.1245
     70  CA       -26.0820   -9.2840  -20.7350 C.3    74  VAL74       0.1561
     71  C        -27.5310   -9.3820  -20.2800 C.2    74  VAL74       0.2260
     72  O        -28.4610   -9.1770  -21.0680 O.2    74  VAL74      -0.2867
     73  CB       -25.6080   -7.8170  -20.7680 C.3    74  VAL74       0.0252
     74  CG1      -26.3780   -7.0150  -21.7960 C.3    74  VAL74       0.0019
     75  CG2      -25.7490   -7.1840  -19.3950 C.3    74  VAL74       0.0019
     76  N        -30.0250   -7.8970  -17.1460 N.3    76  TRP76      -0.1241
     77  CA       -30.1470   -6.8900  -16.1070 C.3    76  TRP76       0.1605
     78  C        -31.2540   -7.2880  -15.1450 C.2    76  TRP76       0.2264
     79  O        -32.3340   -7.7090  -15.5670 O.2    76  TRP76      -0.2867
     80  CB       -30.4410   -5.5140  -16.7120 C.3    76  TRP76       0.0550
     81  CG       -29.2620   -4.8870  -17.3880 C.ar   76  TRP76       0.0003
     82  CD1      -28.9060   -5.0150  -18.6990 C.ar   76  TRP76       0.0946
     83  CD2      -28.2840   -4.0310  -16.7870 C.ar   76  TRP76       0.0152
     84  NE1      -27.7690   -4.2890  -18.9550 N.ar   76  TRP76      -0.2442
     85  CE2      -27.3670   -3.6720  -17.8000 C.ar   76  TRP76       0.0810
     86  CE3      -28.0960   -3.5280  -15.4950 C.ar   76  TRP76       0.0012
     87  CZ2      -26.2780   -2.8350  -17.5620 C.ar   76  TRP76       0.0191
     88  CZ3      -27.0030   -2.7000  -15.2560 C.ar   76  TRP76       0.0001
     89  CH2      -26.1100   -2.3630  -16.2840 C.ar   76  TRP76       0.0015
     90  N        -16.1750   -3.3720  -12.6400 N.3   121  ARG121     -0.1245
     91  CA       -16.7900   -4.6660  -12.9160 C.3   121  ARG121      0.1563
     92  C        -15.8220   -5.8330  -12.7510 C.2   121  ARG121      0.2260
     93  O        -14.6160   -5.7160  -12.9800 O.2   121  ARG121     -0.2867
     94  CB       -17.4070   -4.6800  -14.3110 C.3   121  ARG121      0.0307
     95  CG       -16.6560   -5.3580  -15.4280 C.3   121  ARG121      0.0489
     96  CD       -17.2800   -4.8540  -16.7390 C.3   121  ARG121      0.2205
     97  NE       -16.9180   -5.6240  -17.9240 N.pl3 121  ARG121     -0.0865
     98  CZ       -17.3110   -5.3160  -19.1600 C.cat 121  ARG121      0.5346
     99  NH1      -18.0740   -4.2450  -19.3950 N.pl3 121  ARG121      0.1354
    100  NH2      -16.9370   -6.0820  -20.1710 N.pl3 121  ARG121      0.1354
@<TRIPOS>BOND
     1    57    56    2
     2    58    60    1
     3    58    59    1
     4    58    55    1
     5    54    55    1
     6    56    55    1
     7    68    66   am
     8    65    66    1
     9    65    62    1
    10    66    67    2
    11    64    63    2
    12    61    62    1
    13    62    63    1
    14    52    51    2
    15    40    39    2
    16    49    46    1
    17    49    50    1
    18    51    53   am
    19    51    50    1
    20    46    47    1
    21    46    45    1
    22    39    45   am
    23    39    38    1
    24    43    41    1
    25    47    48    2
    26    69    70    1
    27    38    41    1
    28    38    37    1
    29    74    73    1
    30    35    34    1
    31    41    42    1
    32    72    71    2
    33     8     7    2
    34    73    70    1
    35    73    75    1
    36    70    71    1
    37    42    44    1
    38    36    34    1
    39    34    33    1
    40   100    98    1
    41     7     9   am
    42     7     6    1
    43    99    98    1
    44     5     6    1
    45     5     2    1
    46    98    97    2
    47    33    30    1
    48     4     3    2
    49    84    82   ar
    50    84    85   ar
    51    31    30    1
    52    31    32    2
    53    30    29    1
    54    82    81   ar
    55     1     2    1
    56     2     3    1
    57    97    96    1
    58    85    87   ar
    59    85    83   ar
    60    87    89   ar
    61    81    83   ar
    62    81    80    1
    63    76    77    1
    64    83    86   ar
    65    14    11    1
    66    96    95    1
    67    80    77    1
    68    10    11    1
    69    89    88   ar
    70    77    78    1
    71    11    12    1
    72    79    78    2
    73    28    25    1
    74    86    88   ar
    75    95    94    1
    76    13    12    2
    77    21    22    1
    78    21    20    1
    79    22    23    1
    80    25    26    1
    81    25    24    1
    82    26    27    2
    83    94    91    1
    84    19    20    1
    85    19    16    1
    86    93    92    2
    87    91    92    1
    88    91    90    1
    89    15    16    1
    90    16    17    1
    91    18    17    2
