@<TRIPOS>MOLECULE
tmp/6fjfD01.pdb
 119 116 0 0 0
SMALL
GASTEIGER

@<TRIPOS>ATOM
      1  N         30.2500  -14.4570  -46.5510 N.3    98  GLY98      -0.1210
      2  CA        29.8290  -15.8490  -46.5390 C.3    98  GLY98       0.1956
      3  C         29.2710  -16.3160  -45.2140 C.2    98  GLY98       0.2612
      4  O         29.4480  -17.4840  -44.8530 O.2    98  GLY98      -0.2717
      5  N         28.6040  -15.4260  -44.4720 N.am   99  ASN99      -0.1960
      6  CA        28.0380  -15.7400  -43.1570 C.3    99  ASN99       0.1819
      7  C         29.1040  -16.2420  -42.1870 C.2    99  ASN99       0.2621
      8  O         28.8270  -17.0720  -41.3190 O.2    99  ASN99      -0.2715
      9  CB        26.8980  -16.7590  -43.2630 C.3    99  ASN99       0.1195
     10  CG        25.8600  -16.3700  -44.2960 C.2    99  ASN99       0.2630
     11  OD1       25.8420  -16.9060  -45.4050 O.2    99  ASN99      -0.2716
     12  ND2       24.9880  -15.4320  -43.9380 N.am   99  ASN99      -0.0877
     13  N         30.3290  -15.7420  -42.3270 N.am  100  ASN100     -0.1972
     14  CA        31.4580  -16.1590  -41.5010 C.3   100  ASN100      0.1688
     15  C         31.9050  -14.9640  -40.6660 C.2   100  ASN100      0.2292
     16  O         32.4010  -13.9720  -41.2130 O.2   100  ASN100     -0.2864
     17  CB        32.5960  -16.6920  -42.3720 C.3   100  ASN100      0.1181
     18  CG        33.6760  -17.3900  -41.5670 C.2   100  ASN100      0.2629
     19  OD1       33.8550  -17.1250  -40.3790 O.2   100  ASN100     -0.2716
     20  ND2       34.4080  -18.2840  -42.2170 N.am  100  ASN100     -0.0877
     21  N         35.4600  -13.7780  -41.1310 N.3   103  LYS103     -0.1245
     22  CA        35.6410  -13.0220  -42.3670 C.3   103  LYS103      0.1561
     23  C         35.2450  -11.5640  -42.1760 C.2   103  LYS103      0.2260
     24  O         35.9370  -10.6560  -42.6510 O.2   103  LYS103     -0.2867
     25  CB        34.8230  -13.6500  -43.4980 C.3   103  LYS103      0.0271
     26  CG        35.2730  -15.0370  -43.9360 C.3   103  LYS103      0.0035
     27  CD        36.3010  -14.9710  -45.0490 C.3   103  LYS103      0.0206
     28  CE        36.4060  -16.3020  -45.7860 C.3   103  LYS103      0.1093
     29  NZ        35.1480  -16.6550  -46.5020 N.3   103  LYS103     -0.1314
     30  N         18.8710  -18.9480  -41.6530 N.3   177  ASP177     -0.1225
     31  CA        19.5160  -19.0480  -42.9560 C.3   177  ASP177      0.1805
     32  C         20.7110  -19.9880  -42.9570 C.2   177  ASP177      0.2598
     33  O         21.0160  -20.5830  -43.9950 O.2   177  ASP177     -0.2718
     34  CB        19.9710  -17.6640  -43.4350 C.3   177  ASP177      0.1424
     35  CG        18.8490  -16.8620  -44.0610 C.2   177  ASP177      0.3668
     36  OD1       17.8840  -17.4770  -44.5650 O.co2 177  ASP177     -0.2456
     37  OD2       18.9330  -15.6160  -44.0550 O.co2 177  ASP177     -0.2456
     38  N         21.3900  -20.1360  -41.8220 N.am  178  THR178     -0.1939
     39  CA        22.5600  -20.9950  -41.7370 C.3   178  THR178      0.2028
     40  C         22.6290  -21.5980  -40.3390 C.2   178  THR178      0.2642
     41  O         22.0230  -21.0880  -39.3930 O.2   178  THR178     -0.2714
     42  CB        23.8460  -20.2250  -42.0730 C.3   178  THR178      0.1808
     43  OG1       24.8670  -21.1440  -42.4770 O.3   178  THR178     -0.2208
     44  CG2       24.3310  -19.4370  -40.8690 C.3   178  THR178      0.0379
     45  N         23.3740  -22.7010  -40.2200 N.am  179  VAL179     -0.1963
     46  CA        23.4480  -23.4080  -38.9440 C.3   179  VAL179      0.1727
     47  C         24.4690  -22.8030  -37.9850 C.2   179  VAL179      0.2616
     48  O         24.3940  -23.0590  -36.7780 O.2   179  VAL179     -0.2715
     49  CB        23.7710  -24.8990  -39.1480 C.3   179  VAL179      0.0290
     50  CG1       22.6790  -25.5760  -39.9580 C.3   179  VAL179      0.0023
     51  CG2       25.1280  -25.0700  -39.8190 C.3   179  VAL179      0.0023
     52  N         25.4190  -22.0060  -38.4730 N.am  180  VAL180     -0.1977
     53  CA        26.4660  -21.4720  -37.6080 C.3   180  VAL180      0.1596
     54  C         26.0390  -20.1350  -37.0120 C.2   180  VAL180      0.2287
     55  O         26.8710  -19.3770  -36.5050 O.2   180  VAL180     -0.2864
     56  CB        27.8010  -21.3330  -38.3620 C.3   180  VAL180      0.0276
     57  CG1       28.3490  -22.7060  -38.7130 C.3   180  VAL180      0.0022
     58  CG2       27.6260  -20.4800  -39.6080 C.3   180  VAL180      0.0022
     59  N         26.5970  -27.3020  -31.1310 N.3   379  MET379     -0.1245
     60  CA        27.4830  -27.4480  -32.2770 C.3   379  MET379      0.1570
     61  C         28.9520  -27.3550  -31.8890 C.2   379  MET379      0.2261
     62  O         29.7910  -28.0450  -32.4780 O.2   379  MET379     -0.2867
     63  CB        27.1590  -26.3890  -33.3320 C.3   379  MET379      0.0387
     64  CG        25.8260  -26.5970  -34.0160 C.3   379  MET379      0.0595
     65  SD        25.6550  -25.5460  -35.4630 S.3   379  MET379     -0.1393
     66  CE        27.0380  -26.1020  -36.4540 C.3   379  MET379      0.0692
     67  N         30.6750  -30.5650  -30.8090 N.3   382  ARG382     -0.1245
     68  CA        31.1290  -31.3520  -31.9440 C.3   382  ARG382      0.1563
     69  C         32.1240  -30.6030  -32.8210 C.2   382  ARG382      0.2260
     70  O         32.6740  -31.1990  -33.7540 O.2   382  ARG382     -0.2867
     71  CB        29.9320  -31.7900  -32.7900 C.3   382  ARG382      0.0307
     72  CG        28.7660  -32.3280  -31.9790 C.3   382  ARG382      0.0489
     73  CD        27.5890  -32.6990  -32.8680 C.3   382  ARG382      0.2205
     74  NE        27.1210  -31.5700  -33.6690 N.pl3 382  ARG382     -0.0865
     75  CZ        27.4030  -31.3990  -34.9570 C.cat 382  ARG382      0.5346
     76  NH1       28.1530  -32.2850  -35.5990 N.pl3 382  ARG382      0.1354
     77  NH2       26.9330  -30.3410  -35.6040 N.pl3 382  ARG382      0.1354
     78  N         31.6780  -28.3170  -35.0730 N.3   384  ALA384     -0.1231
     79  CA        31.1930  -28.3640  -36.4450 C.3   384  ALA384      0.1694
     80  C         31.4810  -27.0500  -37.1580 C.2   384  ALA384      0.2592
     81  O         31.2210  -25.9690  -36.6190 O.2   384  ALA384     -0.2718
     82  CB        29.6940  -28.6600  -36.4700 C.3   384  ALA384      0.0304
     83  N         32.0250  -27.1520  -38.3720 N.am  385  PHE385     -0.1976
     84  CA        32.3380  -26.0120  -39.2310 C.3   385  PHE385      0.1639
     85  C         33.3230  -25.0460  -38.5840 C.2   385  PHE385      0.2290
     86  O         33.4800  -23.9120  -39.0490 O.2   385  PHE385     -0.2864
     87  CB        31.0650  -25.2670  -39.6500 C.3   385  PHE385      0.0560
     88  CG        30.0310  -26.1510  -40.2850 C.ar  385  PHE385     -0.0200
     89  CD1       28.9620  -26.6310  -39.5480 C.ar  385  PHE385     -0.0042
     90  CD2       30.1360  -26.5150  -41.6170 C.ar  385  PHE385     -0.0042
     91  CE1       28.0130  -27.4480  -40.1290 C.ar  385  PHE385     -0.0003
     92  CE2       29.1890  -27.3330  -42.2040 C.ar  385  PHE385     -0.0003
     93  CZ        28.1270  -27.8010  -41.4600 C.ar  385  PHE385     -0.0000
     94  N         36.1160  -23.4230  -40.7040 N.3   388  TRP388     -0.1227
     95  CA        35.8110  -22.2050  -41.4450 C.3   388  TRP388      0.1737
     96  C         36.2130  -20.9590  -40.6660 C.2   388  TRP388      0.2595
     97  O         36.5340  -19.9300  -41.2700 O.2   388  TRP388     -0.2718
     98  CB        34.3250  -22.1580  -41.7970 C.3   388  TRP388      0.0564
     99  CG        33.9590  -23.0960  -42.8950 C.ar  388  TRP388      0.0003
    100  CD1       33.4320  -24.3460  -42.7640 C.ar  388  TRP388      0.0946
    101  CD2       34.1070  -22.8680  -44.3020 C.ar  388  TRP388      0.0152
    102  NE1       33.2370  -24.9090  -44.0020 N.ar  388  TRP388     -0.2442
    103  CE2       33.6440  -24.0220  -44.9630 C.ar  388  TRP388      0.0810
    104  CE3       34.5850  -21.7990  -45.0660 C.ar  388  TRP388      0.0012
    105  CZ2       33.6420  -24.1370  -46.3520 C.ar  388  TRP388      0.0191
    106  CZ3       34.5810  -21.9150  -46.4460 C.ar  388  TRP388      0.0001
    107  CH2       34.1140  -23.0750  -47.0740 C.ar  388  TRP388      0.0015
    108  N         36.2110  -21.0340  -39.3330 N.am  389  TYR389     -0.1976
    109  CA        36.5790  -19.8970  -38.4950 C.3   389  TYR389      0.1639
    110  C         38.0740  -19.8480  -38.2090 C.2   389  TYR389      0.2290
    111  O         38.6870  -18.7780  -38.3070 O.2   389  TYR389     -0.2864
    112  CB        35.7990  -19.9330  -37.1790 C.3   389  TYR389      0.0560
    113  CG        34.3230  -19.6720  -37.3450 C.ar  389  TYR389     -0.0198
    114  CD1       33.4460  -20.7050  -37.6420 C.ar  389  TYR389     -0.0009
    115  CD2       33.8060  -18.3910  -37.2070 C.ar  389  TYR389     -0.0009
    116  CE1       32.0960  -20.4720  -37.7960 C.ar  389  TYR389      0.0417
    117  CE2       32.4560  -18.1470  -37.3590 C.ar  389  TYR389      0.0417
    118  CZ        31.6060  -19.1920  -37.6530 C.ar  389  TYR389      0.1957
    119  OH        30.2600  -18.9630  -37.8050 O.3   389  TYR389     -0.2866
@<TRIPOS>BOND
     1   107   106   ar
     2   107   105   ar
     3     1     2    1
     4     2     3    1
     5    29    28    1
     6   106   104   ar
     7   105   103   ar
     8    28    27    1
     9    11    10    2
    10     3     4    2
    11     3     5   am
    12   104   101   ar
    13    27    26    1
    14   103   101   ar
    15   103   102   ar
    16    36    35   ar
    17     5     6    1
    18   101    99   ar
    19    10    12   am
    20    10     9    1
    21    35    37   ar
    22    35    34    1
    23   102   100   ar
    24    33    32    2
    25    26    25    1
    26    25    22    1
    27    34    31    1
    28     9     6    1
    29     6     7    1
    30    32    31    1
    31    32    38   am
    32    31    30    1
    33    99   100   ar
    34    99    98    1
    35    24    23    2
    36    43    42    1
    37    17    18    1
    38    17    14    1
    39    22    23    1
    40    22    21    1
    41    13     7   am
    42    13    14    1
    43    20    18   am
    44    92    90   ar
    45    92    93   ar
    46     7     8    2
    47    42    39    1
    48    42    44    1
    49    38    39    1
    50    98    95    1
    51    39    40    1
    52    90    88   ar
    53    18    19    2
    54    14    15    1
    55    93    91   ar
    56    95    94    1
    57    95    96    1
    58    97    96    2
    59    16    15    2
    60    96   108   am
    61    40    45   am
    62    40    41    2
    63    88    87    1
    64    88    89   ar
    65    45    46    1
    66    91    89   ar
    67    50    49    1
    68    51    49    1
    69    87    84    1
    70    58    56    1
    71   108   109    1
    72    84    85    1
    73    84    83    1
    74    49    46    1
    75    86    85    2
    76    46    47    1
    77    57    56    1
    78   109   110    1
    79   109   112    1
    80    52    47   am
    81    52    53    1
    82    83    80   am
    83    56    53    1
    84   111   110    2
    85    47    48    2
    86   119   118    1
    87   116   118   ar
    88   116   114   ar
    89   118   117   ar
    90   114   113   ar
    91    53    54    1
    92   117   115   ar
    93   113   115   ar
    94   113   112    1
    95    80    81    2
    96    80    79    1
    97    54    55    2
    98    82    79    1
    99    66    65    1
   100    79    78    1
   101    77    75    1
   102    76    75    1
   103    65    64    1
   104    75    74    2
   105    64    63    1
   106    70    69    2
   107    74    73    1
   108    63    60    1
   109    73    72    1
   110    69    68    1
   111    71    72    1
   112    71    68    1
   113    62    61    2
   114    60    61    1
   115    60    59    1
   116    68    67    1
