@<TRIPOS>MOLECULE
tmp/6fjmD01.pdb
 86 86 0 0 0
SMALL
GASTEIGER

@<TRIPOS>ATOM
      1  N         30.1840  -13.8420  -46.6420 N.3    97  GLY97      -0.1210
      2  CA        29.8310  -15.2520  -46.4990 C.3    97  GLY97       0.1956
      3  C         29.4220  -15.6480  -45.0980 C.2    97  GLY97       0.2612
      4  O         29.7300  -16.7600  -44.6500 O.2    97  GLY97      -0.2717
      5  N         28.7230  -14.7620  -44.3880 N.am   98  ASN98      -0.1960
      6  CA        28.2460  -15.0680  -43.0410 C.3    98  ASN98       0.1819
      7  C         29.3970  -15.5270  -42.1490 C.2    98  ASN98       0.2621
      8  O         29.2390  -16.4020  -41.2950 O.2    98  ASN98      -0.2715
      9  CB        27.1440  -16.1330  -43.0670 C.3    98  ASN98       0.1195
     10  CG        25.9120  -15.7080  -43.8590 C.2    98  ASN98       0.2630
     11  OD1       25.5430  -14.5350  -43.8880 O.2    98  ASN98      -0.2716
     12  ND2       25.2670  -16.6780  -44.5070 N.am   98  ASN98      -0.0877
     13  N         30.5730  -14.9450  -42.3600 N.am   99  ASN99      -0.1972
     14  CA        31.7840  -15.3290  -41.6380 C.3    99  ASN99       0.1688
     15  C         32.2020  -14.1470  -40.7680 C.2    99  ASN99       0.2292
     16  O         32.7800  -13.1750  -41.2620 O.2    99  ASN99      -0.2864
     17  CB        32.8890  -15.7500  -42.6080 C.3    99  ASN99       0.1181
     18  CG        34.0820  -16.3500  -41.9020 C.2    99  ASN99       0.2629
     19  OD1       34.4030  -15.9780  -40.7750 O.2    99  ASN99      -0.2716
     20  ND2       34.7400  -17.2880  -42.5560 N.am   99  ASN99      -0.0877
     21  N         18.0890  -20.5930  -41.4750 N.3   176  ASP176     -0.1225
     22  CA        18.5810  -21.9310  -41.1690 C.3   176  ASP176      0.1805
     23  C         20.0990  -22.0500  -41.2610 C.2   176  ASP176      0.2598
     24  O         20.6380  -23.1330  -41.0120 O.2   176  ASP176     -0.2718
     25  CB        17.9150  -22.9620  -42.0910 C.3   176  ASP176      0.1424
     26  CG        18.0390  -22.6020  -43.5600 C.2   176  ASP176      0.3668
     27  OD1       18.8550  -21.7180  -43.8950 O.co2 176  ASP176     -0.2456
     28  OD2       17.3110  -23.2020  -44.3800 O.co2 176  ASP176     -0.2456
     29  N         20.7970  -20.9710  -41.6090 N.am  177  THR177     -0.1939
     30  CA        22.2550  -20.9600  -41.5680 C.3   177  THR177      0.2028
     31  C         22.7560  -21.4560  -40.2150 C.2   177  THR177      0.2642
     32  O         22.3860  -20.9160  -39.1670 O.2   177  THR177     -0.2714
     33  CB        22.7630  -19.5400  -41.8360 C.3   177  THR177      0.1808
     34  OG1       22.2040  -19.0640  -43.0650 O.3   177  THR177     -0.2208
     35  CG2       24.2810  -19.5120  -41.9320 C.3   177  THR177      0.0379
     36  N         23.6140  -22.4790  -40.2410 N.am  178  VAL178     -0.1963
     37  CA        23.9820  -23.1590  -38.9990 C.3   178  VAL178      0.1727
     38  C         24.9710  -22.3500  -38.1610 C.2   178  VAL178      0.2616
     39  O         24.9550  -22.4410  -36.9280 O.2   178  VAL178     -0.2715
     40  CB        24.5430  -24.5600  -39.2940 C.3   178  VAL178      0.0290
     41  CG1       23.4810  -25.4260  -39.9420 C.3   178  VAL178      0.0023
     42  CG2       25.7800  -24.4640  -40.1700 C.3   178  VAL178      0.0023
     43  N         25.8510  -21.5650  -38.7930 N.am  179  VAL179     -0.1977
     44  CA        26.9010  -20.8640  -38.0520 C.3   179  VAL179      0.1596
     45  C         26.4110  -19.6060  -37.3540 C.2   179  VAL179      0.2287
     46  O         27.2140  -18.9150  -36.7150 O.2   179  VAL179     -0.2864
     47  CB        28.0780  -20.4860  -38.9750 C.3   179  VAL179      0.0276
     48  CG1       28.6860  -21.7320  -39.6060 C.3   179  VAL179      0.0022
     49  CG2       27.6220  -19.5020  -40.0430 C.3   179  VAL179      0.0022
     50  N         32.6600  -26.7680  -37.6070 N.3   388  PHE388     -0.1241
     51  CA        32.7700  -25.6590  -38.5510 C.3   388  PHE388      0.1605
     52  C         33.7910  -24.6140  -38.1250 C.2   388  PHE388      0.2264
     53  O         33.7750  -23.4870  -38.6370 O.2   388  PHE388     -0.2867
     54  CB        31.4080  -24.9910  -38.7800 C.3   388  PHE388      0.0534
     55  CG        30.2620  -25.9600  -38.8270 C.ar  388  PHE388     -0.0203
     56  CD1       30.2460  -26.9930  -39.7510 C.ar  388  PHE388     -0.0042
     57  CD2       29.2010  -25.8400  -37.9470 C.ar  388  PHE388     -0.0042
     58  CE1       29.1950  -27.8870  -39.7940 C.ar  388  PHE388     -0.0003
     59  CE2       28.1460  -26.7320  -37.9840 C.ar  388  PHE388     -0.0003
     60  CZ        28.1440  -27.7580  -38.9100 C.ar  388  PHE388     -0.0000
     61  N         36.3670  -22.6240  -40.6440 N.3   391  TRP391     -0.1227
     62  CA        35.9570  -21.3850  -41.2940 C.3   391  TRP391      0.1737
     63  C         36.4840  -20.1590  -40.5570 C.2   391  TRP391      0.2595
     64  O         36.7760  -19.1370  -41.1880 O.2   391  TRP391     -0.2718
     65  CB        34.4340  -21.3330  -41.4010 C.3   391  TRP391      0.0564
     66  CG        33.8700  -22.4120  -42.2640 C.ar  391  TRP391      0.0003
     67  CD1       33.3600  -23.6070  -41.8550 C.ar  391  TRP391      0.0946
     68  CD2       33.7660  -22.3990  -43.6940 C.ar  391  TRP391      0.0152
     69  NE1       32.9400  -24.3390  -42.9410 N.ar  391  TRP391     -0.2442
     70  CE2       33.1790  -23.6180  -44.0810 C.ar  391  TRP391      0.0810
     71  CE3       34.1100  -21.4730  -44.6820 C.ar  391  TRP391      0.0012
     72  CZ2       32.9280  -23.9350  -45.4110 C.ar  391  TRP391      0.0191
     73  CZ3       33.8580  -21.7870  -46.0000 C.ar  391  TRP391      0.0001
     74  CH2       33.2760  -23.0080  -46.3540 C.ar  391  TRP391      0.0015
     75  N         36.6190  -20.2380  -39.2320 N.am  392  TYR392     -0.1976
     76  CA        37.1100  -19.1120  -38.4430 C.3   392  TYR392      0.1639
     77  C         38.6100  -19.1860  -38.1940 C.2   392  TYR392      0.2290
     78  O         39.3060  -18.1710  -38.3130 O.2   392  TYR392     -0.2864
     79  CB        36.3710  -19.0370  -37.1080 C.3   392  TYR392      0.0560
     80  CG        34.8770  -18.8910  -37.2540 C.ar  392  TYR392     -0.0198
     81  CD1       34.0670  -20.0060  -37.4160 C.ar  392  TYR392     -0.0009
     82  CD2       34.2760  -17.6380  -37.2330 C.ar  392  TYR392     -0.0009
     83  CE1       32.7060  -19.8820  -37.5540 C.ar  392  TYR392      0.0417
     84  CE2       32.9080  -17.5020  -37.3700 C.ar  392  TYR392      0.0417
     85  CZ        32.1280  -18.6310  -37.5290 C.ar  392  TYR392      0.1957
     86  OH        30.7650  -18.5180  -37.6640 O.3   392  TYR392     -0.2866
@<TRIPOS>BOND
     1     1     2    1
     2     2     3    1
     3    74    73   ar
     4    74    72   ar
     5    73    71   ar
     6    72    70   ar
     7     3     4    2
     8     3     5   am
     9    71    68   ar
    10    12    10   am
    11     5     6    1
    12    28    26   ar
    13    70    68   ar
    14    70    69   ar
    15    27    26   ar
    16    11    10    2
    17    10     9    1
    18    68    66   ar
    19    26    25    1
    20     9     6    1
    21    34    33    1
    22     6     7    1
    23    69    67   ar
    24    17    18    1
    25    17    14    1
    26    20    18   am
    27    13     7   am
    28    13    14    1
    29    66    67   ar
    30    66    65    1
    31     7     8    2
    32    25    22    1
    33    35    33    1
    34    18    19    2
    35    33    30    1
    36    14    15    1
    37    29    30    1
    38    29    23   am
    39    30    31    1
    40    21    22    1
    41    65    62    1
    42    62    61    1
    43    62    63    1
    44    16    15    2
    45    23    22    1
    46    23    24    2
    47    64    63    2
    48    63    75   am
    49    36    31   am
    50    36    37    1
    51    31    32    2
    52    42    40    1
    53    49    47    1
    54    41    40    1
    55    58    56   ar
    56    58    60   ar
    57    56    55   ar
    58    48    47    1
    59    40    37    1
    60    75    76    1
    61    37    38    1
    62    47    44    1
    63    60    59   ar
    64    55    54    1
    65    55    57   ar
    66    43    38   am
    67    43    44    1
    68    54    51    1
    69    53    52    2
    70    51    52    1
    71    51    50    1
    72    76    77    1
    73    76    79    1
    74    78    77    2
    75    38    39    2
    76    44    45    1
    77    59    57   ar
    78    86    85    1
    79    83    85   ar
    80    83    81   ar
    81    85    84   ar
    82    81    80   ar
    83    84    82   ar
    84    45    46    2
    85    80    82   ar
    86    80    79    1
