@<TRIPOS>MOLECULE
tmp/6fjzA00.pdb
 152 142 0 0 0
SMALL
GASTEIGER

@<TRIPOS>ATOM
      1  N        -19.4290   23.3530   37.9970 N.3    21  ILE21      -0.1231
      2  CA       -19.0180   22.8930   39.3260 C.3    21  ILE21       0.1692
      3  C        -17.7830   23.6460   39.8110 C.2    21  ILE21       0.2593
      4  O        -17.8000   24.2690   40.8750 O.2    21  ILE21      -0.2718
      5  CB       -18.7780   21.3670   39.3460 C.3    21  ILE21       0.0266
      6  CG1      -20.0770   20.6070   39.0770 C.3    21  ILE21       0.0019
      7  CG2      -18.1870   20.9500   40.6910 C.3    21  ILE21       0.0020
      8  CD1      -19.8860   19.1150   38.9510 C.3    21  ILE21       0.0001
      9  N        -16.6940   23.5770   39.0560 N.am   22  GLY22      -0.1942
     10  CA       -15.4690   24.2550   39.4330 C.3    22  GLY22       0.2014
     11  C        -14.5140   24.2670   38.2630 C.2    22  GLY22       0.2639
     12  O        -14.8110   23.7490   37.1840 O.2    22  GLY22      -0.2714
     13  N        -13.3490   24.8650   38.4940 N.am   23  GLU23      -0.1963
     14  CA       -12.3290   24.9480   37.4610 C.3    23  GLU23       0.1733
     15  C        -10.9520   25.0120   38.1030 C.2    23  GLU23       0.2616
     16  O        -10.8050   25.3560   39.2790 O.2    23  GLU23      -0.2715
     17  CB       -12.5430   26.1640   36.5620 C.3    23  GLU23       0.0429
     18  CG       -12.5550   27.4600   37.3280 C.3    23  GLU23       0.1163
     19  CD       -13.1560   28.5760   36.5250 C.2    23  GLU23       0.3649
     20  OE1      -12.4870   29.0540   35.5830 O.co2  23  GLU23      -0.2457
     21  OE2      -14.3070   28.9580   36.8250 O.co2  23  GLU23      -0.2457
     22  N         -9.9430   24.6880   37.2950 N.am   24  GLY24      -0.1955
     23  CA        -8.5490   24.7300   37.6830 C.3    24  GLY24       0.1869
     24  C         -7.7200   25.5280   36.6970 C.2    24  GLY24       0.2309
     25  O         -8.2730   26.3160   35.9260 O.2    24  GLY24      -0.2863
     26  N         -8.5050   23.6790   33.0670 N.3    27  GLY27      -0.1210
     27  CA        -9.7130   22.9320   32.7800 C.3    27  GLY27       0.1956
     28  C        -10.8890   23.4540   33.5710 C.2    27  GLY27       0.2612
     29  O        -10.7850   24.4250   34.3220 O.2    27  GLY27      -0.2717
     30  N        -12.0210   22.7810   33.3870 N.am   28  MET28      -0.1965
     31  CA       -13.2630   23.1460   34.0470 C.3    28  MET28       0.1736
     32  C        -14.0920   21.8870   34.2540 C.2    28  MET28       0.2616
     33  O        -14.1560   21.0270   33.3710 O.2    28  MET28      -0.2715
     34  CB       -14.0340   24.1750   33.2160 C.3    28  MET28       0.0427
     35  CG       -15.2850   24.6910   33.8670 C.3    28  MET28       0.0599
     36  SD       -16.0970   25.9090   32.7920 S.3    28  MET28      -0.1393
     37  CE       -14.7770   27.0950   32.5550 C.3    28  MET28       0.0692
     38  N        -14.7030   21.7640   35.4290 N.am   29  VAL29      -0.1977
     39  CA       -15.5700   20.6300   35.7280 C.3    29  VAL29       0.1596
     40  C        -17.0110   21.1090   35.6820 C.2    29  VAL29       0.2287
     41  O        -17.3500   22.1490   36.2660 O.2    29  VAL29      -0.2864
     42  CB       -15.2400   19.9870   37.0860 C.3    29  VAL29       0.0276
     43  CG1      -16.1340   18.7950   37.3320 C.3    29  VAL29       0.0022
     44  CG2      -13.7780   19.5420   37.1300 C.3    29  VAL29       0.0022
     45  N        -20.3390   13.8230   35.9420 N.3    42  ALA42      -0.1245
     46  CA       -19.3610   14.8960   35.9220 C.3    42  ALA42       0.1562
     47  C        -18.5510   14.8010   34.6410 C.2    42  ALA42       0.2260
     48  O        -18.1620   13.7060   34.2270 O.2    42  ALA42      -0.2867
     49  CB       -18.4260   14.8250   37.1290 C.3    42  ALA42       0.0290
     50  N        -15.0610   16.6020   33.1270 N.3    44  LYS44      -0.1245
     51  CA       -13.9120   17.4790   33.3380 C.3    44  LYS44       0.1561
     52  C        -13.2890   17.8100   31.9860 C.2    44  LYS44       0.2260
     53  O        -12.7220   16.9330   31.3250 O.2    44  LYS44      -0.2867
     54  CB       -12.8780   16.8280   34.2420 C.3    44  LYS44       0.0271
     55  CG       -13.4570   15.9280   35.3140 C.3    44  LYS44       0.0035
     56  CD       -12.3750   14.9880   35.8470 C.3    44  LYS44       0.0206
     57  CE       -11.1490   15.7330   36.2740 C.3    44  LYS44       0.1093
     58  NZ       -10.1860   14.8290   36.9620 N.3    44  LYS44      -0.1314
     59  N        -12.0940    6.5290   41.7950 N.3    74  ILE74      -0.1245
     60  CA       -13.0250    7.0290   40.7910 C.3    74  ILE74       0.1561
     61  C        -12.7130    6.3760   39.4490 C.2    74  ILE74       0.2260
     62  O        -11.5480    6.1730   39.0770 O.2    74  ILE74      -0.2867
     63  CB       -12.9660    8.5640   40.7050 C.3    74  ILE74       0.0252
     64  CG1      -14.1370    9.1070   39.8800 C.3    74  ILE74       0.0019
     65  CG2      -11.6490    9.0190   40.0770 C.3    74  ILE74       0.0019
     66  CD1      -15.4980    8.9810   40.5820 C.3    74  ILE74       0.0001
     67  N        -17.0120   11.1160   34.4360 N.3    95  GLN95      -0.1231
     68  CA       -16.9390   10.3140   35.6460 C.3    95  GLN95       0.1698
     69  C        -18.2990   10.2960   36.3200 C.2    95  GLN95       0.2592
     70  O        -19.1680   11.1180   36.0280 O.2    95  GLN95      -0.2718
     71  CB       -15.8910   10.8660   36.6190 C.3    95  GLN95       0.0381
     72  CG       -14.4640   10.8000   36.1000 C.3    95  GLN95       0.0905
     73  CD       -13.4680   11.4420   37.0530 C.2    95  GLN95       0.2608
     74  OE1      -13.8140   12.3300   37.8340 O.2    95  GLN95      -0.2717
     75  NE2      -12.2210   10.9960   36.9860 N.am   95  GLN95      -0.0878
     76  N        -18.4740    9.3550   37.2490 N.am   96  ASP96      -0.1960
     77  CA       -19.6600    9.4100   38.0960 C.3    96  ASP96       0.1840
     78  C        -19.7370   10.7720   38.7790 C.2    96  ASP96       0.2622
     79  O        -18.7240   11.3310   39.2240 O.2    96  ASP96      -0.2715
     80  CB       -19.6310    8.3010   39.1520 C.3    96  ASP96       0.1450
     81  CG       -19.7280    6.9180   38.5530 C.2    96  ASP96       0.3671
     82  OD1      -20.2500    6.7660   37.4220 O.co2  96  ASP96      -0.2456
     83  OD2      -19.2730    5.9780   39.2260 O.co2  96  ASP96      -0.2456
     84  N        -20.9410   11.3080   38.8650 N.am   97  LEU97      -0.1963
     85  CA       -21.1240   12.5800   39.5410 C.3    97  LEU97       0.1728
     86  C        -21.0920   12.3440   41.0470 C.2    97  LEU97       0.2616
     87  O        -21.8870   11.5590   41.5790 O.2    97  LEU97      -0.2715
     88  CB       -22.4310   13.2290   39.1050 C.3    97  LEU97       0.0311
     89  CG       -22.7370   14.5430   39.8090 C.3    97  LEU97       0.0022
     90  CD1      -21.7370   15.6010   39.4210 C.3    97  LEU97       0.0001
     91  CD2      -24.1670   15.0010   39.4720 C.3    97  LEU97       0.0001
     92  N        -20.1510   12.9910   41.7240 N.am   98  MET98      -0.1963
     93  CA       -20.0320   12.9250   43.1690 C.3    98  MET98       0.1736
     94  C        -20.6320   14.1880   43.7820 C.2    98  MET98       0.2616
     95  O        -20.8020   15.2010   43.1090 O.2    98  MET98      -0.2715
     96  CB       -18.5600   12.7410   43.5490 C.3    98  MET98       0.0427
     97  CG       -17.9400   11.5150   42.8580 C.3    98  MET98       0.0599
     98  SD       -18.6520    9.9300   43.4300 S.3    98  MET98      -0.1393
     99  CE       -17.6840    9.7280   44.9270 C.3    98  MET98       0.0692
    100  N        -21.0250   14.1030   45.0510 N.am   99  GLU99      -0.1963
    101  CA       -21.6950   15.2540   45.6580 C.3    99  GLU99       0.1733
    102  C        -20.6930   16.3250   46.0690 C.2    99  GLU99       0.2617
    103  O        -20.9450   17.5220   45.8840 O.2    99  GLU99      -0.2715
    104  CB       -22.5410   14.8140   46.8580 C.3    99  GLU99       0.0429
    105  CG       -23.2420   15.9480   47.5940 C.3    99  GLU99       0.1163
    106  CD       -24.3540   15.4610   48.5170 C.2    99  GLU99       0.3649
    107  OE1      -25.3700   14.9430   48.0070 O.co2  99  GLU99      -0.2457
    108  OE2      -24.2080   15.5790   49.7540 O.co2  99  GLU99      -0.2457
    109  N        -19.5390   15.9190   46.5850 N.am  100  THR100     -0.1937
    110  CA       -18.5600   16.8680   47.0780 C.3   100  THR100      0.2028
    111  C        -17.1980   16.1780   47.1140 C.2   100  THR100      0.2642
    112  O        -17.0470   15.0300   46.6840 O.2   100  THR100     -0.2714
    113  CB       -18.9880   17.3990   48.4550 C.3   100  THR100      0.1808
    114  OG1      -18.1070   18.4490   48.8650 O.3   100  THR100     -0.2208
    115  CG2      -18.9890   16.2840   49.5030 C.3   100  THR100      0.0379
    116  N        -16.1930   16.9080   47.5780 N.am  101  ASP101     -0.1971
    117  CA       -14.9280   16.2900   47.9490 C.3   101  ASP101      0.1709
    118  C        -14.6410   16.6060   49.4090 C.2   101  ASP101      0.2293
    119  O        -15.3220   17.4190   50.0340 O.2   101  ASP101     -0.2864
    120  CB       -13.7720   16.7280   47.0240 C.3   101  ASP101      0.1436
    121  CG       -13.4730   18.2190   47.0660 C.2   101  ASP101      0.3671
    122  OD1      -13.2920   18.7810   48.1730 O.co2 101  ASP101     -0.2456
    123  OD2      -13.3640   18.8210   45.9660 O.co2 101  ASP101     -0.2456
    124  N        -13.9000   20.4510   50.3450 N.3   104  LYS104     -0.1245
    125  CA       -15.1120   21.2560   50.4880 C.3   104  LYS104      0.1561
    126  C        -15.8980   20.8400   51.7200 C.2   104  LYS104      0.2260
    127  O        -16.4050   21.6900   52.4640 O.2   104  LYS104     -0.2867
    128  CB       -15.9590   21.1280   49.2210 C.3   104  LYS104      0.0271
    129  CG       -15.2240   21.6600   47.9790 C.3   104  LYS104      0.0035
    130  CD       -16.1510   21.8490   46.7650 C.3   104  LYS104      0.0206
    131  CE       -16.6210   20.4880   46.2060 C.3   104  LYS104      0.1093
    132  NZ       -17.2270   20.6380   44.8500 N.3   104  LYS104     -0.1314
    133  N         -8.8160   17.3210   48.8190 N.3   143  SER143     -0.1217
    134  CA        -9.4820   17.6120   47.5520 C.3   143  SER143      0.1889
    135  C         -9.3110   16.4990   46.5280 C.2   143  SER143      0.2288
    136  O         -9.9360   16.5680   45.4620 O.2   143  SER143     -0.2866
    137  CB        -8.9850   18.9400   46.9620 C.3   143  SER143      0.2089
    138  OG        -7.5950   18.8720   46.6700 O.3   143  SER143     -0.2183
    139  N        -13.2160   12.1750   46.6020 N.3   146  LEU146     -0.1245
    140  CA       -14.5910   12.5180   46.2670 C.3   146  LEU146      0.1561
    141  C        -15.5610   11.7310   47.1380 C.2   146  LEU146      0.2260
    142  O        -15.3010   10.5880   47.5160 O.2   146  LEU146     -0.2867
    143  CB       -14.8960   12.2340   44.7860 C.3   146  LEU146      0.0270
    144  CG       -14.0110   12.9210   43.7450 C.3   146  LEU146      0.0019
    145  CD1      -14.3510   12.4440   42.3230 C.3   146  LEU146      0.0001
    146  CD2      -14.1720   14.4240   43.8370 C.3   146  LEU146      0.0001
    147  N         -9.2030   10.1490   43.7490 N.3   155  CYS155     -0.1235
    148  CA        -9.1940   10.6460   42.3970 C.3   155  CYS155      0.1677
    149  C         -7.8560   11.3070   42.1090 C.2   155  CYS155      0.2270
    150  O         -6.9480   11.3260   42.9450 O.2   155  CYS155     -0.2867
    151  CB       -10.3700   11.6060   42.1640 C.3   155  CYS155      0.0956
    152  SG       -10.1700   13.1750   43.0430 S.3   155  CYS155     -0.0801
@<TRIPOS>BOND
     1    53    52    2
     2    52    51    1
     3    37    36    1
     4    27    26    1
     5    27    28    1
     6    36    35    1
     7    50    51    1
     8    34    35    1
     9    34    31    1
    10    51    54    1
    11    33    32    2
    12    30    28   am
    13    30    31    1
    14    28    29    2
    15    31    32    1
    16    48    47    2
    17    54    55    1
    18    32    38   am
    19    67    68    1
    20    47    46    1
    21    55    56    1
    22    38    39    1
    23    20    19   ar
    24    68    69    1
    25    68    71    1
    26    40    39    1
    27    40    41    2
    28    39    42    1
    29    56    57    1
    30    46    45    1
    31    46    49    1
    32    25    24    2
    33    70    69    2
    34    72    71    1
    35    72    73    1
    36    57    58    1
    37    69    76   am
    38    19    21   ar
    39    19    18    1
    40    17    18    1
    41    17    14    1
    42    24    23    1
    43    75    73   am
    44    73    74    2
    45    42    44    1
    46    42    43    1
    47    12    11    2
    48    76    77    1
    49    22    23    1
    50    22    15   am
    51    82    81   ar
    52    14    15    1
    53    14    13    1
    54     1     2    1
    55    77    78    1
    56    77    80    1
    57    15    16    2
    58    11    13   am
    59    11    10    1
    60    81    80    1
    61    81    83   ar
    62    78    84   am
    63    78    79    2
    64    84    85    1
    65     8     6    1
    66     9    10    1
    67     9     3   am
    68    62    61    2
    69     6     5    1
    70    88    85    1
    71    88    89    1
    72     2     5    1
    73     2     3    1
    74     5     7    1
    75    90    89    1
    76    61    60    1
    77    91    89    1
    78    85    86    1
    79     3     4    2
    80    64    66    1
    81    64    63    1
    82    65    63    1
    83    63    60    1
    84    60    59    1
    85    86    87    2
    86    86    92   am
    87    92    93    1
    88   149   148    1
    89   149   150    2
    90   151   148    1
    91   151   152    1
    92   145   144    1
    93   148   147    1
    94    97    98    1
    95    97    96    1
    96    95    94    2
    97    93    96    1
    98    93    94    1
    99    98    99    1
   100   144   146    1
   101   144   143    1
   102    94   100   am
   103   143   140    1
   104   132   131    1
   105   100   101    1
   106   136   135    2
   107   101   102    1
   108   101   104    1
   109   103   102    2
   110   123   121   ar
   111   102   109   am
   112   131   130    1
   113   140   139    1
   114   140   141    1
   115   135   134    1
   116   109   110    1
   117   138   137    1
   118   112   111    2
   119   130   129    1
   120   104   105    1
   121   137   134    1
   122   120   121    1
   123   120   117    1
   124   121   122   ar
   125   110   111    1
   126   110   113    1
   127   111   116   am
   128   141   142    2
   129   134   133    1
   130   116   117    1
   131   105   106    1
   132   117   118    1
   133   129   128    1
   134   107   106   ar
   135   113   114    1
   136   113   115    1
   137   106   108   ar
   138   128   125    1
   139   118   119    2
   140   124   125    1
   141   125   126    1
   142   126   127    2
