@<TRIPOS>MOLECULE
tmp/6fk7A06.pdb
 163 157 0 0 0
SMALL
GASTEIGER

@<TRIPOS>ATOM
      1  N       -224.9800   42.9740   34.8110 N.3   118  THR118     -0.1218
      2  CA      -226.3150   43.0180   34.2250 C.3   118  THR118      0.1862
      3  C       -226.6730   41.6830   33.5850 C.2   118  THR118      0.2287
      4  O       -227.8190   41.2280   33.6840 O.2   118  THR118     -0.2866
      5  CB      -226.4040   44.1440   33.1960 C.3   118  THR118      0.1770
      6  OG1     -226.0020   45.3790   33.8040 O.3   118  THR118     -0.2211
      7  CG2     -227.8240   44.2760   32.6640 C.3   118  THR118      0.0375
      8  N       -227.7330   38.9790   36.3500 N.3   121  GLY121     -0.1210
      9  CA      -229.0830   39.2180   36.8320 C.3   121  GLY121      0.1956
     10  C       -230.1530   38.9710   35.7890 C.2   121  GLY121      0.2611
     11  O       -231.2440   38.4990   36.1180 O.2   121  GLY121     -0.2717
     12  N       -229.8580   39.2770   34.5230 N.am  122  GLU122     -0.1979
     13  CA      -230.8140   39.0110   33.4550 C.3   122  GLU122      0.1602
     14  C       -230.9720   37.5150   33.1990 C.2   122  GLU122      0.2287
     15  O       -232.0960   37.0350   33.0220 O.2   122  GLU122     -0.2864
     16  CB      -230.3880   39.7310   32.1780 C.3   122  GLU122      0.0415
     17  CG      -230.7020   41.2160   32.1650 C.3   122  GLU122      0.1163
     18  CD      -232.1740   41.4970   31.9130 C.2   122  GLU122      0.3649
     19  OE1     -232.7550   42.3290   32.6470 O.co2 122  GLU122     -0.2457
     20  OE2     -232.7480   40.8730   30.9930 O.co2 122  GLU122     -0.2457
     21  N       -233.0970   36.0960   35.8590 N.3   125  LEU125     -0.1245
     22  CA      -234.4970   36.4810   35.7250 C.3   125  LEU125      0.1561
     23  C       -235.2150   35.5920   34.7180 C.2   125  LEU125      0.2260
     24  O       -236.2930   35.0580   34.9980 O.2   125  LEU125     -0.2867
     25  CB      -234.6020   37.9490   35.3110 C.3   125  LEU125      0.0270
     26  CG      -235.9850   38.3890   34.8240 C.3   125  LEU125      0.0019
     27  CD1     -236.9790   38.3560   35.9710 C.3   125  LEU125      0.0001
     28  CD2     -235.9310   39.7700   34.1870 C.3   125  LEU125      0.0001
     29  N       -226.9880   49.8930   33.9680 N.3   189  ILE189     -0.1245
     30  CA      -227.7370   50.6330   32.9620 C.3   189  ILE189      0.1561
     31  C       -228.1570   51.9780   33.5340 C.2   189  ILE189      0.2260
     32  O       -228.5180   52.0920   34.7140 O.2   189  ILE189     -0.2867
     33  CB      -228.9480   49.8160   32.4810 C.3   189  ILE189      0.0252
     34  CG1     -228.4750   48.5490   31.7670 C.3   189  ILE189      0.0019
     35  CG2     -229.8280   50.6460   31.5510 C.3   189  ILE189      0.0019
     36  CD1     -229.5970   47.6540   31.3160 C.3   189  ILE189      0.0001
     37  N       -230.5010   54.4000   34.2440 N.3   191  TYR191     -0.1241
     38  CA      -231.8850   54.7960   34.4600 C.3   191  TYR191      0.1605
     39  C       -231.9930   56.1640   35.1080 C.2   191  TYR191      0.2264
     40  O       -233.1080   56.6250   35.3680 O.2   191  TYR191     -0.2867
     41  CB      -232.6110   53.7690   35.3380 C.3   191  TYR191      0.0534
     42  CG      -232.4660   52.3450   34.8700 C.ar  191  TYR191     -0.0201
     43  CD1     -231.5630   51.4870   35.4790 C.ar  191  TYR191     -0.0009
     44  CD2     -233.2280   51.8590   33.8180 C.ar  191  TYR191     -0.0009
     45  CE1     -231.4220   50.1810   35.0540 C.ar  191  TYR191      0.0417
     46  CE2     -233.0960   50.5560   33.3830 C.ar  191  TYR191      0.0417
     47  CZ      -232.1910   49.7210   34.0020 C.ar  191  TYR191      0.1957
     48  OH      -232.0600   48.4220   33.5700 O.3   191  TYR191     -0.2866
     49  N       -235.5630   52.6140   28.7360 N.3   204  VAL204     -0.1245
     50  CA      -236.2360   52.3860   30.0120 C.3   204  VAL204      0.1561
     51  C       -237.6280   51.8080   29.7890 C.2   204  VAL204      0.2260
     52  O       -238.0570   50.8910   30.5010 O.2   204  VAL204     -0.2867
     53  CB      -236.2870   53.6910   30.8270 C.3   204  VAL204      0.0252
     54  CG1     -237.1310   53.5060   32.0780 C.3   204  VAL204      0.0019
     55  CG2     -234.8830   54.1310   31.1930 C.3   204  VAL204      0.0019
     56  N       -237.1170   48.2500   28.7650 N.3   207  MET207     -0.1230
     57  CA      -236.8240   47.4230   29.9310 C.3   207  MET207      0.1702
     58  C       -238.0690   47.2100   30.7750 C.2   207  MET207      0.2592
     59  O       -238.3030   46.1090   31.2870 O.2   207  MET207     -0.2718
     60  CB      -235.7220   48.0630   30.7710 C.3   207  MET207      0.0401
     61  CG      -234.3570   47.9780   30.1400 C.3   207  MET207      0.0596
     62  SD      -233.7920   46.2740   30.0250 S.3   207  MET207     -0.1393
     63  CE      -233.8040   45.7940   31.7550 C.3   207  MET207      0.0692
     64  N       -238.8820   48.2550   30.9270 N.am  208  PHE208     -0.1976
     65  CA      -240.0590   48.1490   31.7780 C.3   208  PHE208      0.1639
     66  C       -241.0550   47.1510   31.2090 C.2   208  PHE208      0.2290
     67  O       -241.7000   46.4090   31.9570 O.2   208  PHE208     -0.2864
     68  CB      -240.7070   49.5190   31.9460 C.3   208  PHE208      0.0560
     69  CG      -241.9690   49.4920   32.7520 C.ar  208  PHE208     -0.0200
     70  CD1     -241.9200   49.4020   34.1340 C.ar  208  PHE208     -0.0042
     71  CD2     -243.2030   49.5550   32.1310 C.ar  208  PHE208     -0.0042
     72  CE1     -243.0810   49.3770   34.8820 C.ar  208  PHE208     -0.0003
     73  CE2     -244.3680   49.5310   32.8740 C.ar  208  PHE208     -0.0003
     74  CZ      -244.3080   49.4420   34.2490 C.ar  208  PHE208     -0.0000
     75  N       -238.5380   43.3950   30.0010 N.3   211  HIS211     -0.1226
     76  CA      -237.7420   42.7650   31.0460 C.3   211  HIS211      0.1752
     77  C       -238.2930   43.0060   32.4440 C.2   211  HIS211      0.2596
     78  O       -237.6040   42.7180   33.4270 O.2   211  HIS211     -0.2718
     79  CB      -236.2890   43.2420   30.9620 C.3   211  HIS211      0.0759
     80  CG      -235.6150   42.8920   29.6730 C.ar  211  HIS211      0.0818
     81  ND1     -234.7700   41.8110   29.5420 N.ar  211  HIS211     -0.2268
     82  CD2     -235.6620   43.4810   28.4540 C.ar  211  HIS211      0.1154
     83  CE1     -234.3250   41.7500   28.2990 C.ar  211  HIS211      0.1986
     84  NE2     -234.8510   42.7520   27.6180 N.ar  211  HIS211     -0.2212
     85  N       -239.5170   43.5110   32.5630 N.am  212  PHE212     -0.1976
     86  CA      -240.0950   43.7370   33.8810 C.3   212  PHE212      0.1639
     87  C       -241.5580   43.3050   33.9240 C.2   212  PHE212      0.2290
     88  O       -241.9430   42.5120   34.7900 O.2   212  PHE212     -0.2864
     89  CB      -239.9410   45.2070   34.2770 C.3   212  PHE212      0.0560
     90  CG      -240.3180   45.4920   35.7020 C.ar  212  PHE212     -0.0200
     91  CD1     -239.5870   44.9510   36.7460 C.ar  212  PHE212     -0.0042
     92  CD2     -241.3970   46.3110   35.9970 C.ar  212  PHE212     -0.0042
     93  CE1     -239.9270   45.2140   38.0590 C.ar  212  PHE212     -0.0003
     94  CE2     -241.7430   46.5790   37.3090 C.ar  212  PHE212     -0.0003
     95  CZ      -241.0060   46.0290   38.3410 C.ar  212  PHE212     -0.0000
     96  N       -241.9690   39.3490   32.1820 N.3   215  PRO215     -0.2116
     97  CA      -241.6020   38.2280   33.0660 C.3   215  PRO215      0.1372
     98  C       -242.6100   37.9750   34.1730 C.2   215  PRO215      0.2244
     99  O       -242.8410   36.8150   34.5360 O.2   215  PRO215     -0.2868
    100  CB      -240.2370   38.6570   33.6260 C.3   215  PRO215      0.0268
    101  CG      -239.6840   39.5640   32.6010 C.3   215  PRO215      0.0207
    102  CD      -240.8700   40.3290   32.0850 C.3   215  PRO215      0.0892
    103  N       -240.5440   35.9940   44.1070 N.3   261  PHE261     -0.1241
    104  CA      -240.4050   36.8470   42.9320 C.3   261  PHE261      0.1605
    105  C       -240.9460   38.2440   43.2060 C.2   261  PHE261      0.2264
    106  O       -240.3290   39.2450   42.8240 O.2   261  PHE261     -0.2867
    107  CB      -241.1180   36.2150   41.7380 C.3   261  PHE261      0.0534
    108  CG      -240.9400   36.9710   40.4530 C.ar  261  PHE261     -0.0203
    109  CD1     -239.8350   36.7460   39.6490 C.ar  261  PHE261     -0.0042
    110  CD2     -241.8800   37.9020   40.0440 C.ar  261  PHE261     -0.0042
    111  CE1     -239.6680   37.4410   38.4620 C.ar  261  PHE261     -0.0003
    112  CE2     -241.7180   38.5990   38.8590 C.ar  261  PHE261     -0.0003
    113  CZ      -240.6110   38.3670   38.0670 C.ar  261  PHE261     -0.0000
    114  N       -238.6730   40.6050   45.1410 N.3   264  CYS264     -0.1221
    115  CA      -237.6620   41.2350   44.3090 C.3   264  CYS264      0.1808
    116  C       -238.2720   42.2000   43.2920 C.2   264  CYS264      0.2601
    117  O       -237.6080   43.1510   42.8670 O.2   264  CYS264     -0.2717
    118  CB      -236.8450   40.1470   43.6120 C.3   264  CYS264      0.0970
    119  SG      -235.5810   40.7520   42.5100 S.3   264  CYS264     -0.0800
    120  N       -239.5320   41.9980   42.9190 N.am  265  TRP265     -0.1976
    121  CA      -240.1420   42.7240   41.8100 C.3   265  TRP265      0.1640
    122  C       -240.8730   43.9850   42.2570 C.2   265  TRP265      0.2290
    123  O       -240.8430   45.0010   41.5520 O.2   265  TRP265     -0.2864
    124  CB      -241.1030   41.7910   41.0740 C.3   265  TRP265      0.0576
    125  CG      -241.6880   42.3180   39.8140 C.ar  265  TRP265      0.0006
    126  CD1     -241.2320   42.1030   38.5490 C.ar  265  TRP265      0.0946
    127  CD2     -242.8730   43.1170   39.6860 C.ar  265  TRP265      0.0152
    128  NE1     -242.0510   42.7330   37.6360 N.ar  265  TRP265     -0.2442
    129  CE2     -243.0650   43.3610   38.3100 C.ar  265  TRP265      0.0810
    130  CE3     -243.7850   43.6560   40.6000 C.ar  265  TRP265      0.0012
    131  CZ2     -244.1260   44.1210   37.8290 C.ar  265  TRP265      0.0191
    132  CZ3     -244.8400   44.4110   40.1170 C.ar  265  TRP265      0.0001
    133  CH2     -245.0020   44.6350   38.7440 C.ar  265  TRP265      0.0015
    134  N       -239.0170   47.6230   42.7860 N.3   268  TYR268     -0.1241
    135  CA      -238.8300   48.3730   41.5490 C.3   268  TYR268      0.1605
    136  C       -240.1110   49.0840   41.1450 C.2   268  TYR268      0.2264
    137  O       -240.0820   50.2470   40.7270 O.2   268  TYR268     -0.2867
    138  CB      -238.3710   47.4460   40.4320 C.3   268  TYR268      0.0534
    139  CG      -236.9590   46.9510   40.5890 C.ar  268  TYR268     -0.0201
    140  CD1     -236.6940   45.7270   41.1880 C.ar  268  TYR268     -0.0009
    141  CD2     -235.8880   47.7040   40.1310 C.ar  268  TYR268     -0.0009
    142  CE1     -235.3990   45.2690   41.3260 C.ar  268  TYR268      0.0417
    143  CE2     -234.5950   47.2550   40.2620 C.ar  268  TYR268      0.0417
    144  CZ      -234.3530   46.0380   40.8610 C.ar  268  TYR268      0.1957
    145  OH      -233.0570   45.5920   40.9910 O.3   268  TYR268     -0.2866
    146  N       -240.5810   53.1150   41.0570 N.3   272  ALA272     -0.1245
    147  CA      -240.9740   53.6980   39.7780 C.3   272  ALA272      0.1562
    148  C       -242.2950   54.4480   39.8940 C.2   272  ALA272      0.2260
    149  O       -242.4570   55.5250   39.3100 O.2   272  ALA272     -0.2867
    150  CB      -241.0630   52.6130   38.7090 C.3   272  ALA272      0.0290
    151  N       -233.6720   54.8860   43.2090 N.3   288  MET288     -0.1245
    152  CA      -233.9490   53.7090   42.4040 C.3   288  MET288      0.1570
    153  C       -232.9910   52.5720   42.7210 C.2   288  MET288      0.2261
    154  O       -233.2460   51.4280   42.3320 O.2   288  MET288     -0.2867
    155  CB      -233.8670   54.0720   40.9140 C.3   288  MET288      0.0387
    156  CG      -234.2360   52.9690   39.9200 C.3   288  MET288      0.0595
    157  SD      -235.9800   52.5000   39.8640 S.3   288  MET288     -0.1393
    158  CE      -236.0480   51.6800   38.2730 C.3   288  MET288      0.0692
    159  N       -232.2270   43.4410   45.6540 N.3   295  ALA295     -0.1245
    160  CA      -232.3010   42.4170   44.6190 C.3   295  ALA295      0.1562
    161  C       -231.0230   41.5910   44.5240 C.2   295  ALA295      0.2260
    162  O       -231.0620   40.4870   43.9740 O.2   295  ALA295     -0.2867
    163  CB      -232.6140   43.0560   43.2660 C.3   295  ALA295      0.0290
@<TRIPOS>BOND
     1    84    83   ar
     2    84    82   ar
     3    83    81   ar
     4    82    80   ar
     5    49    50    1
     6    56    57    1
     7    81    80   ar
     8    80    79    1
     9    51    50    1
    10    51    52    2
    11    57    60    1
    12    57    58    1
    13    75    76    1
    14    50    53    1
    15    62    61    1
    16    62    63    1
    17    61    60    1
    18    58    64   am
    19    58    59    2
    20    53    55    1
    21    53    54    1
    22    64    65    1
    23    79    76    1
    24    20    18   ar
    25    76    77    1
    26    66    65    1
    27    66    67    2
    28    36    34    1
    29    35    33    1
    30    34    33    1
    31    65    68    1
    32    18    17    1
    33    18    19   ar
    34    68    69    1
    35   102    96    1
    36   102   101    1
    37    71    69   ar
    38    71    73   ar
    39    17    16    1
    40    16    13    1
    41    96    97    1
    42    77    85   am
    43    77    78    2
    44    33    30    1
    45    85    86    1
    46   101   100    1
    47     7     5    1
    48    69    70   ar
    49    73    74   ar
    50    30    31    1
    51    30    29    1
    52    15    14    2
    53    97   100    1
    54    97    98    1
    55     5     6    1
    56     5     2    1
    57    14    13    1
    58    46    44   ar
    59    46    47   ar
    60    13    12    1
    61    31    32    2
    62    48    47    1
    63     3     4    2
    64     3     2    1
    65    44    42   ar
    66    86    87    1
    67    86    89    1
    68    87    88    2
    69    47    45   ar
    70    70    72   ar
    71    98    99    2
    72    28    26    1
    73     2     1    1
    74    37    38    1
    75    74    72   ar
    76    89    90    1
    77    38    39    1
    78    38    41    1
    79    12    10   am
    80    23    24    2
    81    23    22    1
    82    26    25    1
    83    26    27    1
    84    42    41    1
    85    42    43   ar
    86    45    43   ar
    87    39    40    2
    88    25    22    1
    89    90    92   ar
    90    90    91   ar
    91    22    21    1
    92    10    11    2
    93    10     9    1
    94    92    94   ar
    95     8     9    1
    96    91    93   ar
    97    94    95   ar
    98   128   129   ar
    99   128   126   ar
   100   131   129   ar
   101   131   133   ar
   102    93    95   ar
   103   113   111   ar
   104   113   112   ar
   105   158   157    1
   106   129   127   ar
   107   111   109   ar
   108   126   125   ar
   109   150   147    1
   110   133   132   ar
   111   112   110   ar
   112   149   148    2
   113   109   108   ar
   114   127   125   ar
   115   127   130   ar
   116   147   148    1
   117   147   146    1
   118   125   124    1
   119   157   156    1
   120   156   155    1
   121   110   108   ar
   122   132   130   ar
   123   141   143   ar
   124   141   139   ar
   125   143   144   ar
   126   138   139    1
   127   138   135    1
   128   108   107    1
   129   139   140   ar
   130   137   136    2
   131   144   145    1
   132   144   142   ar
   133   155   152    1
   134   124   121    1
   135   136   135    1
   136   140   142   ar
   137   135   134    1
   138   123   122    2
   139   107   104    1
   140   121   122    1
   141   121   120    1
   142   154   153    2
   143   152   153    1
   144   152   151    1
   145   119   118    1
   146   106   105    2
   147   117   116    2
   148   120   116   am
   149   104   105    1
   150   104   103    1
   151   163   160    1
   152   116   115    1
   153   118   115    1
   154   162   161    2
   155   115   114    1
   156   161   160    1
   157   160   159    1
