@<TRIPOS>MOLECULE
tmp/6fk7A03.pdb
 114 109 0 0 0
SMALL
GASTEIGER

@<TRIPOS>ATOM
      1  N       -221.1920   48.9010   52.8460 N.3    40  LEU40      -0.1245
      2  CA      -221.4140   48.3830   51.5030 C.3    40  LEU40       0.1561
      3  C       -220.4520   47.2410   51.2010 C.2    40  LEU40       0.2260
      4  O       -220.8380   46.2410   50.5840 O.2    40  LEU40      -0.2867
      5  CB      -221.2680   49.5060   50.4760 C.3    40  LEU40       0.0270
      6  CG      -221.3660   49.0760   49.0130 C.3    40  LEU40       0.0019
      7  CD1     -222.7460   48.5100   48.7210 C.3    40  LEU40       0.0001
      8  CD2     -221.0400   50.2350   48.0810 C.3    40  LEU40       0.0001
      9  N       -217.5270   45.1410   43.2690 N.3    94  THR94      -0.1218
     10  CA      -218.0350   46.2160   44.1160 C.3    94  THR94       0.1862
     11  C       -217.3440   46.2310   45.4730 C.2    94  THR94       0.2287
     12  O       -217.0650   47.3030   46.0240 O.2    94  THR94      -0.2866
     13  CB      -219.5430   46.0690   44.2970 C.3    94  THR94       0.1770
     14  OG1     -220.1800   46.1240   43.0160 O.3    94  THR94      -0.2211
     15  CG2     -220.0840   47.1740   45.1980 C.3    94  THR94       0.0375
     16  N       -223.4580   53.8430   39.3970 N.3   181  GLU181     -0.1231
     17  CA      -224.7700   54.0380   39.9890 C.3   181  GLU181      0.1699
     18  C       -224.6460   54.1430   41.5030 C.2   181  GLU181      0.2593
     19  O       -223.6670   53.6920   42.1010 O.2   181  GLU181     -0.2718
     20  CB      -225.7220   52.8930   39.6130 C.3   181  GLU181      0.0402
     21  CG      -225.2580   51.5270   40.1010 C.3   181  GLU181      0.1161
     22  CD      -225.9390   50.3750   39.3820 C.2   181  GLU181      0.3649
     23  OE1     -226.7590   50.6390   38.4770 O.co2 181  GLU181     -0.2457
     24  OE2     -225.6510   49.2060   39.7190 O.co2 181  GLU181     -0.2457
     25  N       -225.6530   54.7600   42.1090 N.am  182  GLY182     -0.1942
     26  CA      -225.7150   54.8700   43.5560 C.3   182  GLY182      0.2014
     27  C       -224.5170   55.6110   44.1080 C.2   182  GLY182      0.2638
     28  O       -224.3040   56.8020   43.8410 O.2   182  GLY182     -0.2714
     29  N       -223.7230   54.8980   44.8990 N.am  183  MET183     -0.1976
     30  CA      -222.5030   55.4100   45.4960 C.3   183  MET183      0.1605
     31  C       -221.3130   55.3270   44.5510 C.2   183  MET183      0.2287
     32  O       -220.1660   55.4830   44.9920 O.2   183  MET183     -0.2864
     33  CB      -222.2230   54.6660   46.8040 C.3   183  MET183      0.0413
     34  CG      -223.2120   55.0210   47.9120 C.3   183  MET183      0.0598
     35  SD      -223.3370   53.8130   49.2520 S.3   183  MET183     -0.1393
     36  CE      -221.6430   53.6830   49.8170 C.3   183  MET183      0.0692
     37  N       -219.7560   53.0330   43.0210 N.3   185  CYS185     -0.1221
     38  CA      -218.7900   51.9510   43.1440 C.3   185  CYS185      0.1808
     39  C       -219.0880   50.7750   42.2330 C.2   185  CYS185      0.2601
     40  O       -218.2000   49.9460   42.0110 O.2   185  CYS185     -0.2717
     41  CB      -218.7280   51.4530   44.5880 C.3   185  CYS185      0.0970
     42  SG      -217.9690   52.6430   45.6910 S.3   185  CYS185     -0.0800
     43  N       -220.3100   50.6740   41.7210 N.am  186  SER186     -0.1952
     44  CA      -220.6650   49.6520   40.7520 C.3   186  SER186      0.1924
     45  C       -221.3370   50.3190   39.5610 C.2   186  SER186      0.2314
     46  O       -221.8210   51.4520   39.6480 O.2   186  SER186     -0.2863
     47  CB      -221.5710   48.5720   41.3660 C.3   186  SER186      0.2116
     48  OG      -222.7700   49.1100   41.8860 O.3   186  SER186     -0.2180
     49  N       -228.5710   59.1100   46.2800 N.3   285  PRO285     -0.2102
     50  CA      -228.0260   57.8890   45.6660 C.3   285  PRO285      0.1504
     51  C       -228.7940   56.6200   46.0170 C.2   285  PRO285      0.2575
     52  O       -228.3320   55.5170   45.7110 O.2   285  PRO285     -0.2718
     53  CB      -226.5900   57.8380   46.2090 C.3   285  PRO285      0.0282
     54  CG      -226.6470   58.5960   47.4920 C.3   285  PRO285      0.0208
     55  CD      -227.6450   59.6970   47.2660 C.3   285  PRO285      0.0893
     56  N       -229.9660   56.7530   46.6420 N.am  286  ILE286     -0.1980
     57  CA      -230.7080   55.5950   47.1330 C.3   286  ILE286      0.1595
     58  C       -232.1720   55.6470   46.7050 C.2   286  ILE286      0.2287
     59  O       -233.0450   55.1140   47.3950 O.2   286  ILE286     -0.2864
     60  CB      -230.5930   55.4870   48.6670 C.3   286  ILE286      0.0276
     61  CG1     -231.1980   56.7190   49.3440 C.3   286  ILE286      0.0022
     62  CG2     -229.1420   55.3470   49.0880 C.3   286  ILE286      0.0022
     63  CD1     -231.0780   56.7000   50.8550 C.3   286  ILE286      0.0001
     64  N       -231.9140   52.8600   43.4420 N.3   289  THR289     -0.1203
     65  CA      -230.9220   51.8550   43.7670 C.3   289  THR289      0.1994
     66  C       -231.2960   51.0350   44.9980 C.2   289  THR289      0.2617
     67  O       -230.6090   50.0490   45.2930 O.2   289  THR289     -0.2717
     68  CB      -229.5740   52.5270   43.9850 C.3   289  THR289      0.1784
     69  OG1     -229.6890   53.4700   45.0540 O.3   289  THR289     -0.2211
     70  CG2     -229.1380   53.2600   42.7160 C.3   289  THR289      0.0376
     71  N       -232.3440   51.4180   45.7270 N.am  290  ILE290     -0.1979
     72  CA      -232.8070   50.6350   46.8730 C.3   290  ILE290      0.1595
     73  C       -233.3790   49.3020   46.3960 C.2   290  ILE290      0.2287
     74  O       -233.0670   48.2650   47.0020 O.2   290  ILE290     -0.2864
     75  CB      -233.8160   51.4250   47.7240 C.3   290  ILE290      0.0276
     76  CG1     -233.0900   52.2900   48.7510 C.3   290  ILE290      0.0022
     77  CG2     -234.7820   50.4760   48.4240 C.3   290  ILE290      0.0022
     78  CD1     -234.0130   53.0660   49.6730 C.3   290  ILE290      0.0001
     79  N       -232.4100   47.7050   43.6950 N.3   292  ALA292     -0.1231
     80  CA      -231.2260   46.9560   43.2820 C.3   292  ALA292      0.1694
     81  C       -230.4100   46.4860   44.4790 C.2   292  ALA292      0.2592
     82  O       -229.8280   45.3940   44.4460 O.2   292  ALA292     -0.2718
     83  CB      -230.3630   47.8100   42.3540 C.3   292  ALA292      0.0304
     84  N       -230.3670   47.2900   45.5430 N.am  293  PHE293     -0.1962
     85  CA      -229.6310   46.9100   46.7440 C.3   293  PHE293      0.1771
     86  C       -230.1260   45.5750   47.2910 C.2   293  PHE293      0.2619
     87  O       -229.3310   44.6700   47.5740 O.2   293  PHE293     -0.2715
     88  CB      -229.7580   48.0160   47.7930 C.3   293  PHE293      0.0574
     89  CG      -228.8590   47.8400   48.9760 C.ar  293  PHE293     -0.0200
     90  CD1     -227.5620   48.3270   48.9550 C.ar  293  PHE293     -0.0042
     91  CD2     -229.3140   47.2050   50.1190 C.ar  293  PHE293     -0.0042
     92  CE1     -226.7330   48.1750   50.0480 C.ar  293  PHE293     -0.0003
     93  CE2     -228.4910   47.0500   51.2140 C.ar  293  PHE293     -0.0003
     94  CZ      -227.1990   47.5360   51.1800 C.ar  293  PHE293     -0.0000
     95  N       -231.4430   45.4240   47.4290 N.am  294  PHE294     -0.1974
     96  CA      -231.9850   44.1880   47.9800 C.3   294  PHE294      0.1639
     97  C       -232.1320   43.0890   46.9370 C.2   294  PHE294      0.2290
     98  O       -232.1450   41.9100   47.3010 O.2   294  PHE294     -0.2864
     99  CB      -233.3270   44.4600   48.6540 C.3   294  PHE294      0.0560
    100  CG      -233.2260   45.3620   49.8460 C.ar  294  PHE294     -0.0200
    101  CD1     -232.6370   44.9160   51.0200 C.ar  294  PHE294     -0.0042
    102  CD2     -233.7080   46.6590   49.7940 C.ar  294  PHE294     -0.0042
    103  CE1     -232.5370   45.7480   52.1200 C.ar  294  PHE294     -0.0003
    104  CE2     -233.6120   47.4940   50.8900 C.ar  294  PHE294     -0.0003
    105  CZ      -233.0260   47.0390   52.0550 C.ar  294  PHE294     -0.0000
    106  N       -229.8950   42.0990   45.0360 N.3   296  LYS296     -0.1245
    107  CA      -228.6610   41.3180   45.0270 C.3   296  LYS296      0.1561
    108  C       -228.8090   40.0530   45.8580 C.2   296  LYS296      0.2260
    109  O       -228.1490   39.0430   45.5860 O.2   296  LYS296     -0.2867
    110  CB      -227.4920   42.1540   45.5620 C.3   296  LYS296      0.0271
    111  CG      -227.1800   43.4350   44.7920 C.3   296  LYS296      0.0035
    112  CD      -226.1340   44.2730   45.5240 C.3   296  LYS296      0.0206
    113  CE      -225.8760   45.5850   44.8130 C.3   296  LYS296      0.1093
    114  NZ      -225.3910   45.3950   43.4280 N.3   296  LYS296     -0.1314
@<TRIPOS>BOND
     1    23    22   ar
     2    22    24   ar
     3    22    21    1
     4    16    17    1
     5    45    46    2
     6    45    44    1
     7    20    17    1
     8    20    21    1
     9    17    18    1
    10    44    47    1
    11    44    43    1
    12    47    48    1
    13    18    19    2
    14    18    25   am
    15    43    39   am
    16    40    39    2
    17    25    26    1
    18    39    38    1
    19    83    80    1
    20    70    68    1
    21    14    13    1
    22    37    38    1
    23    38    41    1
    24     9    10    1
    25    80    79    1
    26    80    81    1
    27   114   113    1
    28    64    65    1
    29    26    27    1
    30    65    68    1
    31    65    66    1
    32    28    27    2
    33    68    69    1
    34    27    29   am
    35    10    13    1
    36    10    11    1
    37    13    15    1
    38    82    81    2
    39    81    84   am
    40    31    32    2
    41    31    30    1
    42    41    42    1
    43   111   112    1
    44   111   110    1
    45   113   112    1
    46    29    30    1
    47    66    67    2
    48    66    71   am
    49   107   106    1
    50   107   110    1
    51   107   108    1
    52    11    12    2
    53    30    33    1
    54    84    85    1
    55   109   108    2
    56    50    51    1
    57    50    53    1
    58    50    49    1
    59    52    51    2
    60    71    72    1
    61    51    56   am
    62    53    54    1
    63    49    55    1
    64    73    72    1
    65    73    74    2
    66    56    57    1
    67    58    57    1
    68    58    59    2
    69    85    86    1
    70    85    88    1
    71    33    34    1
    72    72    75    1
    73    97    98    2
    74    97    96    1
    75    57    60    1
    76    55    54    1
    77    86    95   am
    78    86    87    2
    79    95    96    1
    80    75    77    1
    81    75    76    1
    82    88    89    1
    83    34    35    1
    84    96    99    1
    85     8     6    1
    86    99   100    1
    87    60    62    1
    88    60    61    1
    89     7     6    1
    90    76    78    1
    91    90    89   ar
    92    90    92   ar
    93    89    91   ar
    94     6     5    1
    95    35    36    1
    96    61    63    1
    97   102   100   ar
    98   102   104   ar
    99   100   101   ar
   100    92    94   ar
   101    91    93   ar
   102     5     2    1
   103     4     3    2
   104   104   105   ar
   105   101   103   ar
   106    94    93   ar
   107     3     2    1
   108     2     1    1
   109   105   103   ar
