@<TRIPOS>MOLECULE
tmp/6fk7A05.pdb
 101 95 0 0 0
SMALL
GASTEIGER

@<TRIPOS>ATOM
      1  N       -246.7360   34.4760   36.3410 N.3   220  PHE220     -0.1241
      2  CA      -248.0320   34.3800   37.0030 C.3   220  PHE220      0.1605
      3  C       -249.0000   33.5020   36.2190 C.2   220  PHE220      0.2264
      4  O       -249.7910   32.7620   36.8120 O.2   220  PHE220     -0.2867
      5  CB      -248.6190   35.7720   37.2190 C.3   220  PHE220      0.0534
      6  CG      -248.4630   36.2800   38.6210 C.ar  220  PHE220     -0.0203
      7  CD1     -247.2710   36.8460   39.0450 C.ar  220  PHE220     -0.0042
      8  CD2     -249.5140   36.1910   39.5170 C.ar  220  PHE220     -0.0042
      9  CE1     -247.1340   37.3170   40.3420 C.ar  220  PHE220     -0.0003
     10  CE2     -249.3830   36.6590   40.8100 C.ar  220  PHE220     -0.0003
     11  CZ      -248.1930   37.2230   41.2230 C.ar  220  PHE220     -0.0000
     12  N       -247.6630   29.4650   36.4370 N.3   223  TYR223     -0.1227
     13  CA      -247.8570   28.8380   37.7380 C.3   223  TYR223      0.1736
     14  C       -249.3160   28.8690   38.1690 C.2   223  TYR223      0.2596
     15  O       -249.7420   28.0160   38.9560 O.2   223  TYR223     -0.2718
     16  CB      -246.9670   29.5110   38.7790 C.3   223  TYR223      0.0548
     17  CG      -245.5190   29.1190   38.6260 C.ar  223  TYR223     -0.0200
     18  CD1     -245.1620   27.7900   38.4390 C.ar  223  TYR223     -0.0009
     19  CD2     -244.5110   30.0730   38.6390 C.ar  223  TYR223     -0.0009
     20  CE1     -243.8410   27.4170   38.2880 C.ar  223  TYR223      0.0417
     21  CE2     -243.1830   29.7090   38.4890 C.ar  223  TYR223      0.0417
     22  CZ      -242.8560   28.3770   38.3080 C.ar  223  TYR223      0.1957
     23  OH      -241.5410   27.9940   38.1560 O.3   223  TYR223     -0.2866
     24  N       -250.0940   29.8310   37.6740 N.am  224  GLY224     -0.1957
     25  CA      -251.5170   29.8150   37.9580 C.3   224  GLY224      0.1869
     26  C       -252.2020   28.6230   37.3200 C.2   224  GLY224      0.2309
     27  O       -252.9530   27.8940   37.9730 O.2   224  GLY224     -0.2863
     28  N       -251.1070   25.3200   39.1720 N.3   227  VAL227     -0.1245
     29  CA      -251.8260   25.0720   40.4180 C.3   227  VAL227      0.1561
     30  C       -253.2760   24.7100   40.1310 C.2   227  VAL227      0.2260
     31  O       -253.8590   23.8420   40.7920 O.2   227  VAL227     -0.2867
     32  CB      -251.7230   26.2920   41.3500 C.3   227  VAL227      0.0252
     33  CG1     -252.6140   26.0980   42.5610 C.3   227  VAL227      0.0019
     34  CG2     -250.2770   26.5190   41.7750 C.3   227  VAL227      0.0019
     35  N       -254.7490   21.1060   41.2480 N.3   231  LYS231     -0.1245
     36  CA      -255.9000   21.0310   42.1410 C.3   231  LYS231      0.1561
     37  C       -257.0940   20.3860   41.4520 C.2   231  LYS231      0.2260
     38  O       -257.9040   19.7160   42.1050 O.2   231  LYS231     -0.2867
     39  CB      -256.2700   22.4260   42.6480 C.3   231  LYS231      0.0271
     40  CG      -255.2880   23.0120   43.6580 C.3   231  LYS231      0.0035
     41  CD      -255.7610   24.3710   44.1650 C.3   231  LYS231      0.0206
     42  CE      -254.8120   24.9460   45.2100 C.3   231  LYS231      0.1093
     43  NZ      -254.6990   24.0790   46.4160 N.3   231  LYS231     -0.1314
     44  N       -250.6100   17.6400   46.1260 N.3   247  GLU247     -0.1231
     45  CA      -251.2300   18.8860   45.6880 C.3   247  GLU247      0.1699
     46  C       -250.9300   20.0180   46.6620 C.2   247  GLU247      0.2592
     47  O       -250.6460   21.1460   46.2430 O.2   247  GLU247     -0.2718
     48  CB      -252.7400   18.6930   45.5220 C.3   247  GLU247      0.0402
     49  CG      -253.5160   19.9760   45.2700 C.3   247  GLU247      0.1161
     50  CD      -254.0260   20.6010   46.5520 C.2   247  GLU247      0.3649
     51  OE1     -254.4930   19.8450   47.4290 O.co2 247  GLU247     -0.2457
     52  OE2     -253.9430   21.8410   46.6880 O.co2 247  GLU247     -0.2457
     53  N       -250.9800   19.7310   47.9650 N.am  248  LYS248     -0.1980
     54  CA      -250.7190   20.7620   48.9640 C.3   248  LYS248      0.1596
     55  C       -249.2970   21.2960   48.8450 C.2   248  LYS248      0.2287
     56  O       -249.0730   22.5120   48.8670 O.2   248  LYS248     -0.2864
     57  CB      -250.9710   20.2100   50.3680 C.3   248  LYS248      0.0298
     58  CG      -252.4230   20.2730   50.8200 C.3   248  LYS248      0.0038
     59  CD      -252.5550   19.8860   52.2880 C.3   248  LYS248      0.0206
     60  CE      -253.9820   20.0510   52.7940 C.3   248  LYS248      0.1093
     61  NZ      -254.0970   19.7200   54.2450 N.3   248  LYS248     -0.1314
     62  N       -248.7420   23.3950   45.6260 N.3   251  THR251     -0.1203
     63  CA      -249.3260   24.7170   45.8190 C.3   251  THR251      0.1994
     64  C       -248.4720   25.5610   46.7530 C.2   251  THR251      0.2617
     65  O       -248.2430   26.7480   46.4960 O.2   251  THR251     -0.2717
     66  CB      -250.7440   24.5830   46.3710 C.3   251  THR251      0.1784
     67  OG1     -251.5300   23.7860   45.4770 O.3   251  THR251     -0.2211
     68  CG2     -251.3880   25.9520   46.5220 C.3   251  THR251      0.0376
     69  N       -247.9850   24.9580   47.8400 N.am  252  ARG252     -0.1979
     70  CA      -247.1930   25.7060   48.8100 C.3   252  ARG252      0.1597
     71  C       -245.8700   26.1670   48.2080 C.2   252  ARG252      0.2287
     72  O       -245.4150   27.2840   48.4810 O.2   252  ARG252     -0.2864
     73  CB      -246.9580   24.8540   50.0570 C.3   252  ARG252      0.0334
     74  CG      -246.4470   25.6390   51.2500 C.3   252  ARG252      0.0492
     75  CD      -246.6710   24.8840   52.5500 C.3   252  ARG252      0.2205
     76  NE      -246.4370   25.7240   53.7230 N.pl3 252  ARG252     -0.0865
     77  CZ      -247.3540   26.5170   54.2690 C.cat 252  ARG252      0.5346
     78  NH1     -247.0550   27.2450   55.3370 N.pl3 252  ARG252      0.1354
     79  NH2     -248.5710   26.5870   53.7460 N.pl3 252  ARG252      0.1354
     80  N       -245.3160   26.7610   44.9520 N.3   254  VAL254     -0.1231
     81  CA      -245.6170   27.8210   43.9940 C.3   254  VAL254      0.1692
     82  C       -245.8230   29.1400   44.7200 C.2   254  VAL254      0.2591
     83  O       -245.3230   30.1890   44.2950 O.2   254  VAL254     -0.2718
     84  CB      -246.8410   27.4420   43.1430 C.3   254  VAL254      0.0266
     85  CG1     -247.3120   28.6390   42.3290 C.3   254  VAL254      0.0020
     86  CG2     -246.4920   26.2900   42.2310 C.3   254  VAL254      0.0020
     87  N       -246.5460   29.1030   45.8390 N.am  255  ILE255     -0.1980
     88  CA      -246.7570   30.3080   46.6330 C.3   255  ILE255      0.1595
     89  C       -245.4190   30.8810   47.0860 C.2   255  ILE255      0.2287
     90  O       -245.1710   32.0860   46.9730 O.2   255  ILE255     -0.2864
     91  CB      -247.6790   30.0020   47.8260 C.3   255  ILE255      0.0276
     92  CG1     -249.0950   29.6990   47.3380 C.3   255  ILE255      0.0022
     93  CG2     -247.7010   31.1600   48.7880 C.3   255  ILE255      0.0022
     94  CD1     -250.0230   29.2670   48.4440 C.3   255  ILE255      0.0001
     95  N       -243.6020   32.4390   44.0880 N.3   258  VAL258     -0.1245
     96  CA      -244.2480   33.6510   43.5990 C.3   258  VAL258      0.1561
     97  C       -244.0870   34.7880   44.5990 C.2   258  VAL258      0.2260
     98  O       -243.8680   35.9430   44.2160 O.2   258  VAL258     -0.2867
     99  CB      -245.7270   33.3680   43.2810 C.3   258  VAL258      0.0252
    100  CG1     -246.4770   34.6630   43.0350 C.3   258  VAL258      0.0019
    101  CG2     -245.8310   32.4650   42.0680 C.3   258  VAL258      0.0019
@<TRIPOS>BOND
     1     3     4    2
     2     3     2    1
     3     1     2    1
     4    12    13    1
     5     2     5    1
     6     5     6    1
     7    26    25    1
     8    26    27    2
     9    24    25    1
    10    24    14   am
    11    13    14    1
    12    13    16    1
    13    23    22    1
    14    14    15    2
    15    20    22   ar
    16    20    18   ar
    17    22    21   ar
    18    18    17   ar
    19    21    19   ar
    20     6     7   ar
    21     6     8   ar
    22    17    19   ar
    23    17    16    1
    24     7     9   ar
    25    28    29    1
    26     8    10   ar
    27    30    29    1
    28    30    31    2
    29     9    11   ar
    30    29    32    1
    31    10    11   ar
    32    35    36    1
    33    32    34    1
    34    32    33    1
    35    37    38    2
    36    37    36    1
    37   101    99    1
    38    36    39    1
    39    86    84    1
    40    85    84    1
    41    39    40    1
    42   100    99    1
    43    84    81    1
    44    99    96    1
    45    96    95    1
    46    96    97    1
    47    40    41    1
    48    81    82    1
    49    81    80    1
    50    41    42    1
    51    98    97    2
    52    83    82    2
    53    82    87   am
    54    42    43    1
    55    49    48    1
    56    49    50    1
    57    67    66    1
    58    48    45    1
    59    62    63    1
    60    45    44    1
    61    45    46    1
    62    63    66    1
    63    63    64    1
    64    87    88    1
    65    47    46    2
    66    66    68    1
    67    65    64    2
    68    50    52   ar
    69    50    51   ar
    70    88    89    1
    71    88    91    1
    72    46    53   am
    73    64    69   am
    74    90    89    2
    75    92    91    1
    76    92    94    1
    77    91    93    1
    78    69    70    1
    79    53    54    1
    80    71    72    2
    81    71    70    1
    82    70    73    1
    83    55    56    2
    84    55    54    1
    85    54    57    1
    86    73    74    1
    87    57    58    1
    88    58    59    1
    89    74    75    1
    90    59    60    1
    91    75    76    1
    92    60    61    1
    93    76    77    2
    94    79    77    1
    95    77    78    1
