@<TRIPOS>MOLECULE
tmp/6fk7A02.pdb
 194 182 0 0 0
SMALL
GASTEIGER

@<TRIPOS>ATOM
      1  N       -223.2300   37.2360   38.9190 N.3    86  MET86      -0.1245
      2  CA      -223.5190   38.3220   39.8500 C.3    86  MET86       0.1570
      3  C       -222.4940   38.3710   40.9770 C.2    86  MET86       0.2261
      4  O       -222.1240   39.4560   41.4410 O.2    86  MET86      -0.2867
      5  CB      -224.9300   38.1690   40.4180 C.3    86  MET86       0.0387
      6  CG      -226.0440   38.4110   39.4110 C.3    86  MET86       0.0595
      7  SD      -227.6860   38.0030   40.0550 S.3    86  MET86      -0.1393
      8  CE      -227.6760   38.8790   41.6150 C.3    86  MET86       0.0692
      9  N       -220.1680   41.1980   39.7260 N.3    90  GLY90      -0.1225
     10  CA      -220.7430   42.3250   40.4330 C.3    90  GLY90       0.1811
     11  C       -220.2980   42.4700   41.8740 C.2    90  GLY90       0.2280
     12  O       -219.7080   43.4880   42.2410 O.2    90  GLY90      -0.2866
     13  N       -217.7530   45.6350   34.0930 N.3   113  GLU113     -0.1245
     14  CA      -218.5120   45.2160   35.2650 C.3   113  GLU113      0.1567
     15  C       -220.0060   45.3900   35.0370 C.2   113  GLU113      0.2260
     16  O       -220.8060   44.5390   35.4420 O.2   113  GLU113     -0.2867
     17  CB      -218.0740   45.9950   36.5040 C.3   113  GLU113      0.0388
     18  CG      -218.7800   45.5170   37.7600 C.3   113  GLU113      0.1160
     19  CD      -219.1880   46.6400   38.6860 C.2   113  GLU113      0.3649
     20  OE1     -218.3550   47.0730   39.5090 O.co2 113  GLU113     -0.2457
     21  OE2     -220.3490   47.0880   38.5900 O.co2 113  GLU113     -0.2457
     22  N       -222.3740   42.1100   35.2960 N.3   117  ALA117     -0.1231
     23  CA      -223.3190   42.1530   36.4060 C.3   117  ALA117      0.1694
     24  C       -224.7530   42.2350   35.8990 C.2   117  ALA117      0.2592
     25  O       -225.6600   41.6270   36.4810 O.2   117  ALA117     -0.2718
     26  CB      -222.9990   43.3260   37.3280 C.3   117  ALA117      0.0304
     27  N       -224.9800   42.9740   34.8110 N.am  118  THR118     -0.1953
     28  CA      -226.3150   43.0180   34.2250 C.3   118  THR118      0.1897
     29  C       -226.6730   41.6830   33.5850 C.2   118  THR118      0.2313
     30  O       -227.8190   41.2280   33.6840 O.2   118  THR118     -0.2863
     31  CB      -226.4040   44.1440   33.1960 C.3   118  THR118      0.1794
     32  OG1     -226.0020   45.3790   33.8040 O.3   118  THR118     -0.2208
     33  CG2     -227.8240   44.2760   32.6640 C.3   118  THR118      0.0378
     34  N       -227.7330   38.9790   36.3500 N.3   121  GLY121     -0.1225
     35  CA      -229.0830   39.2180   36.8320 C.3   121  GLY121      0.1811
     36  C       -230.1530   38.9710   35.7890 C.2   121  GLY121      0.2280
     37  O       -231.2440   38.4990   36.1180 O.2   121  GLY121     -0.2866
     38  N       -230.5140   35.1020   35.3090 N.3   124  ALA124     -0.1231
     39  CA      -231.2820   34.5630   36.4270 C.3   124  ALA124      0.1694
     40  C       -232.7660   34.8720   36.2790 C.2   124  ALA124      0.2591
     41  O       -233.6150   34.0120   36.5440 O.2   124  ALA124     -0.2718
     42  CB      -230.7530   35.1180   37.7480 C.3   124  ALA124      0.0304
     43  N       -233.0970   36.0960   35.8590 N.am  125  LEU125     -0.1980
     44  CA      -234.4970   36.4810   35.7250 C.3   125  LEU125      0.1596
     45  C       -235.2150   35.5920   34.7180 C.2   125  LEU125      0.2287
     46  O       -236.2930   35.0580   34.9980 O.2   125  LEU125     -0.2864
     47  CB      -234.6020   37.9490   35.3110 C.3   125  LEU125      0.0297
     48  CG      -235.9850   38.3890   34.8240 C.3   125  LEU125      0.0022
     49  CD1     -236.9790   38.3560   35.9710 C.3   125  LEU125      0.0001
     50  CD2     -235.9310   39.7700   34.1870 C.3   125  LEU125      0.0001
     51  N       -235.8170   31.8880   35.6960 N.3   128  LEU128     -0.1245
     52  CA      -237.0570   31.6950   36.4430 C.3   128  LEU128      0.1561
     53  C       -238.2660   31.7330   35.5180 C.2   128  LEU128      0.2260
     54  O       -239.2330   30.9890   35.7160 O.2   128  LEU128     -0.2867
     55  CB      -237.1910   32.7570   37.5340 C.3   128  LEU128      0.0270
     56  CG      -236.0950   32.7960   38.5960 C.3   128  LEU128      0.0019
     57  CD1     -236.4740   33.7560   39.7160 C.3   128  LEU128      0.0001
     58  CD2     -235.8160   31.4020   39.1400 C.3   128  LEU128      0.0001
     59  N       -223.4580   53.8430   39.3970 N.3   181  GLU181     -0.1245
     60  CA      -224.7700   54.0380   39.9890 C.3   181  GLU181      0.1567
     61  C       -224.6460   54.1430   41.5030 C.2   181  GLU181      0.2260
     62  O       -223.6670   53.6920   42.1010 O.2   181  GLU181     -0.2867
     63  CB      -225.7220   52.8930   39.6130 C.3   181  GLU181      0.0388
     64  CG      -225.2580   51.5270   40.1010 C.3   181  GLU181      0.1160
     65  CD      -225.9390   50.3750   39.3820 C.2   181  GLU181      0.3649
     66  OE1     -226.7590   50.6390   38.4770 O.co2 181  GLU181     -0.2457
     67  OE2     -225.6510   49.2060   39.7190 O.co2 181  GLU181     -0.2457
     68  N       -220.3100   50.6740   41.7210 N.3   186  SER186     -0.1202
     69  CA      -220.6650   49.6520   40.7520 C.3   186  SER186      0.2020
     70  C       -221.3370   50.3190   39.5610 C.2   186  SER186      0.2619
     71  O       -221.8210   51.4520   39.6480 O.2   186  SER186     -0.2717
     72  CB      -221.5710   48.5720   41.3660 C.3   186  SER186      0.2103
     73  OG      -222.7700   49.1100   41.8860 O.3   186  SER186     -0.2182
     74  N       -221.3540   49.6070   38.4390 N.am  187  CYS187     -0.1955
     75  CA      -221.8620   50.1520   37.1900 C.3   187  CYS187      0.1843
     76  C       -223.0980   49.3830   36.7320 C.2   187  CYS187      0.2626
     77  O       -223.3220   48.2320   37.1160 O.2   187  CYS187     -0.2714
     78  CB      -220.7780   50.1330   36.1040 C.3   187  CYS187      0.0997
     79  SG      -219.4960   51.3930   36.3410 S.3   187  CYS187     -0.0797
     80  N       -223.9030   50.0460   35.9120 N.am  188  GLY188     -0.1940
     81  CA      -225.1380   49.4590   35.4420 C.3   188  GLY188      0.2014
     82  C       -225.8000   50.3280   34.3960 C.2   188  GLY188      0.2638
     83  O       -225.2600   51.3520   33.9770 O.2   188  GLY188     -0.2714
     84  N       -226.9880   49.8930   33.9680 N.am  189  ILE189     -0.1977
     85  CA      -227.7370   50.6330   32.9620 C.3   189  ILE189      0.1596
     86  C       -228.1570   51.9780   33.5340 C.2   189  ILE189      0.2287
     87  O       -228.5180   52.0920   34.7140 O.2   189  ILE189     -0.2864
     88  CB      -228.9480   49.8160   32.4810 C.3   189  ILE189      0.0276
     89  CG1     -228.4750   48.5490   31.7670 C.3   189  ILE189      0.0022
     90  CG2     -229.8280   50.6460   31.5510 C.3   189  ILE189      0.0022
     91  CD1     -229.5970   47.6540   31.3160 C.3   189  ILE189      0.0001
     92  N       -230.5010   54.4000   34.2440 N.3   191  TYR191     -0.1227
     93  CA      -231.8850   54.7960   34.4600 C.3   191  TYR191      0.1736
     94  C       -231.9930   56.1640   35.1080 C.2   191  TYR191      0.2595
     95  O       -233.1080   56.6250   35.3680 O.2   191  TYR191     -0.2718
     96  CB      -232.6110   53.7690   35.3380 C.3   191  TYR191      0.0548
     97  CG      -232.4660   52.3450   34.8700 C.ar  191  TYR191     -0.0200
     98  CD1     -231.5630   51.4870   35.4790 C.ar  191  TYR191     -0.0009
     99  CD2     -233.2280   51.8590   33.8180 C.ar  191  TYR191     -0.0009
    100  CE1     -231.4220   50.1810   35.0540 C.ar  191  TYR191      0.0417
    101  CE2     -233.0960   50.5560   33.3830 C.ar  191  TYR191      0.0417
    102  CZ      -232.1910   49.7210   34.0020 C.ar  191  TYR191      0.1957
    103  OH      -232.0600   48.4220   33.5700 O.3   191  TYR191     -0.2866
    104  N       -230.8660   56.8200   35.3680 N.am  192  TYR192     -0.1976
    105  CA      -230.8200   58.0190   36.1930 C.3   192  TYR192      0.1639
    106  C       -230.6630   59.2980   35.3820 C.2   192  TYR192      0.2290
    107  O       -230.7900   60.3880   35.9450 O.2   192  TYR192     -0.2864
    108  CB      -229.6730   57.8910   37.2050 C.3   192  TYR192      0.0560
    109  CG      -229.4570   56.4540   37.6440 C.ar  192  TYR192     -0.0198
    110  CD1     -230.2820   55.8690   38.5930 C.ar  192  TYR192     -0.0009
    111  CD2     -228.4500   55.6730   37.0860 C.ar  192  TYR192     -0.0009
    112  CE1     -230.1080   54.5580   38.9890 C.ar  192  TYR192      0.0417
    113  CE2     -228.2680   54.3540   37.4770 C.ar  192  TYR192      0.0417
    114  CZ      -229.1040   53.8040   38.4320 C.ar  192  TYR192      0.1957
    115  OH      -228.9490   52.4980   38.8420 O.3   192  TYR192     -0.2866
    116  N       -241.5440   35.0160   46.5590 N.3   260  ALA260     -0.1231
    117  CA      -240.1370   35.3770   46.4290 C.3   260  ALA260      0.1694
    118  C       -239.9210   36.3080   45.2440 C.2   260  ALA260      0.2592
    119  O       -239.1960   37.3050   45.3450 O.2   260  ALA260     -0.2718
    120  CB      -239.2790   34.1240   46.2880 C.3   260  ALA260      0.0304
    121  N       -240.5440   35.9940   44.1070 N.am  261  PHE261     -0.1976
    122  CA      -240.4050   36.8470   42.9320 C.3   261  PHE261      0.1639
    123  C       -240.9460   38.2440   43.2060 C.2   261  PHE261      0.2290
    124  O       -240.3290   39.2450   42.8240 O.2   261  PHE261     -0.2864
    125  CB      -241.1180   36.2150   41.7380 C.3   261  PHE261      0.0560
    126  CG      -240.9400   36.9710   40.4530 C.ar  261  PHE261     -0.0200
    127  CD1     -239.8350   36.7460   39.6490 C.ar  261  PHE261     -0.0042
    128  CD2     -241.8800   37.9020   40.0440 C.ar  261  PHE261     -0.0042
    129  CE1     -239.6680   37.4410   38.4620 C.ar  261  PHE261     -0.0003
    130  CE2     -241.7180   38.5990   38.8590 C.ar  261  PHE261     -0.0003
    131  CZ      -240.6110   38.3670   38.0670 C.ar  261  PHE261     -0.0000
    132  N       -238.6730   40.6050   45.1410 N.3   264  CYS264     -0.1235
    133  CA      -237.6620   41.2350   44.3090 C.3   264  CYS264      0.1677
    134  C       -238.2720   42.2000   43.2920 C.2   264  CYS264      0.2270
    135  O       -237.6080   43.1510   42.8670 O.2   264  CYS264     -0.2867
    136  CB      -236.8450   40.1470   43.6120 C.3   264  CYS264      0.0956
    137  SG      -235.5810   40.7520   42.5100 S.3   264  CYS264     -0.0801
    138  N       -239.0170   47.6230   42.7860 N.3   268  TYR268     -0.1241
    139  CA      -238.8300   48.3730   41.5490 C.3   268  TYR268      0.1605
    140  C       -240.1110   49.0840   41.1450 C.2   268  TYR268      0.2264
    141  O       -240.0820   50.2470   40.7270 O.2   268  TYR268     -0.2867
    142  CB      -238.3710   47.4460   40.4320 C.3   268  TYR268      0.0534
    143  CG      -236.9590   46.9510   40.5890 C.ar  268  TYR268     -0.0201
    144  CD1     -236.6940   45.7270   41.1880 C.ar  268  TYR268     -0.0009
    145  CD2     -235.8880   47.7040   40.1310 C.ar  268  TYR268     -0.0009
    146  CE1     -235.3990   45.2690   41.3260 C.ar  268  TYR268      0.0417
    147  CE2     -234.5950   47.2550   40.2620 C.ar  268  TYR268      0.0417
    148  CZ      -234.3530   46.0380   40.8610 C.ar  268  TYR268      0.1957
    149  OH      -233.0570   45.5920   40.9910 O.3   268  TYR268     -0.2866
    150  N       -232.4100   47.7050   43.6950 N.3   292  ALA292     -0.1245
    151  CA      -231.2260   46.9560   43.2820 C.3   292  ALA292      0.1562
    152  C       -230.4100   46.4860   44.4790 C.2   292  ALA292      0.2260
    153  O       -229.8280   45.3940   44.4460 O.2   292  ALA292     -0.2867
    154  CB      -230.3630   47.8100   42.3540 C.3   292  ALA292      0.0290
    155  N       -232.2270   43.4410   45.6540 N.3   295  ALA295     -0.1231
    156  CA      -232.3010   42.4170   44.6190 C.3   295  ALA295      0.1694
    157  C       -231.0230   41.5910   44.5240 C.2   295  ALA295      0.2591
    158  O       -231.0620   40.4870   43.9740 O.2   295  ALA295     -0.2718
    159  CB      -232.6140   43.0560   43.2660 C.3   295  ALA295      0.0304
    160  N       -229.8950   42.0990   45.0360 N.am  296  LYS296     -0.1980
    161  CA      -228.6610   41.3180   45.0270 C.3   296  LYS296      0.1596
    162  C       -228.8090   40.0530   45.8580 C.2   296  LYS296      0.2287
    163  O       -228.1490   39.0430   45.5860 O.2   296  LYS296     -0.2864
    164  CB      -227.4920   42.1540   45.5620 C.3   296  LYS296      0.0298
    165  CG      -227.1800   43.4350   44.7920 C.3   296  LYS296      0.0038
    166  CD      -226.1340   44.2730   45.5240 C.3   296  LYS296      0.0206
    167  CE      -225.8760   45.5850   44.8130 C.3   296  LYS296      0.1093
    168  NZ      -225.3910   45.3950   43.4280 N.3   296  LYS296     -0.1314
    169  N       -231.0940   38.0020   45.8200 N.3   298  SER298     -0.1217
    170  CA      -231.6120   36.8910   45.0310 C.3   298  SER298      0.1889
    171  C       -230.5180   35.8920   44.6780 C.2   298  SER298      0.2288
    172  O       -230.8100   34.7120   44.4490 O.2   298  SER298     -0.2866
    173  CB      -232.2910   37.4120   43.7630 C.3   298  SER298      0.2089
    174  OG      -231.3470   37.9710   42.8690 O.3   298  SER298     -0.2183
    175  N       -230.9750   33.6290   47.9670 N.3   301  TYR301     -0.1227
    176  CA      -232.2180   32.9490   48.3310 C.3   301  TYR301      0.1736
    177  C       -232.8380   32.1920   47.1610 C.2   301  TYR301      0.2595
    178  O       -233.5560   31.2110   47.3860 O.2   301  TYR301     -0.2718
    179  CB      -233.2350   33.9290   48.9480 C.3   301  TYR301      0.0548
    180  CG      -233.7980   35.0100   48.0400 C.ar  301  TYR301     -0.0200
    181  CD1     -234.7190   34.7080   47.0420 C.ar  301  TYR301     -0.0009
    182  CD2     -233.4440   36.3420   48.2150 C.ar  301  TYR301     -0.0009
    183  CE1     -235.2380   35.6950   46.2200 C.ar  301  TYR301      0.0417
    184  CE2     -233.9650   37.3370   47.4040 C.ar  301  TYR301      0.0417
    185  CZ      -234.8570   37.0080   46.4060 C.ar  301  TYR301      0.1957
    186  OH      -235.3740   37.9920   45.5930 O.3   301  TYR301     -0.2866
    187  N       -232.5820   32.6090   45.9200 N.am  302  ASN302     -0.1974
    188  CA      -233.0990   31.8430   44.7860 C.3   302  ASN302      0.1688
    189  C       -232.5340   30.4300   44.7310 C.2   302  ASN302      0.2292
    190  O       -233.3220   29.4850   44.5500 O.2   302  ASN302     -0.2864
    191  CB      -232.8560   32.6000   43.4770 C.3   302  ASN302      0.1181
    192  CG      -233.9520   33.6010   43.1780 C.2   302  ASN302      0.2629
    193  OD1     -235.0660   33.4830   43.6850 O.2   302  ASN302     -0.2716
    194  ND2     -233.6430   34.5910   42.3480 N.am  302  ASN302     -0.0877
@<TRIPOS>BOND
     1    91    89    1
     2    90    88    1
     3    89    88    1
     4    88    85    1
     5    33    31    1
     6    85    86    1
     7    85    84    1
     8    31    32    1
     9    31    28    1
    10   101    99   ar
    11   101   102   ar
    12    86    87    2
    13   103   102    1
    14    29    30    2
    15    29    28    1
    16    99    97   ar
    17    84    82   am
    18    83    82    2
    19   102   100   ar
    20    13    14    1
    21    50    48    1
    22    28    27    1
    23    92    93    1
    24    82    81    1
    25    93    94    1
    26    93    96    1
    27    45    46    2
    28    45    44    1
    29    27    24   am
    30    48    47    1
    31    48    49    1
    32    97    96    1
    33    97    98   ar
    34    15    14    1
    35    15    16    2
    36   100    98   ar
    37    94    95    2
    38    94   104   am
    39    14    17    1
    40    22    23    1
    41    38    39    1
    42    47    44    1
    43   104   105    1
    44   106   107    2
    45   106   105    1
    46    81    80    1
    47    53    54    2
    48    53    52    1
    49    51    52    1
    50    44    43    1
    51    36    37    2
    52    36    35    1
    53    43    40   am
    54    24    23    1
    55    24    25    2
    56    80    76   am
    57    78    79    1
    58    78    75    1
    59   105   108    1
    60    40    39    1
    61    40    41    2
    62    34    35    1
    63    23    26    1
    64    39    42    1
    65    52    55    1
    66    17    18    1
    67    76    77    2
    68    76    75    1
    69   111   113   ar
    70   111   109   ar
    71    75    74    1
    72   108   109    1
    73   113   114   ar
    74    55    56    1
    75   109   110   ar
    76    18    19    1
    77   131   129   ar
    78   131   130   ar
    79   114   115    1
    80   114   112   ar
    81    74    70   am
    82   129   127   ar
    83    66    65   ar
    84    21    19   ar
    85   110   112   ar
    86    56    58    1
    87    56    57    1
    88    19    20   ar
    89   130   128   ar
    90     1     2    1
    91    65    67   ar
    92    65    64    1
    93    59    60    1
    94     6     7    1
    95     6     5    1
    96    70    71    2
    97    70    69    1
    98    63    60    1
    99    63    64    1
   100   127   126   ar
   101     9    10    1
   102     2     5    1
   103     2     3    1
   104    60    61    1
   105   128   126   ar
   106     7     8    1
   107   145   147   ar
   108   145   143   ar
   109   147   148   ar
   110   142   143    1
   111   142   139    1
   112    10    11    1
   113   126   125    1
   114   143   144   ar
   115   141   140    2
   116    69    72    1
   117    69    68    1
   118   148   149    1
   119   148   146   ar
   120     3     4    2
   121   140   139    1
   122   144   146   ar
   123    72    73    1
   124    61    62    2
   125   139   138    1
   126   125   122    1
   127    11    12    2
   128   194   192   am
   129   154   151    1
   130   137   136    1
   131   124   123    2
   132   135   134    2
   133   174   173    1
   134   122   123    1
   135   122   121    1
   136   192   191    1
   137   192   193    2
   138   159   156    1
   139   151   150    1
   140   151   152    1
   141   134   133    1
   142   168   167    1
   143   191   188    1
   144   136   133    1
   145   173   170    1
   146   158   157    2
   147   121   118   am
   148   133   132    1
   149   153   152    2
   150   172   171    2
   151   157   156    1
   152   157   160   am
   153   190   189    2
   154   156   155    1
   155   171   170    1
   156   189   188    1
   157   188   187    1
   158   165   166    1
   159   165   164    1
   160   167   166    1
   161   161   160    1
   162   161   164    1
   163   161   162    1
   164   170   169    1
   165   118   119    2
   166   118   117    1
   167   163   162    2
   168   186   185    1
   169   187   177   am
   170   183   185   ar
   171   183   181   ar
   172   120   117    1
   173   185   184   ar
   174   117   116    1
   175   181   180   ar
   176   177   178    2
   177   177   176    1
   178   184   182   ar
   179   175   176    1
   180   180   182   ar
   181   180   179    1
   182   176   179    1
