@<TRIPOS>MOLECULE
tmp/6fkaA06.pdb
 161 155 0 0 0
SMALL
GASTEIGER

@<TRIPOS>ATOM
      1  N       -347.8710 -168.3750  145.8350 N.3   118  THR118     -0.1218
      2  CA      -349.2080 -168.3540  145.2490 C.3   118  THR118      0.1862
      3  C       -349.5270 -169.6700  144.5500 C.2   118  THR118      0.2287
      4  O       -350.6510 -170.1760  144.6540 O.2   118  THR118     -0.2866
      5  CB      -349.3350 -167.1850  144.2710 C.3   118  THR118      0.1770
      6  OG1     -349.0060 -165.9630  144.9420 O.3   118  THR118     -0.2211
      7  CG2     -350.7530 -167.0900  143.7240 C.3   118  THR118      0.0375
      8  N       -350.5130 -172.3370  147.2540 N.3   121  GLY121     -0.1210
      9  CA      -351.8700 -172.1660  147.7400 C.3   121  GLY121      0.1956
     10  C       -352.9180 -172.4430  146.6810 C.2   121  GLY121      0.2611
     11  O       -354.0210 -172.8930  146.9980 O.2   121  GLY121     -0.2717
     12  N       -352.5860 -172.1890  145.4130 N.am  122  GLU122     -0.1979
     13  CA      -353.5260 -172.4400  144.3250 C.3   122  GLU122      0.1602
     14  C       -353.6970 -173.9360  144.0710 C.2   122  GLU122      0.2287
     15  O       -354.8240 -174.4250  143.9190 O.2   122  GLU122     -0.2864
     16  CB      -353.0580 -171.7260  143.0570 C.3   122  GLU122      0.0415
     17  CG      -353.5640 -170.3030  142.9100 C.3   122  GLU122      0.1163
     18  CD      -355.0390 -170.2420  142.5610 C.2   122  GLU122      0.3649
     19  OE1     -355.8280 -169.7070  143.3690 O.co2 122  GLU122     -0.2457
     20  OE2     -355.4090 -170.7350  141.4760 O.co2 122  GLU122     -0.2457
     21  N       -355.8670 -175.3220  146.8110 N.3   125  LEU125     -0.1245
     22  CA      -357.2740 -174.9590  146.6540 C.3   125  LEU125      0.1561
     23  C       -357.9700 -175.8640  145.6430 C.2   125  LEU125      0.2260
     24  O       -359.0490 -176.4040  145.9130 O.2   125  LEU125     -0.2867
     25  CB      -357.3950 -173.4940  146.2280 C.3   125  LEU125      0.0270
     26  CG      -358.7790 -173.0810  145.7190 C.3   125  LEU125      0.0019
     27  CD1     -359.8280 -173.2090  146.8190 C.3   125  LEU125      0.0001
     28  CD2     -358.7540 -171.6730  145.1510 C.3   125  LEU125      0.0001
     29  N       -353.4580 -168.6100  137.6170 N.3   167  CYS167     -0.1235
     30  CA      -353.4620 -167.5420  138.6040 C.3   167  CYS167      0.1677
     31  C       -352.0690 -166.9870  138.8830 C.2   167  CYS167      0.2270
     32  O       -351.8960 -165.7660  138.9380 O.2   167  CYS167     -0.2867
     33  CB      -354.0850 -168.0370  139.9140 C.3   167  CYS167      0.0956
     34  SG      -353.6560 -167.0350  141.3560 S.3   167  CYS167     -0.0801
     35  N       -350.0380 -161.2550  144.9700 N.3   189  ILE189     -0.1245
     36  CA      -350.8140 -160.4960  144.0000 C.3   189  ILE189      0.1561
     37  C       -351.1240 -159.1170  144.5640 C.2   189  ILE189      0.2260
     38  O       -351.3220 -158.9420  145.7730 O.2   189  ILE189     -0.2867
     39  CB      -352.1150 -161.2350  143.6390 C.3   189  ILE189      0.0252
     40  CG1     -351.8430 -162.7080  143.3330 C.3   189  ILE189      0.0019
     41  CG2     -352.8280 -160.5580  142.4670 C.3   189  ILE189      0.0019
     42  CD1     -351.1050 -162.9330  142.0550 C.3   189  ILE189      0.0001
     43  N       -353.5270 -156.6670  145.2630 N.3   191  TYR191     -0.1241
     44  CA      -354.8990 -156.2500  145.5150 C.3   191  TYR191      0.1605
     45  C       -354.9590 -154.8970  146.2110 C.2   191  TYR191      0.2264
     46  O       -355.9970 -154.5400  146.7740 O.2   191  TYR191     -0.2867
     47  CB      -355.6350 -157.2900  146.3590 C.3   191  TYR191      0.0534
     48  CG      -355.4980 -158.7120  145.8700 C.ar  191  TYR191     -0.0201
     49  CD1     -356.2020 -159.1530  144.7580 C.ar  191  TYR191     -0.0009
     50  CD2     -354.6830 -159.6160  146.5330 C.ar  191  TYR191     -0.0009
     51  CE1     -356.0860 -160.4520  144.3070 C.ar  191  TYR191      0.0417
     52  CE2     -354.5590 -160.9170  146.0900 C.ar  191  TYR191      0.0417
     53  CZ      -355.2610 -161.3290  144.9730 C.ar  191  TYR191      0.1957
     54  OH      -355.1470 -162.6280  144.5300 O.3   191  TYR191     -0.2866
     55  N       -358.4110 -158.6780  139.6350 N.3   204  VAL204     -0.1245
     56  CA      -359.1160 -158.8740  140.9000 C.3   204  VAL204      0.1561
     57  C       -360.4900 -159.4810  140.6490 C.2   204  VAL204      0.2260
     58  O       -360.9180 -160.4040  141.3540 O.2   204  VAL204     -0.2867
     59  CB      -359.2160 -157.5430  141.6690 C.3   204  VAL204      0.0252
     60  CG1     -360.0690 -157.7110  142.9220 C.3   204  VAL204      0.0019
     61  CG2     -357.8290 -157.0400  142.0310 C.3   204  VAL204      0.0019
     62  N       -359.8630 -163.0520  139.6280 N.3   207  MET207     -0.1230
     63  CA      -359.5700 -163.8310  140.8270 C.3   207  MET207      0.1702
     64  C       -360.8250 -164.0530  141.6550 C.2   207  MET207      0.2592
     65  O       -361.0440 -165.1470  142.1890 O.2   207  MET207     -0.2718
     66  CB      -358.5020 -163.1300  141.6700 C.3   207  MET207      0.0401
     67  CG      -357.0970 -163.2820  141.1380 C.3   207  MET207      0.0596
     68  SD      -356.5850 -165.0070  141.0850 S.3   207  MET207     -0.1393
     69  CE      -356.6450 -165.4310  142.8260 C.3   207  MET207      0.0692
     70  N       -361.6660 -163.0240  141.7680 N.am  208  PHE208     -0.1976
     71  CA      -362.8340 -163.1250  142.6320 C.3   208  PHE208      0.1639
     72  C       -363.8390 -164.1280  142.0890 C.2   208  PHE208      0.2290
     73  O       -364.4510 -164.8800  142.8560 O.2   208  PHE208     -0.2864
     74  CB      -363.4840 -161.7570  142.7970 C.3   208  PHE208      0.0560
     75  CG      -364.7920 -161.7980  143.5210 C.ar  208  PHE208     -0.0200
     76  CD1     -364.8330 -162.0350  144.8840 C.ar  208  PHE208     -0.0042
     77  CD2     -365.9790 -161.5960  142.8420 C.ar  208  PHE208     -0.0042
     78  CE1     -366.0360 -162.0730  145.5600 C.ar  208  PHE208     -0.0003
     79  CE2     -367.1860 -161.6320  143.5120 C.ar  208  PHE208     -0.0003
     80  CZ      -367.2140 -161.8730  144.8730 C.ar  208  PHE208     -0.0000
     81  N       -361.3100 -167.8690  140.9650 N.3   211  HIS211     -0.1226
     82  CA      -360.5060 -168.4520  142.0310 C.3   211  HIS211      0.1752
     83  C       -361.0520 -168.1370  143.4190 C.2   211  HIS211      0.2596
     84  O       -360.3060 -168.1940  144.4020 O.2   211  HIS211     -0.2718
     85  CB      -359.0560 -167.9810  141.9090 C.3   211  HIS211      0.0759
     86  CG      -358.4180 -168.3390  140.6040 C.ar  211  HIS211      0.0818
     87  ND1     -357.6380 -169.4620  140.4420 N.ar  211  HIS211     -0.2268
     88  CD2     -358.4470 -167.7250  139.3980 C.ar  211  HIS211      0.1154
     89  CE1     -357.2140 -169.5250  139.1920 C.ar  211  HIS211      0.1986
     90  NE2     -357.6890 -168.4820  138.5370 N.ar  211  HIS211     -0.2212
     91  N       -362.3380 -167.8080  143.5240 N.am  212  PHE212     -0.1976
     92  CA      -362.9350 -167.5700  144.8320 C.3   212  PHE212      0.1639
     93  C       -364.3990 -168.0020  144.8600 C.2   212  PHE212      0.2290
     94  O       -364.7910 -168.8020  145.7150 O.2   212  PHE212     -0.2864
     95  CB      -362.7930 -166.0970  145.2260 C.3   212  PHE212      0.0560
     96  CG      -363.1130 -165.8230  146.6680 C.ar  212  PHE212     -0.0200
     97  CD1     -362.3120 -166.3380  147.6760 C.ar  212  PHE212     -0.0042
     98  CD2     -364.2100 -165.0480  147.0160 C.ar  212  PHE212     -0.0042
     99  CE1     -362.6010 -166.0940  149.0040 C.ar  212  PHE212     -0.0003
    100  CE2     -364.5040 -164.7930  148.3420 C.ar  212  PHE212     -0.0003
    101  CZ      -363.6990 -165.3160  149.3380 C.ar  212  PHE212     -0.0000
    102  N       -364.7570 -171.9920  143.2250 N.3   215  PRO215     -0.2116
    103  CA      -364.3800 -173.0680  144.1610 C.3   215  PRO215      0.1372
    104  C       -365.4160 -173.3250  145.2430 C.2   215  PRO215      0.2244
    105  O       -365.6820 -174.4880  145.5670 O.2   215  PRO215     -0.2868
    106  CB      -363.0540 -172.5660  144.7510 C.3   215  PRO215      0.0268
    107  CG      -362.4900 -171.6870  143.7000 C.3   215  PRO215      0.0207
    108  CD      -363.6720 -171.0020  143.0790 C.3   215  PRO215      0.0892
    109  N       -363.3000 -175.3530  155.0110 N.3   261  PHE261     -0.1241
    110  CA      -363.1750 -174.4720  153.8560 C.3   261  PHE261      0.1605
    111  C       -363.7450 -173.0900  154.1540 C.2   261  PHE261      0.2264
    112  O       -363.1400 -172.0730  153.8000 O.2   261  PHE261     -0.2867
    113  CB      -363.8730 -175.0930  152.6490 C.3   261  PHE261      0.0534
    114  CG      -363.6420 -174.3490  151.3680 C.ar  261  PHE261     -0.0203
    115  CD1     -362.5290 -174.6220  150.5890 C.ar  261  PHE261     -0.0042
    116  CD2     -364.5360 -173.3800  150.9410 C.ar  261  PHE261     -0.0042
    117  CE1     -362.3100 -173.9420  149.4040 C.ar  261  PHE261     -0.0003
    118  CE2     -364.3230 -172.6970  149.7590 C.ar  261  PHE261     -0.0003
    119  CZ      -363.2090 -172.9790  148.9870 C.ar  261  PHE261     -0.0000
    120  N       -361.5610 -170.7180  156.0860 N.3   264  CYS264     -0.1221
    121  CA      -360.5240 -170.0720  155.2930 C.3   264  CYS264      0.1808
    122  C       -361.1030 -169.0900  154.2740 C.2   264  CYS264      0.2601
    123  O       -360.4550 -168.0910  153.9460 O.2   264  CYS264     -0.2717
    124  CB      -359.6720 -171.1300  154.5960 C.3   264  CYS264      0.0970
    125  SG      -358.3910 -170.4750  153.5340 S.3   264  CYS264     -0.0800
    126  N       -362.3250 -169.3360  153.8000 N.am  265  TRP265     -0.1976
    127  CA      -362.9450 -168.5850  152.7150 C.3   265  TRP265      0.1640
    128  C       -363.6440 -167.3130  153.1890 C.2   265  TRP265      0.2290
    129  O       -363.5160 -166.2630  152.5470 O.2   265  TRP265     -0.2864
    130  CB      -363.9470 -169.4930  151.9930 C.3   265  TRP265      0.0576
    131  CG      -364.5400 -168.9420  150.7420 C.ar  265  TRP265      0.0006
    132  CD1     -364.0850 -169.1270  149.4680 C.ar  265  TRP265      0.0946
    133  CD2     -365.7200 -168.1400  150.6350 C.ar  265  TRP265      0.0152
    134  NE1     -364.9040 -168.4810  148.5750 N.ar  265  TRP265     -0.2442
    135  CE2     -365.9170 -167.8690  149.2660 C.ar  265  TRP265      0.0810
    136  CE3     -366.6270 -167.6200  151.5640 C.ar  265  TRP265      0.0012
    137  CZ2     -366.9800 -167.0970  148.8030 C.ar  265  TRP265      0.0191
    138  CZ3     -367.6850 -166.8540  151.1030 C.ar  265  TRP265      0.0001
    139  CH2     -367.8520 -166.6010  149.7330 C.ar  265  TRP265      0.0015
    140  N       -361.7940 -163.6090  153.7040 N.3   268  TYR268     -0.1241
    141  CA      -361.6460 -162.8280  152.4800 C.3   268  TYR268      0.1605
    142  C       -362.9520 -162.1340  152.1260 C.2   268  TYR268      0.2264
    143  O       -362.9760 -160.9280  151.8520 O.2   268  TYR268     -0.2867
    144  CB      -361.1920 -163.7210  151.3290 C.3   268  TYR268      0.0534
    145  CG      -359.8090 -164.2950  151.4960 C.ar  268  TYR268     -0.0201
    146  CD1     -359.6190 -165.5440  152.0740 C.ar  268  TYR268     -0.0009
    147  CD2     -358.6880 -163.5920  151.0670 C.ar  268  TYR268     -0.0009
    148  CE1     -358.3510 -166.0760  152.2230 C.ar  268  TYR268      0.0417
    149  CE2     -357.4190 -164.1160  151.2090 C.ar  268  TYR268      0.0417
    150  CZ      -357.2540 -165.3560  151.7860 C.ar  268  TYR268      0.1957
    151  OH      -355.9860 -165.8690  151.9250 O.3   268  TYR268     -0.2866
    152  N       -363.2730 -158.2190  152.0770 N.3   272  ALA272     -0.1245
    153  CA      -363.6410 -157.6070  150.8040 C.3   272  ALA272      0.1562
    154  C       -364.9800 -156.8870  150.8980 C.2   272  ALA272      0.2260
    155  O       -365.1360 -155.7860  150.3560 O.2   272  ALA272     -0.2867
    156  CB      -363.6780 -158.6610  149.7050 C.3   272  ALA272      0.0290
    157  N       -355.0040 -167.8680  156.6270 N.3   295  ALA295     -0.1245
    158  CA      -355.0930 -168.9140  155.6150 C.3   295  ALA295      0.1562
    159  C       -353.8030 -169.7120  155.4770 C.2   295  ALA295      0.2260
    160  O       -353.8160 -170.7700  154.8380 O.2   295  ALA295     -0.2867
    161  CB      -355.4670 -168.3160  154.2570 C.3   295  ALA295      0.0290
@<TRIPOS>BOND
     1    29    30    1
     2    90    89   ar
     3    90    88   ar
     4    30    31    1
     5    30    33    1
     6    31    32    2
     7    89    87   ar
     8    88    86   ar
     9    62    63    1
    10    55    56    1
    11    33    34    1
    12    87    86   ar
    13    86    85    1
    14    57    56    1
    15    57    58    2
    16    63    64    1
    17    63    66    1
    18    56    59    1
    19    81    82    1
    20    68    67    1
    21    68    69    1
    22    67    66    1
    23    20    18   ar
    24    64    70   am
    25    64    65    2
    26    59    61    1
    27    59    60    1
    28    70    71    1
    29    85    82    1
    30    82    83    1
    31    42    40    1
    32    72    71    1
    33    72    73    2
    34    41    39    1
    35    18    17    1
    36    18    19   ar
    37    71    74    1
    38    74    75    1
    39    77    79   ar
    40    77    75   ar
    41    17    16    1
    42    16    13    1
    43   108   102    1
    44   108   107    1
    45   102   103    1
    46    40    39    1
    47    83    91   am
    48    83    84    2
    49    79    80   ar
    50    75    76   ar
    51    91    92    1
    52    39    36    1
    53   107   106    1
    54     7     5    1
    55    15    14    2
    56    36    37    1
    57    36    35    1
    58    14    13    1
    59   103   106    1
    60   103   104    1
    61     5     6    1
    62     5     2    1
    63    51    49   ar
    64    51    53   ar
    65    13    12    1
    66    54    53    1
    67     3     4    2
    68     3     2    1
    69    37    38    2
    70    49    48   ar
    71    92    93    1
    72    92    95    1
    73    93    94    2
    74    80    78   ar
    75    76    78   ar
    76    53    52   ar
    77    28    26    1
    78    95    96    1
    79   104   105    2
    80     2     1    1
    81    43    44    1
    82    12    10   am
    83    44    45    1
    84    44    47    1
    85    23    24    2
    86    23    22    1
    87    26    25    1
    88    26    27    1
    89    48    47    1
    90    48    50   ar
    91    52    50   ar
    92    45    46    2
    93    25    22    1
    94    22    21    1
    95    96    98   ar
    96    96    97   ar
    97    10    11    2
    98    10     9    1
    99    98   100   ar
   100     8     9    1
   101    97    99   ar
   102   100   101   ar
   103   134   135   ar
   104   134   132   ar
   105   137   135   ar
   106   137   139   ar
   107   119   117   ar
   108   119   118   ar
   109    99   101   ar
   110   135   133   ar
   111   117   115   ar
   112   132   131   ar
   113   156   153    1
   114   139   138   ar
   115   118   116   ar
   116   155   154    2
   117   115   114   ar
   118   133   131   ar
   119   133   136   ar
   120   131   130    1
   121   153   154    1
   122   153   152    1
   123   116   114   ar
   124   147   149   ar
   125   147   145   ar
   126   138   136   ar
   127   149   150   ar
   128   144   145    1
   129   144   141    1
   130   114   113    1
   131   145   146   ar
   132   150   151    1
   133   150   148   ar
   134   143   142    2
   135   130   127    1
   136   146   148   ar
   137   142   141    1
   138   141   140    1
   139   129   128    2
   140   113   110    1
   141   127   128    1
   142   127   126    1
   143   125   124    1
   144   112   111    2
   145   126   122   am
   146   110   111    1
   147   110   109    1
   148   123   122    2
   149   161   158    1
   150   122   121    1
   151   124   121    1
   152   160   159    2
   153   121   120    1
   154   159   158    1
   155   158   157    1
