@<TRIPOS>MOLECULE
tmp/6fkbA06.pdb
 169 162 0 0 0
SMALL
GASTEIGER

@<TRIPOS>ATOM
      1  N       -224.3680   42.7030   34.8540 N.3   118  THR118     -0.1218
      2  CA      -225.7100   42.7410   34.2860 C.3   118  THR118      0.1862
      3  C       -226.0330   41.4390   33.5680 C.2   118  THR118      0.2287
      4  O       -227.1620   40.9420   33.6490 O.2   118  THR118     -0.2866
      5  CB      -225.8480   43.9290   33.3330 C.3   118  THR118      0.1770
      6  OG1     -225.5390   45.1410   34.0330 O.3   118  THR118     -0.2211
      7  CG2     -227.2610   44.0170   32.7800 C.3   118  THR118      0.0375
      8  N       -226.9740   38.6590   36.2090 N.3   121  GLY121     -0.1210
      9  CA      -228.3100   38.8710   36.7400 C.3   121  GLY121      0.1956
     10  C       -229.4000   38.6880   35.7040 C.2   121  GLY121      0.2611
     11  O       -230.5100   38.2630   36.0360 O.2   121  GLY121     -0.2717
     12  N       -229.1050   39.0000   34.4410 N.am  122  GLU122     -0.1979
     13  CA      -230.0960   38.8120   33.3870 C.3   122  GLU122      0.1602
     14  C       -230.2470   37.3400   33.0230 C.2   122  GLU122      0.2287
     15  O       -231.3610   36.8770   32.7500 O.2   122  GLU122     -0.2864
     16  CB      -229.7190   39.6360   32.1580 C.3   122  GLU122      0.0415
     17  CG      -230.0910   41.0960   32.2730 C.3   122  GLU122      0.1163
     18  CD      -231.5880   41.3120   32.2070 C.2   122  GLU122      0.3649
     19  OE1     -232.1800   41.0890   31.1290 O.co2 122  GLU122     -0.2457
     20  OE2     -232.1760   41.6900   33.2390 O.co2 122  GLU122     -0.2457
     21  N       -232.4900   35.9070   35.7700 N.3   125  LEU125     -0.1245
     22  CA      -233.8940   36.2880   35.6400 C.3   125  LEU125      0.1561
     23  C       -234.6050   35.4340   34.5980 C.2   125  LEU125      0.2260
     24  O       -235.6890   34.8970   34.8510 O.2   125  LEU125     -0.2867
     25  CB      -234.0060   37.7690   35.2760 C.3   125  LEU125      0.0270
     26  CG      -235.3510   38.2030   34.6820 C.3   125  LEU125      0.0019
     27  CD1     -236.4370   38.2570   35.7470 C.3   125  LEU125      0.0001
     28  CD2     -235.2310   39.5340   33.9560 C.3   125  LEU125      0.0001
     29  N       -230.0230   42.5450   26.6870 N.3   167  CYS167     -0.1235
     30  CA      -230.0720   43.6270   27.6600 C.3   167  CYS167      0.1677
     31  C       -228.6960   44.1880   27.9850 C.2   167  CYS167      0.2270
     32  O       -228.5430   45.4060   28.1160 O.2   167  CYS167     -0.2867
     33  CB      -230.7420   43.1460   28.9500 C.3   167  CYS167      0.0956
     34  SG      -230.2930   44.1050   30.4150 S.3   167  CYS167     -0.0801
     35  N       -226.5730   49.7110   34.0270 N.3   189  ILE189     -0.1245
     36  CA      -227.3570   50.4720   33.0630 C.3   189  ILE189      0.1561
     37  C       -227.6340   51.8670   33.6150 C.2   189  ILE189      0.2260
     38  O       -227.7840   52.0650   34.8280 O.2   189  ILE189     -0.2867
     39  CB      -228.6750   49.7520   32.7300 C.3   189  ILE189      0.0252
     40  CG1     -228.4460   48.2590   32.4870 C.3   189  ILE189      0.0019
     41  CG2     -229.3460   50.3830   31.5180 C.3   189  ILE189      0.0019
     42  CD1     -227.8680   47.9340   31.1370 C.3   189  ILE189      0.0001
     43  N       -230.0910   54.3410   34.2600 N.3   191  TYR191     -0.1241
     44  CA      -231.4610   54.7840   34.4770 C.3   191  TYR191      0.1605
     45  C       -231.5210   56.1630   35.1150 C.2   191  TYR191      0.2264
     46  O       -232.6160   56.6530   35.4070 O.2   191  TYR191     -0.2867
     47  CB      -232.2130   53.7840   35.3610 C.3   191  TYR191      0.0534
     48  CG      -231.9890   52.3390   34.9920 C.ar  191  TYR191     -0.0201
     49  CD1     -232.5240   51.8100   33.8260 C.ar  191  TYR191     -0.0009
     50  CD2     -231.2520   51.4980   35.8170 C.ar  191  TYR191     -0.0009
     51  CE1     -232.3260   50.4880   33.4850 C.ar  191  TYR191      0.0417
     52  CE2     -231.0490   50.1720   35.4850 C.ar  191  TYR191      0.0417
     53  CZ      -231.5880   49.6740   34.3170 C.ar  191  TYR191      0.1957
     54  OH      -231.3960   48.3540   33.9740 O.3   191  TYR191     -0.2866
     55  N       -234.9450   52.2810   28.6650 N.3   204  VAL204     -0.1245
     56  CA      -235.6550   52.0480   29.9210 C.3   204  VAL204      0.1561
     57  C       -237.0410   51.4790   29.6500 C.2   204  VAL204      0.2260
     58  O       -237.4960   50.5540   30.3350 O.2   204  VAL204     -0.2867
     59  CB      -235.7240   53.3460   30.7470 C.3   204  VAL204      0.0252
     60  CG1     -236.6170   53.1580   31.9630 C.3   204  VAL204      0.0019
     61  CG2     -234.3300   53.7770   31.1710 C.3   204  VAL204      0.0019
     62  N       -236.4610   47.9710   28.5470 N.3   207  MET207     -0.1230
     63  CA      -236.1610   47.1770   29.7340 C.3   207  MET207      0.1702
     64  C       -237.4180   46.9160   30.5490 C.2   207  MET207      0.2592
     65  O       -237.6420   45.7960   31.0260 O.2   207  MET207     -0.2718
     66  CB      -235.1150   47.8850   30.5910 C.3   207  MET207      0.0401
     67  CG      -233.7050   47.7600   30.0660 C.3   207  MET207      0.0596
     68  SD      -233.1610   46.0470   30.0990 S.3   207  MET207     -0.1393
     69  CE      -233.2560   45.7100   31.8560 C.3   207  MET207      0.0692
     70  N       -238.2520   47.9420   30.7160 N.am  208  PHE208     -0.1976
     71  CA      -239.4460   47.7990   31.5390 C.3   208  PHE208      0.1639
     72  C       -240.4490   46.8440   30.9040 C.2   208  PHE208      0.2290
     73  O       -241.0730   46.0380   31.6030 O.2   208  PHE208     -0.2864
     74  CB      -240.0780   49.1690   31.7740 C.3   208  PHE208      0.0560
     75  CG      -241.3370   49.1230   32.5820 C.ar  208  PHE208     -0.0200
     76  CD1     -241.2850   49.0240   33.9630 C.ar  208  PHE208     -0.0042
     77  CD2     -242.5730   49.1860   31.9640 C.ar  208  PHE208     -0.0042
     78  CE1     -242.4480   48.9830   34.7120 C.ar  208  PHE208     -0.0003
     79  CE2     -243.7390   49.1460   32.7070 C.ar  208  PHE208     -0.0003
     80  CZ      -243.6760   49.0440   34.0830 C.ar  208  PHE208     -0.0000
     81  N       -237.9590   43.1490   29.7510 N.3   211  HIS211     -0.1226
     82  CA      -237.1780   42.4990   30.7940 C.3   211  HIS211      0.1752
     83  C       -237.7490   42.7190   32.1900 C.2   211  HIS211      0.2596
     84  O       -237.0470   42.4890   33.1800 O.2   211  HIS211     -0.2718
     85  CB      -235.7260   42.9770   30.7390 C.3   211  HIS211      0.0759
     86  CG      -235.0320   42.6490   29.4550 C.ar  211  HIS211      0.0818
     87  ND1     -234.1960   41.5620   29.3170 N.ar  211  HIS211     -0.2268
     88  CD2     -235.0530   43.2630   28.2480 C.ar  211  HIS211      0.1154
     89  CE1     -233.7300   41.5220   28.0810 C.ar  211  HIS211      0.1986
     90  NE2     -234.2340   42.5430   27.4120 N.ar  211  HIS211     -0.2212
     91  N       -239.0040   43.1480   32.2970 N.am  212  PHE212     -0.1976
     92  CA      -239.5790   43.4170   33.6090 C.3   212  PHE212      0.1639
     93  C       -241.0520   43.0280   33.6520 C.2   212  PHE212      0.2290
     94  O       -241.4810   42.3030   34.5550 O.2   212  PHE212     -0.2864
     95  CB      -239.3920   44.8930   33.9680 C.3   212  PHE212      0.0560
     96  CG      -239.7570   45.2320   35.3860 C.ar  212  PHE212     -0.0200
     97  CD1     -238.9500   44.8340   36.4380 C.ar  212  PHE212     -0.0042
     98  CD2     -240.8940   45.9730   35.6660 C.ar  212  PHE212     -0.0042
     99  CE1     -239.2740   45.1550   37.7430 C.ar  212  PHE212     -0.0003
    100  CE2     -241.2240   46.2990   36.9700 C.ar  212  PHE212     -0.0003
    101  CZ      -240.4120   45.8890   38.0090 C.ar  212  PHE212     -0.0000
    102  N       -239.8840   36.0250   43.7890 N.3   261  PHE261     -0.1241
    103  CA      -239.7210   36.8460   42.5960 C.3   261  PHE261      0.1605
    104  C       -240.2390   38.2590   42.8260 C.2   261  PHE261      0.2264
    105  O       -239.6420   39.2300   42.3470 O.2   261  PHE261     -0.2867
    106  CB      -240.4330   36.1930   41.4120 C.3   261  PHE261      0.0534
    107  CG      -240.2470   36.9240   40.1170 C.ar  261  PHE261     -0.0203
    108  CD1     -239.1000   36.7440   39.3620 C.ar  261  PHE261     -0.0042
    109  CD2     -241.2230   37.7860   39.6480 C.ar  261  PHE261     -0.0042
    110  CE1     -238.9280   37.4150   38.1670 C.ar  261  PHE261     -0.0003
    111  CE2     -241.0580   38.4590   38.4550 C.ar  261  PHE261     -0.0003
    112  CZ      -239.9090   38.2730   37.7120 C.ar  261  PHE261     -0.0000
    113  N       -237.9090   40.5970   44.7490 N.3   264  CYS264     -0.1221
    114  CA      -236.9270   41.2250   43.8750 C.3   264  CYS264      0.1808
    115  C       -237.5750   42.1670   42.8670 C.2   264  CYS264      0.2601
    116  O       -236.9060   43.0780   42.3690 O.2   264  CYS264     -0.2717
    117  CB      -236.1170   40.1430   43.1550 C.3   264  CYS264      0.0970
    118  SG      -234.7690   40.7490   42.1230 S.3   264  CYS264     -0.0800
    119  N       -238.8650   41.9840   42.5820 N.am  265  TRP265     -0.1976
    120  CA      -239.5640   42.7360   41.5440 C.3   265  TRP265      0.1640
    121  C       -240.1790   44.0270   42.0770 C.2   265  TRP265      0.2290
    122  O       -240.0060   45.0950   41.4790 O.2   265  TRP265     -0.2864
    123  CB      -240.6510   41.8540   40.9190 C.3   265  TRP265      0.0576
    124  CG      -241.3370   42.4450   39.7230 C.ar  265  TRP265      0.0006
    125  CD1     -240.9800   42.2930   38.4140 C.ar  265  TRP265      0.0946
    126  CD2     -242.5100   43.2690   39.7260 C.ar  265  TRP265      0.0152
    127  NE1     -241.8540   42.9750   37.6020 N.ar  265  TRP265     -0.2442
    128  CE2     -242.8030   43.5820   38.3830 C.ar  265  TRP265      0.0810
    129  CE3     -243.3380   43.7740   40.7330 C.ar  265  TRP265      0.0012
    130  CZ2     -243.8870   44.3800   38.0220 C.ar  265  TRP265      0.0191
    131  CZ3     -244.4150   44.5630   40.3720 C.ar  265  TRP265      0.0001
    132  CH2     -244.6790   44.8590   39.0290 C.ar  265  TRP265      0.0015
    133  N       -238.3010   47.6020   42.4040 N.3   268  TYR268     -0.1241
    134  CA      -238.2020   48.3820   41.1760 C.3   268  TYR268      0.1605
    135  C       -239.5410   49.0080   40.8170 C.2   268  TYR268      0.2264
    136  O       -239.5890   50.1360   40.3170 O.2   268  TYR268     -0.2867
    137  CB      -237.6930   47.5060   40.0330 C.3   268  TYR268      0.0534
    138  CG      -236.2740   47.0300   40.2240 C.ar  268  TYR268     -0.0201
    139  CD1     -236.0070   45.8160   40.8430 C.ar  268  TYR268     -0.0009
    140  CD2     -235.2010   47.7950   39.7880 C.ar  268  TYR268     -0.0009
    141  CE1     -234.7110   45.3750   41.0190 C.ar  268  TYR268      0.0417
    142  CE2     -233.9000   47.3640   39.9600 C.ar  268  TYR268      0.0417
    143  CZ      -233.6610   46.1530   40.5760 C.ar  268  TYR268      0.1957
    144  OH      -232.3680   45.7190   40.7500 O.3   268  TYR268     -0.2866
    145  N       -239.9090   51.9210   43.1590 N.3   271  VAL271     -0.1231
    146  CA      -239.0740   53.0070   42.6560 C.3   271  VAL271      0.1692
    147  C       -239.6250   53.5310   41.3350 C.2   271  VAL271      0.2591
    148  O       -239.5770   54.7370   41.0630 O.2   271  VAL271     -0.2718
    149  CB      -237.6120   52.5370   42.5280 C.3   271  VAL271      0.0266
    150  CG1     -236.8200   53.4570   41.6120 C.3   271  VAL271      0.0020
    151  CG2     -236.9640   52.4810   43.8990 C.3   271  VAL271      0.0020
    152  N       -240.1700   52.6420   40.5020 N.am  272  ALA272     -0.1980
    153  CA      -240.8400   53.0830   39.2820 C.3   272  ALA272      0.1597
    154  C       -241.9760   54.0440   39.6040 C.2   272  ALA272      0.2287
    155  O       -242.0180   55.1700   39.0970 O.2   272  ALA272     -0.2864
    156  CB      -241.3730   51.8810   38.5010 C.3   272  ALA272      0.0319
    157  N       -240.7490   57.1620   40.5900 N.3   275  ILE275     -0.1245
    158  CA      -240.1710   57.8930   39.4680 C.3   275  ILE275      0.1561
    159  C       -241.2350   58.1990   38.4170 C.2   275  ILE275      0.2260
    160  O       -241.1630   59.2360   37.7460 O.2   275  ILE275     -0.2867
    161  CB      -238.9870   57.1070   38.8720 C.3   275  ILE275      0.0252
    162  CG1     -237.8100   57.0750   39.8560 C.3   275  ILE275      0.0019
    163  CG2     -238.5300   57.7150   37.5470 C.3   275  ILE275      0.0019
    164  CD1     -236.5740   56.3740   39.3210 C.3   275  ILE275      0.0001
    165  N       -231.5620   43.3200   45.1990 N.3   295  ALA295     -0.1245
    166  CA      -231.6470   42.3270   44.1340 C.3   295  ALA295      0.1562
    167  C       -230.3750   41.4990   44.0150 C.2   295  ALA295      0.2260
    168  O       -230.4110   40.4170   43.4180 O.2   295  ALA295     -0.2867
    169  CB      -231.9500   43.0030   42.7970 C.3   295  ALA295      0.0290
@<TRIPOS>BOND
     1    29    30    1
     2    90    89   ar
     3    90    88   ar
     4    30    31    1
     5    30    33    1
     6    31    32    2
     7    89    87   ar
     8    88    86   ar
     9    62    63    1
    10    55    56    1
    11    33    34    1
    12    87    86   ar
    13    86    85    1
    14    57    56    1
    15    57    58    2
    16    63    64    1
    17    63    66    1
    18    81    82    1
    19    56    59    1
    20    67    68    1
    21    67    66    1
    22    68    69    1
    23    64    70   am
    24    64    65    2
    25    70    71    1
    26    85    82    1
    27    59    61    1
    28    59    60    1
    29    82    83    1
    30    72    71    1
    31    72    73    2
    32    19    18   ar
    33    42    40    1
    34    41    39    1
    35    71    74    1
    36    74    75    1
    37    77    75   ar
    38    77    79   ar
    39    16    17    1
    40    16    13    1
    41    83    91   am
    42    83    84    2
    43    18    17    1
    44    18    20   ar
    45    91    92    1
    46    40    39    1
    47    75    76   ar
    48    79    80   ar
    49    39    36    1
    50    15    14    2
    51     7     5    1
    52    14    13    1
    53    36    37    1
    54    36    35    1
    55     5     6    1
    56     5     2    1
    57    13    12    1
    58    51    49   ar
    59    51    53   ar
    60     3     4    2
    61     3     2    1
    62    92    93    1
    63    92    95    1
    64    37    38    2
    65    93    94    2
    66    49    48   ar
    67    28    26    1
    68    76    78   ar
    69    95    96    1
    70    54    53    1
    71    80    78   ar
    72    43    44    1
    73     2     1    1
    74    53    52   ar
    75    12    10   am
    76    44    45    1
    77    44    47    1
    78    23    24    2
    79    23    22    1
    80    26    25    1
    81    26    27    1
    82    48    47    1
    83    48    50   ar
    84    45    46    2
    85    25    22    1
    86    96    98   ar
    87    96    97   ar
    88    52    50   ar
    89    22    21    1
    90    98   100   ar
    91    10    11    2
    92    10     9    1
    93     8     9    1
    94    97    99   ar
    95   100   101   ar
    96   163   161    1
    97   127   128   ar
    98   127   125   ar
    99   112   110   ar
   100   112   111   ar
   101    99   101   ar
   102   160   159    2
   103   130   128   ar
   104   130   132   ar
   105   110   108   ar
   106   128   126   ar
   107   125   124   ar
   108   159   158    1
   109   111   109   ar
   110   156   153    1
   111   161   158    1
   112   161   162    1
   113   132   131   ar
   114   155   154    2
   115   153   154    1
   116   153   152    1
   117   164   162    1
   118   108   107   ar
   119   158   157    1
   120   109   107   ar
   121   124   126   ar
   122   124   123    1
   123   126   129   ar
   124   140   142   ar
   125   140   138   ar
   126   142   143   ar
   127   137   138    1
   128   137   134    1
   129   107   106    1
   130   138   139   ar
   131   136   135    2
   132   131   129   ar
   133   152   147   am
   134   143   144    1
   135   143   141   ar
   136   135   134    1
   137   139   141   ar
   138   123   120    1
   139   148   147    2
   140   134   133    1
   141   147   146    1
   142   106   103    1
   143   122   121    2
   144   120   121    1
   145   120   119    1
   146   150   149    1
   147   118   117    1
   148   105   104    2
   149   116   115    2
   150   149   146    1
   151   149   151    1
   152   119   115   am
   153   103   104    1
   154   103   102    1
   155   146   145    1
   156   169   166    1
   157   115   114    1
   158   117   114    1
   159   168   167    2
   160   114   113    1
   161   167   166    1
   162   166   165    1
