@<TRIPOS>MOLECULE
tmp/6fkcA02.pdb
 177 169 0 0 0
SMALL
GASTEIGER

@<TRIPOS>ATOM
      1  N       -346.3710 -167.8450  146.8230 N.3   118  THR118     -0.1218
      2  CA      -347.7090 -167.7890  146.2370 C.3   118  THR118      0.1862
      3  C       -348.0540 -169.0990  145.5430 C.2   118  THR118      0.2287
      4  O       -349.1930 -169.5750  145.6320 O.2   118  THR118     -0.2866
      5  CB      -347.8120 -166.6200  145.2560 C.3   118  THR118      0.1770
      6  OG1     -347.4650 -165.4020  145.9310 O.3   118  THR118     -0.2211
      7  CG2     -349.2260 -166.5070  144.6850 C.3   118  THR118      0.0375
      8  N       -349.1060 -171.7560  148.2560 N.3   121  GLY121     -0.1210
      9  CA      -350.4600 -171.5450  148.7450 C.3   121  GLY121      0.1956
     10  C       -351.5200 -171.8410  147.7050 C.2   121  GLY121      0.2611
     11  O       -352.6040 -172.3220  148.0420 O.2   121  GLY121     -0.2717
     12  N       -351.2150 -171.5810  146.4310 N.am  122  GLU122     -0.1979
     13  CA      -352.1610 -171.8500  145.3550 C.3   122  GLU122      0.1602
     14  C       -352.2980 -173.3460  145.0790 C.2   122  GLU122      0.2287
     15  O       -353.4130 -173.8460  144.8940 O.2   122  GLU122     -0.2864
     16  CB      -351.7230 -171.1090  144.0930 C.3   122  GLU122      0.0415
     17  CG      -352.0970 -169.6350  144.0720 C.3   122  GLU122      0.1163
     18  CD      -353.5760 -169.4250  143.8060 C.2   122  GLU122      0.3649
     19  OE1     -354.2370 -168.7230  144.6000 O.co2 122  GLU122     -0.2457
     20  OE2     -354.0780 -169.9710  142.8000 O.co2 122  GLU122     -0.2457
     21  N       -354.4560 -174.6550  147.8080 N.3   125  LEU125     -0.1245
     22  CA      -355.8580 -174.2950  147.6230 C.3   125  LEU125      0.1561
     23  C       -356.5360 -175.2040  146.6080 C.2   125  LEU125      0.2260
     24  O       -357.6010 -175.7680  146.8770 O.2   125  LEU125     -0.2867
     25  CB      -355.9690 -172.8350  147.1820 C.3   125  LEU125      0.0270
     26  CG      -357.3590 -172.3940  146.7090 C.3   125  LEU125      0.0019
     27  CD1     -358.3550 -172.4790  147.8500 C.3   125  LEU125      0.0001
     28  CD2     -357.3130 -170.9810  146.1330 C.3   125  LEU125      0.0001
     29  N       -352.0670 -168.0660  138.5990 N.3   167  CYS167     -0.1235
     30  CA      -352.0750 -166.9660  139.5510 C.3   167  CYS167      0.1677
     31  C       -350.6730 -166.4180  139.8150 C.2   167  CYS167      0.2270
     32  O       -350.4910 -165.1980  139.8820 O.2   167  CYS167     -0.2867
     33  CB      -352.7180 -167.4120  140.8650 C.3   167  CYS167      0.0956
     34  SG      -352.1280 -166.5160  142.3180 S.3   167  CYS167     -0.0801
     35  N       -348.4970 -160.7490  146.0190 N.3   189  ILE189     -0.1245
     36  CA      -349.2910 -160.0210  145.0440 C.3   189  ILE189      0.1561
     37  C       -349.6090 -158.6470  145.6050 C.2   189  ILE189      0.2260
     38  O       -349.8180 -158.4720  146.8120 O.2   189  ILE189     -0.2867
     39  CB      -350.5910 -160.7740  144.7070 C.3   189  ILE189      0.0252
     40  CG1     -350.3180 -162.2360  144.3530 C.3   189  ILE189      0.0019
     41  CG2     -351.3340 -160.0930  143.5620 C.3   189  ILE189      0.0019
     42  CD1     -349.7220 -162.4210  143.0040 C.3   189  ILE189      0.0001
     43  N       -352.0760 -156.0960  146.2020 N.3   191  TYR191     -0.1241
     44  CA      -353.4360 -155.5900  146.3640 C.3   191  TYR191      0.1605
     45  C       -353.4630 -154.2040  146.9870 C.2   191  TYR191      0.2264
     46  O       -354.5320 -153.7310  147.3760 O.2   191  TYR191     -0.2867
     47  CB      -354.2680 -156.5460  147.2250 C.3   191  TYR191      0.0534
     48  CG      -354.0560 -157.9920  146.8870 C.ar  191  TYR191     -0.0201
     49  CD1     -353.2350 -158.7940  147.6680 C.ar  191  TYR191     -0.0009
     50  CD2     -354.6620 -158.5560  145.7730 C.ar  191  TYR191     -0.0009
     51  CE1     -353.0240 -160.1210  147.3470 C.ar  191  TYR191      0.0417
     52  CE2     -354.4620 -159.8770  145.4460 C.ar  191  TYR191      0.0417
     53  CZ      -353.6440 -160.6580  146.2310 C.ar  191  TYR191      0.1957
     54  OH      -353.4550 -161.9790  145.8880 O.3   191  TYR191     -0.2866
     55  N       -356.7170 -158.1820  140.5950 N.3   204  VAL204     -0.1245
     56  CA      -357.4050 -158.3800  141.8700 C.3   204  VAL204      0.1561
     57  C       -358.7970 -158.9650  141.6440 C.2   204  VAL204      0.2260
     58  O       -359.2370 -159.8630  142.3730 O.2   204  VAL204     -0.2867
     59  CB      -357.4670 -157.0520  142.6500 C.3   204  VAL204      0.0252
     60  CG1     -358.3020 -157.2120  143.9060 C.3   204  VAL204      0.0019
     61  CG2     -356.0610 -156.5710  142.9930 C.3   204  VAL204      0.0019
     62  N       -358.3230 -162.5150  140.5730 N.3   207  MET207     -0.1230
     63  CA      -357.9990 -163.2930  141.7660 C.3   207  MET207      0.1702
     64  C       -359.2370 -163.5290  142.6130 C.2   207  MET207      0.2592
     65  O       -359.4520 -164.6300  143.1350 O.2   207  MET207     -0.2718
     66  CB      -356.9300 -162.5800  142.5930 C.3   207  MET207      0.0401
     67  CG      -355.5240 -162.8030  142.0990 C.3   207  MET207      0.0596
     68  SD      -355.0480 -164.5390  142.1420 S.3   207  MET207     -0.1393
     69  CE      -355.2090 -164.9100  143.8950 C.3   207  MET207      0.0692
     70  N       -360.0530 -162.4930  142.7800 N.am  208  PHE208     -0.1976
     71  CA      -361.1960 -162.6090  143.6710 C.3   208  PHE208      0.1639
     72  C       -362.2180 -163.5870  143.1150 C.2   208  PHE208      0.2290
     73  O       -362.8210 -164.3620  143.8650 O.2   208  PHE208     -0.2864
     74  CB      -361.8170 -161.2380  143.8880 C.3   208  PHE208      0.0560
     75  CG      -362.9870 -161.2490  144.8150 C.ar  208  PHE208     -0.0200
     76  CD1     -362.8000 -161.2800  146.1880 C.ar  208  PHE208     -0.0042
     77  CD2     -364.2730 -161.2160  144.3160 C.ar  208  PHE208     -0.0042
     78  CE1     -363.8810 -161.2830  147.0450 C.ar  208  PHE208     -0.0003
     79  CE2     -365.3570 -161.2180  145.1660 C.ar  208  PHE208     -0.0003
     80  CZ      -365.1620 -161.2530  146.5320 C.ar  208  PHE208     -0.0000
     81  N       -359.8560 -167.4100  141.8440 N.3   211  HIS211     -0.1226
     82  CA      -359.0810 -168.0790  142.8800 C.3   211  HIS211      0.1752
     83  C       -359.6360 -167.8360  144.2790 C.2   211  HIS211      0.2596
     84  O       -358.9540 -168.1180  145.2700 O.2   211  HIS211     -0.2718
     85  CB      -357.6140 -167.6400  142.8110 C.3   211  HIS211      0.0759
     86  CG      -356.9570 -167.9400  141.5000 C.ar  211  HIS211      0.0818
     87  ND1     -356.1990 -169.0690  141.2870 N.ar  211  HIS211     -0.2268
     88  CD2     -356.9510 -167.2580  140.3290 C.ar  211  HIS211      0.1154
     89  CE1     -355.7500 -169.0700  140.0440 C.ar  211  HIS211      0.1986
     90  NE2     -356.1950 -167.9840  139.4400 N.ar  211  HIS211     -0.2212
     91  N       -360.8560 -167.3320  144.3920 N.am  212  PHE212     -0.1976
     92  CA      -361.3910 -167.0920  145.7250 C.3   212  PHE212      0.1639
     93  C       -362.8750 -167.4380  145.7960 C.2   212  PHE212      0.2290
     94  O       -363.2860 -168.1960  146.6800 O.2   212  PHE212     -0.2864
     95  CB      -361.1290 -165.6440  146.1490 C.3   212  PHE212      0.0560
     96  CG      -361.4890 -165.3560  147.5770 C.ar  212  PHE212     -0.0200
     97  CD1     -360.7210 -165.8590  148.6100 C.ar  212  PHE212     -0.0042
     98  CD2     -362.6000 -164.5850  147.8870 C.ar  212  PHE212     -0.0042
     99  CE1     -361.0520 -165.6030  149.9310 C.ar  212  PHE212     -0.0003
    100  CE2     -362.9390 -164.3220  149.2040 C.ar  212  PHE212     -0.0003
    101  CZ      -362.1600 -164.8350  150.2290 C.ar  212  PHE212     -0.0000
    102  N       -363.3080 -171.4170  144.1460 N.3   215  PRO215     -0.2116
    103  CA      -362.9490 -172.5270  145.0440 C.3   215  PRO215      0.1372
    104  C       -363.9750 -172.7630  146.1370 C.2   215  PRO215      0.2244
    105  O       -364.2480 -173.9180  146.4830 O.2   215  PRO215     -0.2868
    106  CB      -361.5920 -172.0920  145.6110 C.3   215  PRO215      0.0268
    107  CG      -361.0300 -171.2030  144.5680 C.3   215  PRO215      0.0207
    108  CD      -362.2100 -170.4380  144.0450 C.3   215  PRO215      0.0892
    109  N       -361.8330 -174.7040  155.9430 N.3   261  PHE261     -0.1241
    110  CA      -361.6670 -173.8700  154.7600 C.3   261  PHE261      0.1605
    111  C       -362.2260 -172.4750  155.0080 C.2   261  PHE261      0.2264
    112  O       -361.6310 -171.4740  154.5950 O.2   261  PHE261     -0.2867
    113  CB      -362.3360 -174.5280  153.5580 C.3   261  PHE261      0.0534
    114  CG      -362.1840 -173.7620  152.2790 C.ar  261  PHE261     -0.0203
    115  CD1     -361.0630 -173.9310  151.4810 C.ar  261  PHE261     -0.0042
    116  CD2     -363.1720 -172.8850  151.8610 C.ar  261  PHE261     -0.0042
    117  CE1     -360.9220 -173.2240  150.2930 C.ar  261  PHE261     -0.0003
    118  CE2     -363.0370 -172.1780  150.6760 C.ar  261  PHE261     -0.0003
    119  CZ      -361.9100 -172.3510  149.8920 C.ar  261  PHE261     -0.0000
    120  N       -359.9790 -170.0860  156.9530 N.3   264  CYS264     -0.1221
    121  CA      -358.9860 -169.4440  156.1130 C.3   264  CYS264      0.1808
    122  C       -359.6000 -168.4970  155.0820 C.2   264  CYS264      0.2601
    123  O       -358.9240 -167.5680  154.6310 O.2   264  CYS264     -0.2717
    124  CB      -358.1620 -170.5230  155.4160 C.3   264  CYS264      0.0970
    125  SG      -356.8440 -169.8910  154.4330 S.3   264  CYS264     -0.0800
    126  N       -360.8680 -168.6910  154.7210 N.am  265  TRP265     -0.1976
    127  CA      -361.4850 -167.9490  153.6290 C.3   265  TRP265      0.1640
    128  C       -362.1830 -166.6810  154.1130 C.2   265  TRP265      0.2290
    129  O       -362.0370 -165.6200  153.4970 O.2   265  TRP265     -0.2864
    130  CB      -362.4780 -168.8590  152.8980 C.3   265  TRP265      0.0576
    131  CG      -363.0880 -168.3040  151.6390 C.ar  265  TRP265      0.0006
    132  CD1     -362.6300 -168.4770  150.3620 C.ar  265  TRP265      0.0946
    133  CD2     -364.2970 -167.5310  151.5280 C.ar  265  TRP265      0.0152
    134  NE1     -363.4650 -167.8450  149.4660 N.ar  265  TRP265     -0.2442
    135  CE2     -364.4960 -167.2600  150.1550 C.ar  265  TRP265      0.0810
    136  CE3     -365.2220 -167.0350  152.4530 C.ar  265  TRP265      0.0012
    137  CZ2     -365.5810 -166.5130  149.6880 C.ar  265  TRP265      0.0191
    138  CZ3     -366.3060 -166.2920  151.9820 C.ar  265  TRP265      0.0001
    139  CH2     -366.4730 -166.0400  150.6140 C.ar  265  TRP265      0.0015
    140  N       -360.2440 -163.1310  154.6740 N.3   268  TYR268     -0.1241
    141  CA      -360.0980 -162.4070  153.4160 C.3   268  TYR268      0.1605
    142  C       -361.4210 -161.7670  152.9900 C.2   268  TYR268      0.2264
    143  O       -361.4430 -160.6230  152.5120 O.2   268  TYR268     -0.2867
    144  CB      -359.5800 -163.3390  152.3260 C.3   268  TYR268      0.0534
    145  CG      -358.0930 -163.6730  152.3760 C.ar  268  TYR268     -0.0201
    146  CD1     -357.6470 -164.9370  152.7650 C.ar  268  TYR268     -0.0009
    147  CD2     -357.1400 -162.7380  151.9890 C.ar  268  TYR268     -0.0009
    148  CE1     -356.2780 -165.2450  152.7820 C.ar  268  TYR268      0.0417
    149  CE2     -355.7900 -163.0360  152.0000 C.ar  268  TYR268      0.0417
    150  CZ      -355.3510 -164.2920  152.3950 C.ar  268  TYR268      0.1957
    151  OH      -353.9880 -164.5710  152.3880 O.3   268  TYR268     -0.2866
    152  N       -362.2300 -157.7950  152.5150 N.3   272  ALA272     -0.1245
    153  CA      -362.8530 -157.2820  151.2980 C.3   272  ALA272      0.1562
    154  C       -364.0520 -156.4020  151.6250 C.2   272  ALA272      0.2260
    155  O       -364.1680 -155.2770  151.1230 O.2   272  ALA272     -0.2867
    156  CB      -363.2800 -158.4370  150.3950 C.3   272  ALA272      0.0290
    157  N       -363.0390 -153.2130  152.5920 N.3   275  ILE275     -0.1245
    158  CA      -362.4810 -152.3810  151.5290 C.3   275  ILE275      0.1561
    159  C       -363.5830 -151.8130  150.6450 C.2   275  ILE275      0.2260
    160  O       -363.5540 -150.6300  150.2950 O.2   275  ILE275     -0.2867
    161  CB      -361.4460 -153.1710  150.7040 C.3   275  ILE275      0.0252
    162  CG1     -360.1800 -153.4250  151.5260 C.3   275  ILE275      0.0019
    163  CG2     -361.0950 -152.4250  149.4180 C.3   275  ILE275      0.0019
    164  CD1     -359.1220 -154.2200  150.7850 C.3   275  ILE275      0.0001
    165  N       -356.0300 -155.5970  156.0790 N.3   288  MET288     -0.1245
    166  CA      -355.4220 -156.8210  155.5360 C.3   288  MET288      0.1570
    167  C       -354.0890 -157.2330  156.1450 C.2   288  MET288      0.2261
    168  O       -353.7880 -156.8820  157.2900 O.2   288  MET288     -0.2867
    169  CB      -355.2770 -156.7060  154.0140 C.3   288  MET288      0.0387
    170  CG      -355.8020 -157.9030  153.2530 C.3   288  MET288      0.0595
    171  SD      -355.8810 -157.7020  151.4710 S.3   288  MET288     -0.1393
    172  CE      -356.6810 -159.2330  150.9970 C.3   288  MET288      0.0692
    173  N       -353.7110 -167.2440  157.4460 N.3   295  ALA295     -0.1245
    174  CA      -353.7130 -168.2930  156.4260 C.3   295  ALA295      0.1562
    175  C       -352.4140 -169.0910  156.3930 C.2   295  ALA295      0.2260
    176  O       -352.4060 -170.2070  155.8570 O.2   295  ALA295     -0.2867
    177  CB      -353.9560 -167.7000  155.0400 C.3   295  ALA295      0.0290
@<TRIPOS>BOND
     1    29    30    1
     2    90    89   ar
     3    90    88   ar
     4    30    31    1
     5    30    33    1
     6    31    32    2
     7    89    87   ar
     8    88    86   ar
     9    62    63    1
    10    55    56    1
    11    33    34    1
    12    87    86   ar
    13    86    85    1
    14    57    56    1
    15    57    58    2
    16    63    66    1
    17    63    64    1
    18    81    82    1
    19    56    59    1
    20    67    68    1
    21    67    66    1
    22    68    69    1
    23    64    70   am
    24    64    65    2
    25    59    61    1
    26    59    60    1
    27    70    71    1
    28    20    18   ar
    29    85    82    1
    30    82    83    1
    31    42    40    1
    32    72    71    1
    33    72    73    2
    34    41    39    1
    35    71    74    1
    36    18    17    1
    37    18    19   ar
    38    74    75    1
    39   108   102    1
    40   108   107    1
    41    17    16    1
    42    16    13    1
    43   102   103    1
    44    83    91   am
    45    83    84    2
    46    77    75   ar
    47    77    79   ar
    48    40    39    1
    49    91    92    1
    50   107   106    1
    51     7     5    1
    52    39    36    1
    53    75    76   ar
    54    15    14    2
    55   103   106    1
    56   103   104    1
    57    36    37    1
    58    36    35    1
    59    14    13    1
    60    79    80   ar
    61     5     6    1
    62     5     2    1
    63    13    12    1
    64    52    50   ar
    65    52    53   ar
    66     3     4    2
    67     3     2    1
    68    37    38    2
    69    92    93    1
    70    92    95    1
    71    50    48   ar
    72    93    94    2
    73    54    53    1
    74    28    26    1
    75   104   105    2
    76    95    96    1
    77    76    78   ar
    78    43    44    1
    79    53    51   ar
    80     2     1    1
    81    44    45    1
    82    44    47    1
    83    12    10   am
    84    80    78   ar
    85    23    24    2
    86    23    22    1
    87    26    25    1
    88    26    27    1
    89    48    47    1
    90    48    49   ar
    91    45    46    2
    92    25    22    1
    93    51    49   ar
    94    96    98   ar
    95    96    97   ar
    96    22    21    1
    97    10    11    2
    98    10     9    1
    99    98   100   ar
   100     8     9    1
   101    97    99   ar
   102   100   101   ar
   103   163   161    1
   104   134   135   ar
   105   134   132   ar
   106   137   135   ar
   107   137   139   ar
   108   119   117   ar
   109   119   118   ar
   110    99   101   ar
   111   135   133   ar
   112   117   115   ar
   113   160   159    2
   114   132   131   ar
   115   156   153    1
   116   139   138   ar
   117   159   158    1
   118   118   116   ar
   119   161   162    1
   120   161   158    1
   121   164   162    1
   122   172   171    1
   123   155   154    2
   124   153   154    1
   125   153   152    1
   126   171   170    1
   127   115   114   ar
   128   133   131   ar
   129   133   136   ar
   130   158   157    1
   131   131   130    1
   132   116   114   ar
   133   138   136   ar
   134   147   149   ar
   135   147   145   ar
   136   149   150   ar
   137   114   113    1
   138   144   145    1
   139   144   141    1
   140   145   146   ar
   141   151   150    1
   142   150   148   ar
   143   143   142    2
   144   146   148   ar
   145   130   127    1
   146   142   141    1
   147   170   169    1
   148   141   140    1
   149   129   128    2
   150   113   110    1
   151   127   128    1
   152   127   126    1
   153   169   166    1
   154   125   124    1
   155   112   111    2
   156   123   122    2
   157   126   122   am
   158   110   111    1
   159   110   109    1
   160   177   174    1
   161   122   121    1
   162   124   121    1
   163   166   165    1
   164   166   167    1
   165   176   175    2
   166   121   120    1
   167   167   168    2
   168   175   174    1
   169   174   173    1
