@<TRIPOS>MOLECULE
tmp/6fkdA06.pdb
 152 147 0 0 0
SMALL
GASTEIGER

@<TRIPOS>ATOM
      1  N       -229.6940   39.1790   34.6960 N.3   122  GLU122     -0.1245
      2  CA      -230.6650   39.0030   33.6310 C.3   122  GLU122      0.1567
      3  C       -230.8090   37.5340   33.2170 C.2   122  GLU122      0.2260
      4  O       -231.9160   37.1100   32.8620 O.2   122  GLU122     -0.2867
      5  CB      -230.2750   39.8880   32.4460 C.3   122  GLU122      0.0388
      6  CG      -231.4530   40.4210   31.6350 C.3   122  GLU122      0.1160
      7  CD      -232.2830   41.4520   32.3800 C.2   122  GLU122      0.3649
      8  OE1     -231.9050   41.8560   33.4950 O.co2 122  GLU122     -0.2457
      9  OE2     -233.3240   41.8650   31.8410 O.co2 122  GLU122     -0.2457
     10  N       -232.9400   36.0410   36.0480 N.3   125  LEU125     -0.1245
     11  CA      -234.3340   36.4320   35.8640 C.3   125  LEU125      0.1561
     12  C       -235.0300   35.5530   34.8330 C.2   125  LEU125      0.2260
     13  O       -236.1050   35.0040   35.0950 O.2   125  LEU125     -0.2867
     14  CB      -234.4150   37.9040   35.4490 C.3   125  LEU125      0.0270
     15  CG      -235.7910   38.3800   34.9660 C.3   125  LEU125      0.0019
     16  CD1     -236.8490   38.1810   36.0460 C.3   125  LEU125      0.0001
     17  CD2     -235.7350   39.8400   34.5210 C.3   125  LEU125      0.0001
     18  N       -230.5390   54.5230   34.4510 N.3   191  TYR191     -0.1241
     19  CA      -231.9170   54.9410   34.6710 C.3   191  TYR191      0.1605
     20  C       -232.0100   56.3220   35.2990 C.2   191  TYR191      0.2264
     21  O       -233.1130   56.7790   35.5920 O.2   191  TYR191     -0.2867
     22  CB      -232.6460   53.9380   35.5670 C.3   191  TYR191      0.0534
     23  CG      -232.4670   52.5080   35.1520 C.ar  191  TYR191     -0.0201
     24  CD1     -231.6260   51.6630   35.8590 C.ar  191  TYR191     -0.0009
     25  CD2     -233.1390   52.0010   34.0480 C.ar  191  TYR191     -0.0009
     26  CE1     -231.4590   50.3430   35.4760 C.ar  191  TYR191      0.0417
     27  CE2     -232.9830   50.6860   33.6580 C.ar  191  TYR191      0.0417
     28  CZ      -232.1430   49.8600   34.3730 C.ar  191  TYR191      0.1957
     29  OH      -231.9880   48.5540   33.9740 O.3   191  TYR191     -0.2866
     30  N       -235.4070   52.5500   28.8560 N.3   204  VAL204     -0.1245
     31  CA      -236.0960   52.3500   30.1310 C.3   204  VAL204      0.1561
     32  C       -237.4880   51.7700   29.9000 C.2   204  VAL204      0.2260
     33  O       -237.9320   50.8660   30.6200 O.2   204  VAL204     -0.2867
     34  CB      -236.1560   53.6760   30.9120 C.3   204  VAL204      0.0252
     35  CG1     -237.1290   53.5710   32.0750 C.3   204  VAL204      0.0019
     36  CG2     -234.7700   54.0500   31.4090 C.3   204  VAL204      0.0019
     37  N       -237.0350   48.2300   28.8830 N.3   207  MET207     -0.1230
     38  CA      -236.7490   47.4120   30.0590 C.3   207  MET207      0.1702
     39  C       -237.9980   47.1810   30.8900 C.2   207  MET207      0.2592
     40  O       -238.2210   46.0740   31.3920 O.2   207  MET207     -0.2718
     41  CB      -235.6780   48.0740   30.9170 C.3   207  MET207      0.0401
     42  CG      -234.2920   47.9050   30.3760 C.3   207  MET207      0.0596
     43  SD      -233.7790   46.1890   30.4420 S.3   207  MET207     -0.1393
     44  CE      -233.7010   45.9190   32.2160 C.3   207  MET207      0.0692
     45  N       -238.8110   48.2240   31.0620 N.am  208  PHE208     -0.1976
     46  CA      -240.0040   48.1060   31.8870 C.3   208  PHE208      0.1639
     47  C       -240.9660   47.0760   31.3180 C.2   208  PHE208      0.2290
     48  O       -241.5410   46.2750   32.0640 O.2   208  PHE208     -0.2864
     49  CB      -240.6930   49.4610   32.0040 C.3   208  PHE208      0.0560
     50  CG      -241.8370   49.4700   32.9670 C.ar  208  PHE208     -0.0200
     51  CD1     -241.6020   49.5120   34.3310 C.ar  208  PHE208     -0.0042
     52  CD2     -243.1430   49.4340   32.5140 C.ar  208  PHE208     -0.0042
     53  CE1     -242.6510   49.5190   35.2300 C.ar  208  PHE208     -0.0003
     54  CE2     -244.1990   49.4440   33.4100 C.ar  208  PHE208     -0.0003
     55  CZ      -243.9510   49.4840   34.7700 C.ar  208  PHE208     -0.0000
     56  N       -238.4810   43.3370   30.1570 N.3   211  HIS211     -0.1226
     57  CA      -237.6670   42.7120   31.1910 C.3   211  HIS211      0.1752
     58  C       -238.2170   42.9460   32.5870 C.2   211  HIS211      0.2596
     59  O       -237.4880   42.7670   33.5710 O.2   211  HIS211     -0.2718
     60  CB      -236.2230   43.2170   31.1080 C.3   211  HIS211      0.0759
     61  CG      -235.5520   42.9140   29.8040 C.ar  211  HIS211      0.0818
     62  ND1     -234.7580   41.8040   29.6150 N.ar  211  HIS211     -0.2268
     63  CD2     -235.5690   43.5710   28.6190 C.ar  211  HIS211      0.1154
     64  CE1     -234.3070   41.7940   28.3730 C.ar  211  HIS211      0.1986
     65  NE2     -234.7880   42.8520   27.7460 N.ar  211  HIS211     -0.2212
     66  N       -239.4780   43.3430   32.7000 N.am  212  PHE212     -0.1976
     67  CA      -240.0740   43.5610   34.0090 C.3   212  PHE212      0.1639
     68  C       -241.5430   43.1440   33.9920 C.2   212  PHE212      0.2290
     69  O       -241.9510   42.3050   34.8010 O.2   212  PHE212     -0.2864
     70  CB      -239.8930   45.0210   34.4270 C.3   212  PHE212      0.0560
     71  CG      -240.3280   45.3180   35.8360 C.ar  212  PHE212     -0.0200
     72  CD1     -239.6460   44.7810   36.9120 C.ar  212  PHE212     -0.0042
     73  CD2     -241.4050   46.1650   36.0830 C.ar  212  PHE212     -0.0042
     74  CE1     -240.0360   45.0640   38.2100 C.ar  212  PHE212     -0.0003
     75  CE2     -241.8000   46.4500   37.3760 C.ar  212  PHE212     -0.0003
     76  CZ      -241.1150   45.9000   38.4410 C.ar  212  PHE212     -0.0000
     77  N       -241.8750   39.2360   32.3450 N.3   215  PRO215     -0.2116
     78  CA      -241.5250   38.1580   33.2850 C.3   215  PRO215      0.1372
     79  C       -242.5870   37.9160   34.3420 C.2   215  PRO215      0.2244
     80  O       -242.8570   36.7580   34.6890 O.2   215  PRO215     -0.2868
     81  CB      -240.2080   38.6490   33.9030 C.3   215  PRO215      0.0268
     82  CG      -239.6210   39.5210   32.8660 C.3   215  PRO215      0.0207
     83  CD      -240.7910   40.2340   32.2510 C.3   215  PRO215      0.0892
     84  N       -240.5250   36.0310   44.2200 N.3   261  PHE261     -0.1241
     85  CA      -240.3220   36.8390   43.0250 C.3   261  PHE261      0.1605
     86  C       -240.8930   38.2390   43.2090 C.2   261  PHE261      0.2264
     87  O       -240.3540   39.2070   42.6630 O.2   261  PHE261     -0.2867
     88  CB      -240.9480   36.1570   41.8120 C.3   261  PHE261      0.0534
     89  CG      -240.7660   36.9110   40.5310 C.ar  261  PHE261     -0.0203
     90  CD1     -239.6350   36.7140   39.7560 C.ar  261  PHE261     -0.0042
     91  CD2     -241.7270   37.8170   40.0950 C.ar  261  PHE261     -0.0042
     92  CE1     -239.4580   37.4090   38.5680 C.ar  261  PHE261     -0.0003
     93  CE2     -241.5580   38.5150   38.9110 C.ar  261  PHE261     -0.0003
     94  CZ      -240.4200   38.3100   38.1450 C.ar  261  PHE261     -0.0000
     95  N       -238.5760   40.6610   45.0710 N.3   264  CYS264     -0.1221
     96  CA      -237.5890   41.2940   44.2110 C.3   264  CYS264      0.1808
     97  C       -238.2190   42.2270   43.1860 C.2   264  CYS264      0.2601
     98  O       -237.5750   43.1890   42.7470 O.2   264  CYS264     -0.2717
     99  CB      -236.7720   40.2180   43.4980 C.3   264  CYS264      0.0970
    100  SG      -235.4490   40.8440   42.4740 S.3   264  CYS264     -0.0800
    101  N       -239.4670   41.9740   42.8020 N.am  265  TRP265     -0.1976
    102  CA      -240.1170   42.7200   41.7360 C.3   265  TRP265      0.1640
    103  C       -240.7950   43.9960   42.2210 C.2   265  TRP265      0.2290
    104  O       -240.6880   45.0340   41.5610 O.2   265  TRP265     -0.2864
    105  CB      -241.1270   41.8090   41.0350 C.3   265  TRP265      0.0576
    106  CG      -241.7340   42.3330   39.7700 C.ar  265  TRP265      0.0006
    107  CD1     -241.2920   42.1140   38.4960 C.ar  265  TRP265      0.0946
    108  CD2     -242.9290   43.1210   39.6510 C.ar  265  TRP265      0.0152
    109  NE1     -242.1270   42.7320   37.5920 N.ar  265  TRP265     -0.2442
    110  CE2     -243.1390   43.3540   38.2750 C.ar  265  TRP265      0.0810
    111  CE3     -243.8330   43.6610   40.5740 C.ar  265  TRP265      0.0012
    112  CZ2     -244.2100   44.1080   37.8010 C.ar  265  TRP265      0.0191
    113  CZ3     -244.9060   44.4070   40.0980 C.ar  265  TRP265      0.0001
    114  CH2     -245.0830   44.6230   38.7250 C.ar  265  TRP265      0.0015
    115  N       -238.9720   47.6370   42.5640 N.3   268  TYR268     -0.1241
    116  CA      -238.8360   48.4040   41.3300 C.3   268  TYR268      0.1605
    117  C       -240.1450   49.1000   40.9750 C.2   268  TYR268      0.2264
    118  O       -240.1490   50.2690   40.5710 O.2   268  TYR268     -0.2867
    119  CB      -238.3850   47.4990   40.1890 C.3   268  TYR268      0.0534
    120  CG      -236.9670   47.0050   40.3210 C.ar  268  TYR268     -0.0201
    121  CD1     -236.6950   45.7720   40.9000 C.ar  268  TYR268     -0.0009
    122  CD2     -235.8970   47.7650   39.8550 C.ar  268  TYR268     -0.0009
    123  CE1     -235.3970   45.3080   41.0170 C.ar  268  TYR268      0.0417
    124  CE2     -234.6020   47.3100   39.9630 C.ar  268  TYR268      0.0417
    125  CZ      -234.3540   46.0770   40.5460 C.ar  268  TYR268      0.1957
    126  OH      -233.0620   45.6070   40.6650 O.3   268  TYR268     -0.2866
    127  N       -240.7480   52.8970   40.7200 N.3   272  ALA272     -0.1245
    128  CA      -241.3730   53.3400   39.4750 C.3   272  ALA272      0.1562
    129  C       -242.5600   54.2530   39.7500 C.2   272  ALA272      0.2260
    130  O       -242.6640   55.3470   39.1830 O.2   272  ALA272     -0.2867
    131  CB      -241.8250   52.1340   38.6510 C.3   272  ALA272      0.0290
    132  N       -241.7250   57.6780   40.4610 N.3   275  ILE275     -0.1245
    133  CA      -241.2910   58.5210   39.3600 C.3   275  ILE275      0.1561
    134  C       -242.4440   58.8700   38.4190 C.2   275  ILE275      0.2260
    135  O       -242.4200   59.9410   37.8000 O.2   275  ILE275     -0.2867
    136  CB      -240.1200   57.8680   38.5870 C.3   275  ILE275      0.0252
    137  CG1     -238.9580   57.5750   39.5380 C.3   275  ILE275      0.0019
    138  CG2     -239.6050   58.7750   37.4710 C.3   275  ILE275      0.0019
    139  CD1     -237.7620   56.9190   38.8610 C.3   275  ILE275      0.0001
    140  N       -233.4700   55.0360   43.5420 N.3   288  MET288     -0.1245
    141  CA      -233.6760   53.9490   42.5870 C.3   288  MET288      0.1570
    142  C       -232.7170   52.7860   42.8180 C.2   288  MET288      0.2261
    143  O       -232.9090   51.7080   42.2460 O.2   288  MET288     -0.2867
    144  CB      -233.5370   54.4790   41.1520 C.3   288  MET288      0.0387
    145  CG      -233.6840   53.4510   40.0170 C.3   288  MET288      0.0595
    146  SD      -235.2970   52.6360   39.8870 S.3   288  MET288     -0.1393
    147  CE      -235.1330   51.8000   38.3130 C.3   288  MET288      0.0692
    148  N       -232.2660   43.4170   45.5120 N.3   295  ALA295     -0.1245
    149  CA      -232.2990   42.3590   44.5000 C.3   295  ALA295      0.1562
    150  C       -231.0180   41.5320   44.4470 C.2   295  ALA295      0.2260
    151  O       -231.0530   40.3990   43.9540 O.2   295  ALA295     -0.2867
    152  CB      -232.5480   42.9490   43.1090 C.3   295  ALA295      0.0290
@<TRIPOS>BOND
     1    65    64   ar
     2    65    63   ar
     3    64    62   ar
     4    63    61   ar
     5    30    31    1
     6    37    38    1
     7    62    61   ar
     8    61    60    1
     9    32    31    1
    10    32    33    2
    11    38    39    1
    12    38    41    1
    13    31    34    1
    14    56    57    1
    15    42    43    1
    16    42    41    1
    17    43    44    1
    18    39    45   am
    19    39    40    2
    20    34    36    1
    21    34    35    1
    22    45    46    1
    23    60    57    1
    24    57    58    1
    25    47    46    1
    26    47    48    2
    27     6     7    1
    28     6     5    1
    29     9     7   ar
    30    46    49    1
    31    49    50    1
    32    83    77    1
    33    83    82    1
    34    77    78    1
    35     7     8   ar
    36     5     2    1
    37    52    50   ar
    38    52    54   ar
    39    58    66   am
    40    58    59    2
    41    66    67    1
    42     4     3    2
    43    82    81    1
    44    50    51   ar
    45     3     2    1
    46    78    81    1
    47    78    79    1
    48    54    55   ar
    49     2     1    1
    50    27    25   ar
    51    27    28   ar
    52    29    28    1
    53    68    67    1
    54    68    69    2
    55    67    70    1
    56    25    23   ar
    57    51    53   ar
    58    79    80    2
    59    28    26   ar
    60    70    71    1
    61    18    19    1
    62    17    15    1
    63    19    20    1
    64    19    22    1
    65    55    53   ar
    66    12    13    2
    67    12    11    1
    68    15    14    1
    69    15    16    1
    70    23    22    1
    71    23    24   ar
    72    20    21    2
    73    14    11    1
    74    26    24   ar
    75    71    73   ar
    76    71    72   ar
    77    11    10    1
    78    73    75   ar
    79    72    74   ar
    80    75    76   ar
    81   138   136    1
    82   109   110   ar
    83   109   107   ar
    84   135   134    2
    85   112   110   ar
    86   112   114   ar
    87    94    92   ar
    88    94    93   ar
    89    74    76   ar
    90   110   108   ar
    91   147   146    1
    92   134   133    1
    93   107   106   ar
    94    92    90   ar
    95   136   133    1
    96   136   137    1
    97   131   128    1
    98   114   113   ar
    99   139   137    1
   100    93    91   ar
   101   130   129    2
   102   133   132    1
   103   128   129    1
   104   128   127    1
   105   108   106   ar
   106   108   111   ar
   107    90    89   ar
   108   106   105    1
   109   122   124   ar
   110   122   120   ar
   111   146   145    1
   112   124   125   ar
   113   145   144    1
   114    91    89   ar
   115   113   111   ar
   116   119   120    1
   117   119   116    1
   118   120   121   ar
   119    89    88    1
   120   125   126    1
   121   125   123   ar
   122   118   117    2
   123   121   123   ar
   124   117   116    1
   125   105   102    1
   126   144   141    1
   127   116   115    1
   128   104   103    2
   129   102   103    1
   130   102   101    1
   131    88    85    1
   132   143   142    2
   133   100    99    1
   134   141   142    1
   135   141   140    1
   136    87    86    2
   137    98    97    2
   138   101    97   am
   139    85    86    1
   140    85    84    1
   141   152   149    1
   142    97    96    1
   143    99    96    1
   144   151   150    2
   145    96    95    1
   146   150   149    1
   147   149   148    1
