@<TRIPOS>MOLECULE
tmp/6fkhF00.pdb
 163 157 0 0 0
SMALL
GASTEIGER

@<TRIPOS>ATOM
      1  N        172.5590  221.9200  221.9240 N.3   149  LEU149     -0.1245
      2  CA       173.1060  220.7710  221.2340 C.3   149  LEU149      0.1561
      3  C        171.9810  220.2560  220.3670 C.2   149  LEU149      0.2260
      4  O        170.9310  219.8640  220.8760 O.2   149  LEU149     -0.2867
      5  CB       173.6070  219.7310  222.2230 C.3   149  LEU149      0.0270
      6  CG       174.7880  220.2330  223.0410 C.3   149  LEU149      0.0019
      7  CD1      175.1790  219.2760  224.0980 C.3   149  LEU149      0.0001
      8  CD2      175.9170  220.3900  222.1140 C.3   149  LEU149      0.0001
      9  N        185.1170  207.6140  230.8400 N.3   170  ARG170     -0.1231
     10  CA       185.9540  208.7330  231.2210 C.3   170  ARG170      0.1694
     11  C        186.4250  209.4210  229.9630 C.2   170  ARG170      0.2592
     12  O        186.7770  208.7710  228.9860 O.2   170  ARG170     -0.2718
     13  CB       187.1380  208.2770  232.0360 C.3   170  ARG170      0.0321
     14  CG       187.8990  207.1570  231.3870 C.3   170  ARG170      0.0489
     15  CD       189.2500  206.9440  232.0120 C.3   170  ARG170      0.2205
     16  NE       190.1370  206.3230  231.0420 N.pl3 170  ARG170     -0.0865
     17  CZ       190.7960  206.9970  230.1020 C.cat 170  ARG170      0.5346
     18  NH1      190.6690  208.3110  230.0170 N.pl3 170  ARG170      0.1354
     19  NH2      191.5790  206.3590  229.2480 N.pl3 170  ARG170      0.1354
     20  N        186.4430  210.7490  230.0050 N.am  171  GLN171     -0.1966
     21  CA       186.8470  211.6110  228.8910 C.3   171  GLN171      0.1733
     22  C        186.0430  211.3670  227.6330 C.2   171  GLN171      0.2617
     23  O        186.5740  211.3320  226.5450 O.2   171  GLN171     -0.2715
     24  CB       188.3450  211.5430  228.6260 C.3   171  GLN171      0.0408
     25  CG       189.1780  212.0460  229.7790 C.3   171  GLN171      0.0908
     26  CD       189.5950  213.4790  229.6050 C.2   171  GLN171      0.2608
     27  OE1      189.7820  213.9490  228.4900 O.2   171  GLN171     -0.2717
     28  NE2      189.7590  214.1810  230.7140 N.am  171  GLN171     -0.0878
     29  N        184.7530  211.2140  227.7770 N.am  172  THR172     -0.1937
     30  CA       183.9360  210.9910  226.6190 C.3   172  THR172      0.2028
     31  C        183.2030  212.2570  226.2250 C.2   172  THR172      0.2643
     32  O        182.6030  212.3100  225.1690 O.2   172  THR172     -0.2714
     33  CB       182.9590  209.8580  226.9120 C.3   172  THR172      0.1808
     34  OG1      182.2910  209.4890  225.7170 O.3   172  THR172     -0.2208
     35  CG2      181.9900  210.2430  227.9590 C.3   172  THR172      0.0379
     36  N        183.3460  213.3080  227.0160 N.am  173  GLY173     -0.1939
     37  CA       182.6420  214.5400  226.7730 C.3   173  GLY173      0.2014
     38  C        181.4350  214.8320  227.6320 C.2   173  GLY173      0.2639
     39  O        180.7050  215.7330  227.3240 O.2   173  GLY173     -0.2714
     40  N        181.2150  214.0830  228.7020 N.am  174  LYS174     -0.1963
     41  CA       180.0700  214.2900  229.5770 C.3   174  LYS174      0.1728
     42  C        180.0190  215.6310  230.2550 C.2   174  LYS174      0.2617
     43  O        179.0000  216.2590  230.2420 O.2   174  LYS174     -0.2715
     44  CB       180.0920  213.2900  230.7290 C.3   174  LYS174      0.0311
     45  CG       180.0740  211.8170  230.4310 C.3   174  LYS174      0.0038
     46  CD       180.4260  211.0820  231.7100 C.3   174  LYS174      0.0206
     47  CE       181.9020  210.7600  231.7440 C.3   174  LYS174      0.1093
     48  NZ       182.4910  210.7700  233.0970 N.3   174  LYS174     -0.1314
     49  N        181.1080  216.0970  230.8410 N.am  175  THR175     -0.1937
     50  CA       181.0920  217.3930  231.5230 C.3   175  THR175      0.2028
     51  C        180.8530  218.5300  230.5850 C.2   175  THR175      0.2642
     52  O        180.2440  219.5050  230.9360 O.2   175  THR175     -0.2714
     53  CB       182.4000  217.7680  232.2030 C.3   175  THR175      0.1808
     54  OG1      182.8370  216.7300  233.0860 O.3   175  THR175     -0.2208
     55  CG2      182.1900  219.0210  232.9690 C.3   175  THR175      0.0379
     56  N        181.4230  218.4320  229.3990 N.am  176  ALA176     -0.1963
     57  CA       181.2960  219.4510  228.3950 C.3   176  ALA176      0.1728
     58  C        179.8590  219.6340  227.9820 C.2   176  ALA176      0.2616
     59  O        179.4490  220.7450  227.7200 O.2   176  ALA176     -0.2715
     60  CB       182.1500  219.0880  227.2040 C.3   176  ALA176      0.0334
     61  N        179.1110  218.5460  227.8480 N.am  177  VAL177     -0.1977
     62  CA       177.6990  218.6220  227.5170 C.3   177  VAL177      0.1596
     63  C        176.9130  219.3130  228.6130 C.2   177  VAL177      0.2287
     64  O        176.0630  220.1290  228.3410 O.2   177  VAL177     -0.2864
     65  CB       177.0750  217.2250  227.4060 C.3   177  VAL177      0.0276
     66  CG1      175.5760  217.3120  227.5280 C.3   177  VAL177      0.0022
     67  CG2      177.4560  216.5330  226.1190 C.3   177  VAL177      0.0022
     68  N        177.8940  222.9340  228.9290 N.3   180  ASP180     -0.1239
     69  CA       177.3470  223.6800  227.8120 C.3   180  ASP180      0.1674
     70  C        175.9310  224.0850  228.1000 C.2   180  ASP180      0.2266
     71  O        175.5200  225.1730  227.7660 O.2   180  ASP180     -0.2867
     72  CB       177.3210  222.8310  226.5510 C.3   180  ASP180      0.1410
     73  CG       178.6930  222.5830  225.9910 C.2   180  ASP180      0.3668
     74  OD1      179.6280  223.2950  226.4080 O.co2 180  ASP180     -0.2456
     75  OD2      178.8400  221.6580  225.1630 O.co2 180  ASP180     -0.2456
     76  N        185.3680  215.5410  242.6920 N.3   199  GLN199     -0.1245
     77  CA       186.0920  215.9240  241.5040 C.3   199  GLN199      0.1566
     78  C        187.3350  216.6770  241.9290 C.2   199  GLN199      0.2260
     79  O        187.3780  217.2830  242.9970 O.2   199  GLN199     -0.2867
     80  CB       185.1950  216.7730  240.6160 C.3   199  GLN199      0.0367
     81  CG       185.6220  216.9100  239.2090 C.3   199  GLN199      0.0905
     82  CD       184.5800  217.6180  238.3980 C.2   199  GLN199      0.2608
     83  OE1      183.5510  218.0060  238.9200 O.2   199  GLN199     -0.2717
     84  NE2      184.8370  217.7930  237.1180 N.am  199  GLN199     -0.0878
     85  N        177.9490  215.9690  239.2480 N.3   260  ASP260     -0.1225
     86  CA       179.0610  215.5400  238.4530 C.3   260  ASP260      0.1805
     87  C        180.0280  214.8130  239.3390 C.2   260  ASP260      0.2597
     88  O        180.5910  215.4350  240.2040 O.2   260  ASP260     -0.2718
     89  CB       179.7400  216.7990  237.9800 C.3   260  ASP260      0.1424
     90  CG       180.4550  216.6350  236.6830 C.2   260  ASP260      0.3668
     91  OD1      181.1160  215.6090  236.4770 O.co2 260  ASP260     -0.2456
     92  OD2      180.3740  217.5610  235.8630 O.co2 260  ASP260     -0.2456
     93  N        180.3620  213.5570  239.0850 N.am  261  ASP261     -0.1974
     94  CA       179.4580  212.4590  238.8530 C.3   261  ASP261      0.1709
     95  C        178.6840  212.0740  240.0760 C.2   261  ASP261      0.2293
     96  O        179.1150  212.2960  241.1610 O.2   261  ASP261     -0.2864
     97  CB       180.2560  211.2270  238.5000 C.3   261  ASP261      0.1436
     98  CG       181.2090  211.4310  237.3570 C.2   261  ASP261      0.3671
     99  OD1      180.9890  212.3180  236.5160 O.co2 261  ASP261     -0.2456
    100  OD2      182.1910  210.6700  237.2950 O.co2 261  ASP261     -0.2456
    101  N        179.5120  208.0630  234.8990 N.3   319  GLU319     -0.1245
    102  CA       180.4420  207.4620  233.9880 C.3   319  GLU319      0.1567
    103  C        180.6490  205.9990  234.2480 C.2   319  GLU319      0.2260
    104  O        180.9450  205.5690  235.3870 O.2   319  GLU319     -0.2867
    105  CB       181.7780  208.1760  234.0680 C.3   319  GLU319      0.0388
    106  CG       182.7710  207.5170  234.9980 C.3   319  GLU319      0.1160
    107  CD       183.9370  208.4190  235.3070 C.2   319  GLU319      0.3649
    108  OE1      184.8790  207.9660  235.9920 O.co2 319  GLU319     -0.2457
    109  OE2      183.9090  209.5860  234.8620 O.co2 319  GLU319     -0.2457
    110  N        183.2690  209.3440  219.7950 N.3   348  PHE348     -0.1241
    111  CA       183.9820  210.5540  220.1440 C.3   348  PHE348      0.1605
    112  C        185.2850  210.6600  219.4060 C.2   348  PHE348      0.2264
    113  O        185.6880  211.7620  219.0390 O.2   348  PHE348     -0.2867
    114  CB       184.2560  210.5940  221.6310 C.3   348  PHE348      0.0534
    115  CG       184.9330  211.8300  222.0750 C.ar  348  PHE348     -0.0203
    116  CD1      184.2500  213.0130  222.1290 C.ar  348  PHE348     -0.0042
    117  CD2      186.2520  211.8120  222.4600 C.ar  348  PHE348     -0.0042
    118  CE1      184.8690  214.1550  222.5500 C.ar  348  PHE348     -0.0003
    119  CE2      186.8730  212.9580  222.8810 C.ar  348  PHE348     -0.0003
    120  CZ       186.1780  214.1270  222.9230 C.ar  348  PHE348     -0.0000
    121  N        181.1260  214.7710  217.4030 N.3   353  ARG353     -0.1231
    122  CA       181.1940  215.4690  218.6780 C.3   353  ARG353      0.1679
    123  C        180.0730  216.4940  218.7160 C.2   353  ARG353      0.2434
    124  O        179.9110  217.2590  217.7500 O.2   353  ARG353     -0.2733
    125  CB       182.5510  216.1250  218.8770 C.3   353  ARG353      0.0321
    126  CG       183.6350  215.1100  218.9680 C.3   353  ARG353      0.0489
    127  CD       184.9460  215.6920  219.3220 C.3   353  ARG353      0.2205
    128  NE       185.9510  214.6490  219.3320 N.pl3 353  ARG353     -0.0865
    129  CZ       187.2110  214.8470  219.6770 C.cat 353  ARG353      0.5346
    130  NH1      187.6030  216.0490  220.0680 N.pl3 353  ARG353      0.1354
    131  NH2      188.0760  213.8440  219.6550 N.pl3 353  ARG353      0.1354
    132  N        179.2570  216.5460  219.7810 N.am  354  PRO354     -0.2729
    133  CA       179.1910  215.7620  221.0110 C.3   354  PRO354      0.1401
    134  C        178.7540  214.3460  220.7690 C.2   354  PRO354      0.2269
    135  O        177.8780  214.1070  219.9550 O.2   354  PRO354     -0.2865
    136  CB       178.1570  216.4970  221.8340 C.3   354  PRO354      0.0296
    137  CG       177.3420  217.1790  220.8710 C.3   354  PRO354      0.0237
    138  CD       178.2370  217.5940  219.7790 C.3   354  PRO354      0.0939
    139  N        178.3920  219.4020  216.0970 N.3   421  GLN421     -0.1231
    140  CA       178.6150  220.7670  216.5350 C.3   421  GLN421      0.1683
    141  C        179.9540  221.0090  217.1990 C.2   421  GLN421      0.2434
    142  O        180.4200  220.1920  217.9720 O.2   421  GLN421     -0.2733
    143  CB       177.5790  221.1080  217.5920 C.3   421  GLN421      0.0380
    144  CG       176.2120  221.4850  217.0960 C.3   421  GLN421      0.0905
    145  CD       175.4740  222.2370  218.1600 C.2   421  GLN421      0.2608
    146  OE1      176.0810  222.8160  219.0450 O.2   421  GLN421     -0.2717
    147  NE2      174.1630  222.2320  218.0870 N.am  421  GLN421     -0.0878
    148  N        180.5530  222.1710  216.9480 N.am  422  PRO422     -0.2718
    149  CA       181.8090  222.5610  217.5860 C.3   422  PRO422      0.1535
    150  C        181.5630  222.8380  219.0620 C.2   422  PRO422      0.2598
    151  O        180.4790  223.2810  219.4110 O.2   422  PRO422     -0.2715
    152  CB       182.1800  223.8580  216.8700 C.3   422  PRO422      0.0310
    153  CG       180.9430  224.2970  216.1680 C.3   422  PRO422      0.0237
    154  CD       180.2060  223.0520  215.8290 C.3   422  PRO422      0.0939
    155  N        182.5390  222.6070  219.9290 N.am  423  GLN423     -0.1978
    156  CA       182.3010  222.8540  221.3440 C.3   423  GLN423      0.1601
    157  C        182.0290  224.3230  221.6080 C.2   423  GLN423      0.2287
    158  O        182.6090  225.2030  220.9760 O.2   423  GLN423     -0.2864
    159  CB       183.4570  222.3750  222.2190 C.3   423  GLN423      0.0394
    160  CG       183.0680  222.2530  223.6840 C.3   423  GLN423      0.0908
    161  CD       184.2550  222.1160  224.6140 C.2   423  GLN423      0.2608
    162  OE1      185.3940  222.4040  224.2430 O.2   423  GLN423     -0.2717
    163  NE2      183.9930  221.6860  225.8370 N.am  423  GLN423     -0.0878
@<TRIPOS>BOND
     1   154   153    1
     2   154   148    1
     3   139   140    1
     4   153   152    1
     5   140   141    1
     6   140   143    1
     7   152   149    1
     8   148   141   am
     9   148   149    1
    10   144   143    1
    11   144   145    1
    12   141   142    2
    13   121   122    1
    14   149   150    1
    15   124   123    2
    16   147   145   am
    17   145   146    2
    18   122   123    1
    19   122   125    1
    20   123   132   am
    21   125   126    1
    22   126   127    1
    23   113   112    2
    24   150   151    2
    25   150   155   am
    26   127   128    1
    27   128   129    2
    28   112   111    1
    29   131   129    1
    30   129   130    1
    31   138   132    1
    32   138   137    1
    33   132   133    1
    34   110   111    1
    35   155   156    1
    36   135   134    2
    37   111   114    1
    38     3     4    2
    39     3     2    1
    40   134   133    1
    41   137   136    1
    42   158   157    2
    43   133   136    1
    44     2     1    1
    45     2     5    1
    46   156   157    1
    47   156   159    1
    48   114   115    1
    49   115   116   ar
    50   115   117   ar
    51     8     6    1
    52   116   118   ar
    53   159   160    1
    54     5     6    1
    55   117   119   ar
    56   118   120   ar
    57   119   120   ar
    58     6     7    1
    59   160   161    1
    60   162   161    2
    61   161   163   am
    62    75    73   ar
    63    32    31    2
    64    34    33    1
    65    73    74   ar
    66    73    72    1
    67    67    65    1
    68    31    30    1
    69    31    36   am
    70    23    22    2
    71    72    69    1
    72    30    33    1
    73    30    29    1
    74    37    36    1
    75    37    38    1
    76    33    35    1
    77    60    57    1
    78    39    38    2
    79    65    62    1
    80    65    66    1
    81    62    61    1
    82    62    63    1
    83    38    40   am
    84    22    29   am
    85    22    21    1
    86    59    58    2
    87    71    70    2
    88    69    70    1
    89    69    68    1
    90    61    58   am
    91    58    57    1
    92    64    63    2
    93    57    56    1
    94    27    26    2
    95    24    21    1
    96    24    25    1
    97    40    41    1
    98    21    20    1
    99    12    11    2
   100    19    17    1
   101    56    51   am
   102    41    42    1
   103    41    44    1
   104    26    25    1
   105    26    28   am
   106    11    20   am
   107    11    10    1
   108    18    17    1
   109    17    16    2
   110    43    42    2
   111    42    49   am
   112    45    44    1
   113    45    46    1
   114    51    52    2
   115    51    50    1
   116     9    10    1
   117    49    50    1
   118    16    15    1
   119    10    13    1
   120    14    15    1
   121    14    13    1
   122    50    53    1
   123    46    47    1
   124    47    48    1
   125    53    55    1
   126    53    54    1
   127   102   105    1
   128   102   103    1
   129   102   101    1
   130   105   106    1
   131   103   104    2
   132   109   107   ar
   133   106   107    1
   134   107   108   ar
   135    92    90   ar
   136    91    90   ar
   137    99    98   ar
   138    90    89    1
   139    84    82   am
   140   100    98   ar
   141    98    97    1
   142    89    86    1
   143    82    83    2
   144    82    81    1
   145    86    85    1
   146    86    87    1
   147    97    94    1
   148    94    93    1
   149    94    95    1
   150    93    87   am
   151    81    80    1
   152    87    88    2
   153    95    96    2
   154    80    77    1
   155    77    78    1
   156    77    76    1
   157    78    79    2
