@<TRIPOS>MOLECULE
tmp/6fkiZ01.pdb
 131 126 0 0 0
SMALL
GASTEIGER

@<TRIPOS>ATOM
      1  N        182.6100  162.9920  236.8790 N.3   157  GLY157     -0.1210
      2  CA       181.4060  163.5070  237.4810 C.3   157  GLY157      0.1956
      3  C        180.3750  162.4370  237.6580 C.2   157  GLY157      0.2612
      4  O        180.6500  161.2580  237.5840 O.2   157  GLY157     -0.2717
      5  N        179.1480  162.8520  237.9040 N.am  158  ALA158     -0.1965
      6  CA       178.1050  161.8760  238.1610 C.3   158  ALA158      0.1728
      7  C        177.6380  161.2130  236.8760 C.2   158  ALA158      0.2616
      8  O        177.3020  161.8840  235.9040 O.2   158  ALA158     -0.2715
      9  CB       176.9340  162.5450  238.8500 C.3   158  ALA158      0.0334
     10  N        177.6150  159.8900  236.8730 N.am  159  GLY159     -0.1955
     11  CA       177.0370  159.1710  235.7660 C.3   159  GLY159      0.1869
     12  C        177.9600  158.8870  234.6120 C.2   159  GLY159      0.2309
     13  O        177.4770  158.5710  233.5260 O.2   159  GLY159     -0.2863
     14  N        180.6340  156.5990  234.8500 N.3   161  GLY161     -0.1210
     15  CA       181.1210  155.2480  234.8880 C.3   161  GLY161      0.1956
     16  C        182.2640  154.9910  235.8230 C.2   161  GLY161      0.2612
     17  O        183.1280  154.1880  235.4910 O.2   161  GLY161     -0.2717
     18  N        182.3400  155.7380  236.9160 N.am  162  LYS162     -0.1965
     19  CA       183.3660  155.4730  237.8940 C.3   162  LYS162      0.1728
     20  C        183.0440  154.1370  238.5060 C.2   162  LYS162      0.2617
     21  O        183.8880  153.2780  238.6210 O.2   162  LYS162     -0.2715
     22  CB       183.3140  156.5010  239.0130 C.3   162  LYS162      0.0311
     23  CG       183.6970  157.9060  238.6270 C.3   162  LYS162      0.0038
     24  CD       183.6500  158.8090  239.8420 C.3   162  LYS162      0.0206
     25  CE       182.2280  158.9960  240.3260 C.3   162  LYS162      0.1093
     26  NZ       181.3760  159.6740  239.3110 N.3   162  LYS162     -0.1314
     27  N        181.7820  153.9630  238.8740 N.am  163  THR163     -0.1937
     28  CA       181.3360  152.7370  239.5120 C.3   163  THR163      0.2028
     29  C        181.3990  151.5200  238.6300 C.2   163  THR163      0.2642
     30  O        181.8390  150.4790  239.0610 O.2   163  THR163     -0.2714
     31  CB       179.9120  152.8550  240.0680 C.3   163  THR163      0.1808
     32  OG1      179.8220  153.9940  240.9370 O.3   163  THR163     -0.2208
     33  CG2      179.5690  151.6050  240.8380 C.3   163  THR163      0.0379
     34  N        180.9700  151.6370  237.3850 N.am  164  VAL164     -0.1977
     35  CA       181.0210  150.4880  236.4980 C.3   164  VAL164      0.1596
     36  C        182.4470  150.0710  236.2390 C.2   164  VAL164      0.2287
     37  O        182.7610  148.8910  236.2040 O.2   164  VAL164     -0.2864
     38  CB       180.3090  150.7230  235.1750 C.3   164  VAL164      0.0276
     39  CG1      180.7250  149.6490  234.1990 C.3   164  VAL164      0.0022
     40  CG2      178.8110  150.6750  235.3830 C.3   164  VAL164      0.0022
     41  N        177.9120  155.8350  249.4720 N.3   188  GLU188     -0.1231
     42  CA       177.3390  155.5190  248.1800 C.3   188  GLU188      0.1699
     43  C        175.9490  154.9310  248.3180 C.2   188  GLU188      0.2592
     44  O        175.4170  154.8040  249.4170 O.2   188  GLU188     -0.2718
     45  CB       178.2250  154.5860  247.3930 C.3   188  GLU188      0.0402
     46  CG       179.2820  155.3750  246.7380 C.3   188  GLU188      0.1161
     47  CD       178.6790  156.2940  245.7000 C.2   188  GLU188      0.3649
     48  OE1      177.7890  155.8430  244.9520 O.co2 188  GLU188     -0.2457
     49  OE2      179.0330  157.4830  245.6630 O.co2 188  GLU188     -0.2457
     50  N        175.3610  154.6270  247.1690 N.am  189  ARG189     -0.1980
     51  CA       174.0180  154.0880  247.1170 C.3   189  ARG189      0.1597
     52  C        173.9920  152.7320  247.7750 C.2   189  ARG189      0.2287
     53  O        174.9210  151.9440  247.6150 O.2   189  ARG189     -0.2864
     54  CB       173.5870  153.9440  245.6780 C.3   189  ARG189      0.0334
     55  CG       173.5860  155.2120  244.9730 C.3   189  ARG189      0.0492
     56  CD       173.4770  154.9830  243.5320 C.3   189  ARG189      0.2205
     57  NE       173.6170  156.2470  242.8550 N.pl3 189  ARG189     -0.0865
     58  CZ       174.7880  156.7270  242.4770 C.cat 189  ARG189      0.5346
     59  NH1      175.8880  156.0380  242.7120 N.pl3 189  ARG189      0.1354
     60  NH2      174.8630  157.8940  241.8780 N.pl3 189  ARG189      0.1354
     61  N        173.9480  149.8960  245.1760 N.3   192  GLU192     -0.1245
     62  CA       175.2330  149.4290  244.6850 C.3   192  GLU192      0.1567
     63  C        175.9780  148.6700  245.7570 C.2   192  GLU192      0.2260
     64  O        176.8880  147.8950  245.4610 O.2   192  GLU192     -0.2867
     65  CB       176.0600  150.6100  244.2280 C.3   192  GLU192      0.0388
     66  CG       175.4750  151.3180  243.0650 C.3   192  GLU192      0.1160
     67  CD       176.2810  152.5230  242.6860 C.2   192  GLU192      0.3649
     68  OE1      177.2030  152.8720  243.4460 O.co2 192  GLU192     -0.2457
     69  OE2      176.0040  153.1180  241.6260 O.co2 192  GLU192     -0.2457
     70  N        182.4480  153.9680  225.8600 N.3   346  TYR346     -0.1228
     71  CA       182.5450  153.4660  227.2060 C.3   346  TYR346      0.1721
     72  C        183.6600  152.4400  227.3170 C.2   346  TYR346      0.2437
     73  O        183.7390  151.5410  226.4820 O.2   346  TYR346     -0.2733
     74  CB       181.2440  152.8400  227.6420 C.3   346  TYR346      0.0547
     75  CG       180.2160  153.8360  228.0320 C.ar  346  TYR346     -0.0200
     76  CD1      180.3270  154.5180  229.2170 C.ar  346  TYR346     -0.0009
     77  CD2      179.1250  154.0750  227.2460 C.ar  346  TYR346     -0.0009
     78  CE1      179.3970  155.4170  229.5960 C.ar  346  TYR346      0.0417
     79  CE2      178.1810  154.9750  227.6220 C.ar  346  TYR346      0.0417
     80  CZ       178.3320  155.6500  228.7960 C.ar  346  TYR346      0.1957
     81  OH       177.3890  156.5550  229.1780 O.3   346  TYR346     -0.2866
     82  N        184.5310  152.5280  228.3250 N.am  347  PRO347     -0.2729
     83  CA       184.6290  153.4560  229.4370 C.3   347  PRO347      0.1401
     84  C        185.0660  154.7990  228.9660 C.2   347  PRO347      0.2269
     85  O        185.8560  154.9070  228.0400 O.2   347  PRO347     -0.2865
     86  CB       185.6830  152.8340  230.3160 C.3   347  PRO347      0.0296
     87  CG       186.5110  152.1080  229.4170 C.3   347  PRO347      0.0237
     88  CD       185.6460  151.5860  228.3440 C.3   347  PRO347      0.0939
     89  N        185.2170  149.6500  224.9580 N.3   417  GLN417     -0.1245
     90  CA       185.2610  148.2300  225.2480 C.3   417  GLN417      0.1566
     91  C        183.9900  147.8180  225.9660 C.2   417  GLN417      0.2260
     92  O        183.4890  148.5530  226.8190 O.2   417  GLN417     -0.2867
     93  CB       186.4820  147.8950  226.1040 C.3   417  GLN417      0.0367
     94  CG       186.6850  146.4450  226.3310 C.3   417  GLN417      0.0905
     95  CD       187.9470  146.1740  227.0120 C.2   417  GLN417      0.2608
     96  OE1      188.7220  147.0770  227.2360 O.2   417  GLN417     -0.2717
     97  NE2      188.1860  144.9310  227.3510 N.am  417  GLN417     -0.0878
     98  N        182.1110  145.7160  228.7510 N.3   419  PHE419     -0.1241
     99  CA       182.6090  145.0940  229.9600 C.3   419  PHE419      0.1605
    100  C        181.7670  143.8980  230.3380 C.2   419  PHE419      0.2264
    101  O        180.6510  143.7150  229.8580 O.2   419  PHE419     -0.2867
    102  CB       182.6050  146.0740  231.1120 C.3   419  PHE419      0.0534
    103  CG       183.6690  147.0870  231.0420 C.ar  419  PHE419     -0.0203
    104  CD1      184.7780  146.8890  230.2730 C.ar  419  PHE419     -0.0042
    105  CD2      183.5630  148.2370  231.7540 C.ar  419  PHE419     -0.0042
    106  CE1      185.7510  147.8310  230.2180 C.ar  419  PHE419     -0.0003
    107  CE2      184.5270  149.1720  231.6940 C.ar  419  PHE419     -0.0003
    108  CZ       185.6220  148.9670  230.9280 C.ar  419  PHE419     -0.0000
    109  N        178.9650  145.6100  232.3940 N.3   422  ALA422     -0.1245
    110  CA       178.0310  146.4200  231.6360 C.3   422  ALA422      0.1562
    111  C        177.3510  145.6380  230.5320 C.2   422  ALA422      0.2260
    112  O        177.0290  146.2010  229.4880 O.2   422  ALA422     -0.2867
    113  CB       178.7350  147.6390  231.0660 C.3   422  ALA422      0.0290
    114  N        174.1620  147.2020  230.2250 N.3   425  PHE425     -0.1227
    115  CA       174.1480  148.5230  229.6190 C.3   425  PHE425      0.1736
    116  C        174.4600  148.4300  228.1380 C.2   425  PHE425      0.2596
    117  O        173.7760  149.0370  227.3150 O.2   425  PHE425     -0.2718
    118  CB       175.1350  149.4370  230.3310 C.3   425  PHE425      0.0547
    119  CG       174.8700  149.5810  231.7910 C.ar  425  PHE425     -0.0202
    120  CD1      173.9970  150.5180  232.2830 C.ar  425  PHE425     -0.0042
    121  CD2      175.5370  148.7860  232.6720 C.ar  425  PHE425     -0.0042
    122  CE1      173.7480  150.5620  233.6100 C.ar  425  PHE425     -0.0003
    123  CE2      175.3230  148.8680  233.9980 C.ar  425  PHE425     -0.0003
    124  CZ       174.4290  149.7420  234.4730 C.ar  425  PHE425     -0.0000
    125  N        175.4820  147.6570  227.7760 N.am  426  THR426     -0.1953
    126  CA       175.8620  147.5380  226.3760 C.3   426  THR426      0.1897
    127  C        174.9110  146.6430  225.6100 C.2   426  THR426      0.2313
    128  O        174.6210  146.9010  224.4440 O.2   426  THR426     -0.2863
    129  CB       177.2570  146.9670  226.2500 C.3   426  THR426      0.1794
    130  OG1      177.2900  145.7000  226.9020 O.3   426  THR426     -0.2208
    131  CG2      178.2390  147.8590  226.8780 C.3   426  THR426      0.0378
@<TRIPOS>BOND
     1   128   127    2
     2    89    90    1
     3    90    91    1
     4    90    93    1
     5   127   126    1
     6    70    71    1
     7    91    92    2
     8    93    94    1
     9   129   126    1
    10   129   131    1
    11   129   130    1
    12    94    95    1
    13   126   125    1
    14    73    72    2
    15    95    96    2
    16    95    97   am
    17    71    72    1
    18    71    74    1
    19    77    79   ar
    20    77    75   ar
    21   117   116    2
    22    72    82   am
    23    79    80   ar
    24    74    75    1
    25   125   116   am
    26    75    76   ar
    27    85    84    2
    28   116   115    1
    29    82    88    1
    30    82    83    1
    31    88    87    1
    32    98    99    1
    33    80    81    1
    34    80    78   ar
    35    84    83    1
    36    76    78   ar
    37    87    86    1
    38    83    86    1
    39   112   111    2
    40   115   114    1
    41   115   118    1
    42   101   100    2
    43    99   100    1
    44    99   102    1
    45   106   104   ar
    46   106   108   ar
    47   104   103   ar
    48   118   119    1
    49   111   110    1
    50   108   107   ar
    51   103   102    1
    52   103   105   ar
    53   113   110    1
    54   110   109    1
    55   107   105   ar
    56   119   120   ar
    57   119   121   ar
    58   120   122   ar
    59   121   123   ar
    60    13    12    2
    61   122   124   ar
    62   123   124   ar
    63    39    38    1
    64    12    11    1
    65    14    15    1
    66    15    16    1
    67    38    40    1
    68    38    35    1
    69    17    16    2
    70    11    10    1
    71    16    18   am
    72     8     7    2
    73    37    36    2
    74    36    35    1
    75    35    34    1
    76    10     7   am
    77     7     6    1
    78     1     2    1
    79    18    19    1
    80    34    29   am
    81     2     3    1
    82     4     3    2
    83     3     5   am
    84    19    20    1
    85    19    22    1
    86     5     6    1
    87     6     9    1
    88    20    21    2
    89    20    27   am
    90    23    22    1
    91    23    24    1
    92    29    30    2
    93    29    28    1
    94    27    28    1
    95    26    25    1
    96    28    31    1
    97    24    25    1
    98    31    33    1
    99    31    32    1
   100    69    67   ar
   101    60    58    1
   102    58    59    1
   103    58    57    2
   104    67    66    1
   105    67    68   ar
   106    57    56    1
   107    66    65    1
   108    56    55    1
   109    65    62    1
   110    62    61    1
   111    62    63    1
   112    48    47   ar
   113    55    54    1
   114    64    63    2
   115    49    47   ar
   116    54    51    1
   117    47    46    1
   118    46    45    1
   119    51    50    1
   120    51    52    1
   121    50    43   am
   122    45    42    1
   123    53    52    2
   124    42    43    1
   125    42    41    1
   126    43    44    2
