@<TRIPOS>MOLECULE
tmp/6fkkA03.pdb
 89 85 0 0 0
SMALL
GASTEIGER

@<TRIPOS>ATOM
      1  N         32.3700   50.2140   -9.2740 N.3   125  SER125     -0.1217
      2  CA        32.7340   50.1090  -10.6750 C.3   125  SER125      0.1889
      3  C         33.4810   48.8070  -10.9380 C.2   125  SER125      0.2288
      4  O         34.1400   48.2750  -10.0400 O.2   125  SER125     -0.2866
      5  CB        33.6120   51.2990  -11.0890 C.3   125  SER125      0.2089
      6  OG        34.0870   51.1640  -12.4160 O.3   125  SER125     -0.2183
      7  N         36.1460   48.5410  -12.2670 N.3   127  ALA127     -0.1245
      8  CA        37.5730   48.8300  -12.2340 C.3   127  ALA127      0.1562
      9  C         38.2690   47.9710  -11.1850 C.2   127  ALA127      0.2260
     10  O         37.8170   47.8770  -10.0410 O.2   127  ALA127     -0.2867
     11  CB        37.8020   50.3130  -11.9480 C.3   127  ALA127      0.0290
     12  N         40.5020   48.1270   -9.0230 N.3   129  ASN129     -0.1240
     13  CA        41.2480   48.9420   -8.0740 C.3   129  ASN129      0.1653
     14  C         41.1020   48.4630   -6.6350 C.2   129  ASN129      0.2266
     15  O         41.7920   48.9870   -5.7540 O.2   129  ASN129     -0.2867
     16  CB        40.7950   50.4090   -8.1610 C.3   129  ASN129      0.1155
     17  CG        39.3430   50.5910   -7.7530 C.2   129  ASN129      0.2627
     18  OD1       38.5550   49.6480   -7.8300 O.2   129  ASN129     -0.2716
     19  ND2       38.9740   51.7940   -7.3120 N.am  129  ASN129     -0.0877
     20  N         38.1730   49.2200   -0.5340 N.3   143  THR143     -0.1203
     21  CA        37.5380   49.7780   -1.7220 C.3   143  THR143      0.1994
     22  C         37.2270   51.2510   -1.4560 C.2   143  THR143      0.2617
     23  O         37.9060   51.8970   -0.6520 O.2   143  THR143     -0.2717
     24  CB        36.2970   48.9360   -2.0850 C.3   143  THR143      0.1784
     25  OG1       35.5820   49.5550   -3.1650 O.3   143  THR143     -0.2211
     26  CG2       35.3810   48.7890   -0.8830 C.3   143  THR143      0.0376
     27  N         36.2220   51.7790   -2.1490 N.am  144  VAL144     -0.1979
     28  CA        35.7160   53.1230   -1.9110 C.3   144  VAL144      0.1595
     29  C         34.3260   53.0160   -1.3060 C.2   144  VAL144      0.2287
     30  O         33.5650   52.0870   -1.5970 O.2   144  VAL144     -0.2864
     31  CB        35.6790   53.9660   -3.1990 C.3   144  VAL144      0.0276
     32  CG1       37.0630   54.4560   -3.5470 C.3   144  VAL144      0.0022
     33  CG2       35.1000   53.1500   -4.3360 C.3   144  VAL144      0.0022
     34  N         31.5540   58.7530   -5.9860 N.3   148  SER148     -0.1202
     35  CA        32.5090   59.4930   -6.8000 C.3   148  SER148      0.2020
     36  C         33.8840   58.8410   -6.8390 C.2   148  SER148      0.2619
     37  O         34.6770   59.1540   -7.7340 O.2   148  SER148     -0.2717
     38  CB        32.6380   60.9270   -6.2830 C.3   148  SER148      0.2103
     39  OG        31.3670   61.5390   -6.1470 O.3   148  SER148     -0.2182
     40  N         34.1830   57.9490   -5.8990 N.am  149  GLY149     -0.1942
     41  CA        35.4950   57.3390   -5.8290 C.3   149  GLY149      0.2014
     42  C         36.5300   58.1450   -5.0810 C.2   149  GLY149      0.2639
     43  O         37.7240   58.0330   -5.3830 O.2   149  GLY149     -0.2714
     44  N         36.1170   58.9550   -4.1100 N.am  150  GLY150     -0.1954
     45  CA        37.0500   59.7990   -3.3920 C.3   150  GLY150      0.1869
     46  C         37.1220   59.5180   -1.9060 C.2   150  GLY150      0.2309
     47  O         37.6410   60.3370   -1.1410 O.2   150  GLY150     -0.2863
     48  N         38.4590   56.3250   -0.0460 N.3   152  PRO152     -0.2116
     49  CA        39.0140   54.9800    0.1140 C.3   152  PRO152      0.1372
     50  C         39.0250   54.5500    1.5720 C.2   152  PRO152      0.2244
     51  O         39.1990   55.3590    2.4860 O.2   152  PRO152     -0.2868
     52  CB        40.4400   55.1280   -0.4240 C.3   152  PRO152      0.0268
     53  CG        40.7840   56.5530   -0.1260 C.3   152  PRO152      0.0207
     54  CD        39.5050   57.3330   -0.2920 C.3   152  PRO152      0.0892
     55  N         44.7700   58.1450   -2.0260 N.3   171  GLN171     -0.1231
     56  CA        44.3680   57.7010   -3.3570 C.3   171  GLN171      0.1683
     57  C         44.9350   56.3230   -3.7090 C.2   171  GLN171      0.2434
     58  O         45.6640   56.1810   -4.7000 O.2   171  GLN171     -0.2733
     59  CB        44.7650   58.7270   -4.4090 C.3   171  GLN171      0.0380
     60  CG        44.2480   60.1300   -4.1430 C.3   171  GLN171      0.0905
     61  CD        44.4660   61.0620   -5.3190 C.2   171  GLN171      0.2608
     62  OE1       44.4440   60.6370   -6.4740 O.2   171  GLN171     -0.2717
     63  NE2       44.6790   62.3420   -5.0300 N.am  171  GLN171     -0.0878
     64  N         44.6110   55.2890   -2.9380 N.am  172  PRO172     -0.2718
     65  CA        45.2250   53.9800   -3.1670 C.3   172  PRO172      0.1535
     66  C         44.5010   53.1660   -4.2270 C.2   172  PRO172      0.2599
     67  O         43.2870   53.2660   -4.4120 O.2   172  PRO172     -0.2715
     68  CB        45.1130   53.3060   -1.7970 C.3   172  PRO172      0.0310
     69  CG        43.8380   53.8510   -1.2490 C.3   172  PRO172      0.0237
     70  CD        43.7250   55.2720   -1.7610 C.3   172  PRO172      0.0939
     71  N         45.2810   52.3490   -4.9320 N.am  173  ASP173     -0.1958
     72  CA        44.7690   51.3330   -5.8460 C.3   173  ASP173      0.1840
     73  C         45.2130   49.9820   -5.3030 C.2   173  ASP173      0.2622
     74  O         46.4060   49.6600   -5.3320 O.2   173  ASP173     -0.2715
     75  CB        45.2760   51.5510   -7.2730 C.3   173  ASP173      0.1450
     76  CG        44.7320   52.8210   -7.9040 C.2   173  ASP173      0.3671
     77  OD1       43.9640   53.5470   -7.2380 O.co2 173  ASP173     -0.2456
     78  OD2       45.0760   53.0950   -9.0730 O.co2 173  ASP173     -0.2456
     79  N         44.2630   49.2020   -4.7970 N.am  174  PHE174     -0.1974
     80  CA        44.5850   47.9440   -4.1410 C.3   174  PHE174      0.1639
     81  C         44.7950   46.8330   -5.1620 C.2   174  PHE174      0.2290
     82  O         44.1420   46.7880   -6.2090 O.2   174  PHE174     -0.2864
     83  CB        43.4800   47.5550   -3.1600 C.3   174  PHE174      0.0560
     84  CG        43.2540   48.5660   -2.0730 C.ar  174  PHE174     -0.0200
     85  CD1       43.9850   48.5130   -0.8980 C.ar  174  PHE174     -0.0042
     86  CD2       42.3150   49.5730   -2.2270 C.ar  174  PHE174     -0.0042
     87  CE1       43.7830   49.4420    0.1040 C.ar  174  PHE174     -0.0003
     88  CE2       42.1080   50.5060   -1.2280 C.ar  174  PHE174     -0.0003
     89  CZ        42.8430   50.4410   -0.0610 C.ar  174  PHE174     -0.0000
@<TRIPOS>BOND
     1     6     5    1
     2     7     8    1
     3     8    11    1
     4     8     9    1
     5     9    10    2
     6     5     2    1
     7     3     2    1
     8     3     4    2
     9     2     1    1
    10    78    76   ar
    11    12    13    1
    12    16    13    1
    13    16    17    1
    14    13    14    1
    15    76    75    1
    16    76    77   ar
    17    18    17    2
    18    17    19   am
    19    37    36    2
    20    75    72    1
    21    36    35    1
    22    36    40   am
    23    35    38    1
    24    35    34    1
    25    14    15    2
    26    62    61    2
    27    38    39    1
    28    82    81    2
    29    40    41    1
    30    72    73    1
    31    72    71    1
    32    41    42    1
    33    43    42    2
    34    74    73    2
    35    61    63   am
    36    61    60    1
    37    73    79   am
    38    81    80    1
    39    42    44   am
    40    71    66   am
    41    79    80    1
    42    58    57    2
    43    67    66    2
    44    59    60    1
    45    59    56    1
    46    33    31    1
    47    66    65    1
    48    80    83    1
    49    44    45    1
    50    57    56    1
    51    57    64   am
    52    32    31    1
    53    45    46    1
    54    56    55    1
    55    31    28    1
    56    65    64    1
    57    65    68    1
    58    25    24    1
    59    83    84    1
    60    64    70    1
    61    86    84   ar
    62    86    88   ar
    63    27    28    1
    64    27    22   am
    65    24    21    1
    66    24    26    1
    67    84    85   ar
    68    28    29    1
    69    46    47    2
    70    68    69    1
    71    70    69    1
    72    21    22    1
    73    21    20    1
    74    30    29    2
    75    22    23    2
    76    88    89   ar
    77    85    87   ar
    78    52    53    1
    79    52    49    1
    80    54    53    1
    81    54    48    1
    82    89    87   ar
    83    48    49    1
    84    49    50    1
    85    50    51    2
