@<TRIPOS>MOLECULE
tmp/6fkkA00.pdb
 82 77 0 0 0
SMALL
GASTEIGER

@<TRIPOS>ATOM
      1  N         56.5730   50.4390    3.3300 N.3   231  ARG231     -0.1245
      2  CA        56.8670   50.5040    1.9070 C.3   231  ARG231      0.1563
      3  C         57.5120   49.2060    1.4410 C.2   231  ARG231      0.2260
      4  O         58.2990   48.5900    2.1650 O.2   231  ARG231     -0.2867
      5  CB        57.7890   51.6830    1.6010 C.3   231  ARG231      0.0307
      6  CG        58.1140   51.8310    0.1240 C.3   231  ARG231      0.0489
      7  CD        59.1460   52.9130   -0.1240 C.3   231  ARG231      0.2205
      8  NE        59.4540   53.0370   -1.5460 N.pl3 231  ARG231     -0.0865
      9  CZ        60.3690   53.8610   -2.0440 C.cat 231  ARG231      0.5346
     10  NH1       61.0720   54.6410   -1.2340 N.pl3 231  ARG231      0.1354
     11  NH2       60.5810   53.9050   -3.3530 N.pl3 231  ARG231      0.1354
     12  N         60.1040   47.4680   -1.2050 N.3   233  ASN233     -0.1240
     13  CA        61.3370   47.8850   -1.8680 C.3   233  ASN233      0.1653
     14  C         61.6590   46.8760   -2.9650 C.2   233  ASN233      0.2266
     15  O         62.2610   45.8300   -2.7030 O.2   233  ASN233     -0.2867
     16  CB        62.4780   48.0020   -0.8590 C.3   233  ASN233      0.1155
     17  CG        63.7500   48.5800   -1.4610 C.2   233  ASN233      0.2627
     18  OD1       63.9960   48.4780   -2.6640 O.2   233  ASN233     -0.2716
     19  ND2       64.5710   49.1910   -0.6160 N.am  233  ASN233     -0.0877
     20  N         63.8110   47.1390   -6.1110 N.3   235  SER235     -0.1217
     21  CA        64.7530   48.0190   -6.7840 C.3   235  SER235      0.1889
     22  C         66.0120   47.2510   -7.1520 C.2   235  SER235      0.2288
     23  O         66.3500   46.2400   -6.5300 O.2   235  SER235     -0.2866
     24  CB        65.1220   49.2220   -5.9080 C.3   235  SER235      0.2089
     25  OG        65.8330   48.8090   -4.7540 O.3   235  SER235     -0.2183
     26  N         69.8710   47.2900   -6.9750 N.3   237  PRO237     -0.2102
     27  CA        70.8130   47.9930   -6.1010 C.3   237  PRO237      0.1504
     28  C         71.9290   48.6670   -6.8830 C.2   237  PRO237      0.2576
     29  O         72.2280   48.3260   -8.0310 O.2   237  PRO237     -0.2718
     30  CB        71.3610   46.8780   -5.2040 C.3   237  PRO237      0.0282
     31  CG        71.2010   45.6370   -6.0210 C.3   237  PRO237      0.0208
     32  CD        69.9410   45.8290   -6.8110 C.3   237  PRO237      0.0893
     33  N         72.5450   49.6410   -6.2310 N.am  238  GLY238     -0.1957
     34  CA        73.6470   50.3720   -6.8210 C.3   238  GLY238      0.1869
     35  C         73.8710   51.6740   -6.0850 C.2   238  GLY238      0.2309
     36  O         73.2240   51.9680   -5.0770 O.2   238  GLY238     -0.2863
     37  N         70.1220   53.5780   -7.0120 N.3   241  PRO241     -0.2116
     38  CA        69.2120   52.4490   -7.2300 C.3   241  PRO241      0.1372
     39  C         68.0870   52.7990   -8.1910 C.2   241  PRO241      0.2244
     40  O         67.6340   53.9430   -8.2700 O.2   241  PRO241     -0.2868
     41  CB        68.6680   52.1520   -5.8270 C.3   241  PRO241      0.0268
     42  CG        69.6490   52.7810   -4.8880 C.3   241  PRO241      0.0207
     43  CD        70.1530   53.9970   -5.6010 C.3   241  PRO241      0.0892
     44  N         64.3150   52.0750   -8.9890 N.3   243  TYR243     -0.1241
     45  CA        63.1330   51.5910   -8.2890 C.3   243  TYR243      0.1605
     46  C         62.0040   51.2530   -9.2540 C.2   243  TYR243      0.2264
     47  O         61.8130   51.9230  -10.2740 O.2   243  TYR243     -0.2867
     48  CB        62.6340   52.6310   -7.2830 C.3   243  TYR243      0.0534
     49  CG        63.5330   52.8310   -6.0870 C.ar  243  TYR243     -0.0201
     50  CD1       64.6030   53.7130   -6.1370 C.ar  243  TYR243     -0.0009
     51  CD2       63.3000   52.1510   -4.9000 C.ar  243  TYR243     -0.0009
     52  CE1       65.4210   53.9060   -5.0400 C.ar  243  TYR243      0.0417
     53  CE2       64.1120   52.3370   -3.7970 C.ar  243  TYR243      0.0417
     54  CZ        65.1710   53.2150   -3.8730 C.ar  243  TYR243      0.1957
     55  OH        65.9830   53.4050   -2.7790 O.3   243  TYR243     -0.2866
     56  N         59.1940   53.1740    9.4960 N.3   342  GLU342     -0.1231
     57  CA        60.3830   53.8410    8.9730 C.3   342  GLU342      0.1699
     58  C         61.0570   53.0050    7.8910 C.2   342  GLU342      0.2592
     59  O         61.3520   53.5020    6.7980 O.2   342  GLU342     -0.2718
     60  CB        61.3600   54.1360   10.1130 C.3   342  GLU342      0.0402
     61  CG        62.6600   54.8000    9.6730 C.3   342  GLU342      0.1161
     62  CD        62.4670   56.2340    9.2110 C.2   342  GLU342      0.3649
     63  OE1       61.4230   56.8360    9.5450 O.co2 342  GLU342     -0.2457
     64  OE2       63.3610   56.7600    8.5150 O.co2 342  GLU342     -0.2457
     65  N         61.3050   51.7320    8.1770 N.am  343  GLU343     -0.1966
     66  CA        62.0450   50.8720    7.2680 C.3   343  GLU343      0.1733
     67  C         61.1270   50.2580    6.2200 C.2   343  GLU343      0.2616
     68  O         59.9430   50.0100    6.4660 O.2   343  GLU343     -0.2715
     69  CB        62.7660   49.7650    8.0400 C.3   343  GLU343      0.0429
     70  CG        63.8550   50.2760    8.9710 C.3   343  GLU343      0.1163
     71  CD        64.9290   51.0610    8.2370 C.2   343  GLU343      0.3649
     72  OE1       65.2670   50.6880    7.0930 O.co2 343  GLU343     -0.2457
     73  OE2       65.4290   52.0560    8.8030 O.co2 343  GLU343     -0.2457
     74  N         61.6910   50.0180    5.0430 N.am  344  ALA344     -0.1977
     75  CA        60.9800   49.3700    3.9540 C.3   344  ALA344      0.1597
     76  C         61.2580   47.8710    3.9620 C.2   344  ALA344      0.2287
     77  O         62.2310   47.3960    4.5540 O.2   344  ALA344     -0.2864
     78  CB        61.3830   49.9750    2.6090 C.3   344  ALA344      0.0319
     79  N         67.5250   40.7770   -2.5970 N.3   350  GLY350     -0.1225
     80  CA        67.8720   42.1830   -2.6690 C.3   350  GLY350      0.1811
     81  C         67.8180   42.7930   -4.0500 C.2   350  GLY350      0.2280
     82  O         68.3610   43.8810   -4.2570 O.2   350  GLY350     -0.2866
@<TRIPOS>BOND
     1    47    46    2
     2    46    45    1
     3    44    45    1
     4    45    48    1
     5    40    39    2
     6    39    38    1
     7    29    28    2
     8    48    49    1
     9    38    37    1
    10    38    41    1
    11    22    21    1
    12    22    23    2
    13    37    43    1
    14    26    32    1
    15    26    27    1
    16    28    33   am
    17    28    27    1
    18    34    33    1
    19    34    35    1
    20    32    31    1
    21    21    20    1
    22    21    24    1
    23    50    49   ar
    24    50    52   ar
    25    27    30    1
    26    49    51   ar
    27    35    36    2
    28    31    30    1
    29    24    25    1
    30    41    42    1
    31    43    42    1
    32    52    54   ar
    33    51    53   ar
    34    82    81    2
    35    81    80    1
    36    54    53   ar
    37    54    55    1
    38    11     9    1
    39    14    15    2
    40    14    13    1
    41    80    79    1
    42    18    17    2
    43     9     8    2
    44     9    10    1
    45    13    12    1
    46    13    16    1
    47     8     7    1
    48    17    16    1
    49    17    19   am
    50     7     6    1
    51     6     5    1
    52     3     2    1
    53     3     4    2
    54     5     2    1
    55     2     1    1
    56    78    75    1
    57    75    76    1
    58    75    74    1
    59    76    77    2
    60    74    67   am
    61    67    68    2
    62    67    66    1
    63    59    58    2
    64    72    71   ar
    65    66    69    1
    66    66    65    1
    67    58    65   am
    68    58    57    1
    69    69    70    1
    70    71    73   ar
    71    71    70    1
    72    64    62   ar
    73    57    56    1
    74    57    60    1
    75    62    63   ar
    76    62    61    1
    77    61    60    1
