@<TRIPOS>MOLECULE
tmp/6fklD01.pdb
 195 182 0 0 0
SMALL
GASTEIGER

@<TRIPOS>ATOM
      1  N         22.5920   13.0070  -34.4250 N.3     3  ILE3       -0.1245
      2  CA        22.8970   11.5830  -34.3650 C.3     3  ILE3        0.1561
      3  C         23.4380   11.1630  -35.7240 C.2     3  ILE3        0.2260
      4  O         22.9340   11.6010  -36.7650 O.2     3  ILE3       -0.2867
      5  CB        21.6570   10.7480  -33.9830 C.3     3  ILE3        0.0252
      6  CG1       21.2500   11.0190  -32.5350 C.3     3  ILE3        0.0019
      7  CG2       21.9130    9.2550  -34.1960 C.3     3  ILE3        0.0019
      8  CD1       20.0540   10.2100  -32.0790 C.3     3  ILE3        0.0001
      9  N         18.4260   13.8610  -37.1870 N.3    49  TYR49      -0.1241
     10  CA        18.6870   12.8020  -38.1460 C.3    49  TYR49       0.1605
     11  C         18.9590   13.2890  -39.5620 C.2    49  TYR49       0.2264
     12  O         19.4160   12.4900  -40.3860 O.2    49  TYR49      -0.2867
     13  CB        17.5150   11.8080  -38.1750 C.3    49  TYR49       0.0534
     14  CG        17.5170   10.8350  -37.0140 C.ar   49  TYR49      -0.0201
     15  CD1       18.2760    9.6730  -37.0630 C.ar   49  TYR49      -0.0009
     16  CD2       16.7610   11.0740  -35.8720 C.ar   49  TYR49      -0.0009
     17  CE1       18.2890    8.7790  -36.0090 C.ar   49  TYR49       0.0417
     18  CE2       16.7640   10.1800  -34.8110 C.ar   49  TYR49       0.0417
     19  CZ        17.5320    9.0340  -34.8870 C.ar   49  TYR49       0.1957
     20  OH        17.5490    8.1360  -33.8420 O.3    49  TYR49      -0.2866
     21  N         24.0970    5.5140  -33.8630 N.3   133  GLN133     -0.1245
     22  CA        23.2280    4.3490  -33.8120 C.3   133  GLN133      0.1566
     23  C         23.5560    3.4410  -34.9880 C.2   133  GLN133      0.2260
     24  O         23.7780    3.9130  -36.1060 O.2   133  GLN133     -0.2867
     25  CB        21.7340    4.7370  -33.8110 C.3   133  GLN133      0.0367
     26  CG        21.2180    5.3980  -35.0790 C.3   133  GLN133      0.0905
     27  CD        19.7280    5.7050  -34.9990 C.2   133  GLN133      0.2608
     28  OE1       19.2150    6.0610  -33.9400 O.2   133  GLN133     -0.2717
     29  NE2       19.0280    5.5580  -36.1210 N.am  133  GLN133     -0.0878
     30  N         24.7220    3.4570  -29.5440 N.3   164  ASN164     -0.1240
     31  CA        23.5340    2.6220  -29.4390 C.3   164  ASN164      0.1653
     32  C         23.4230    1.7330  -30.6690 C.2   164  ASN164      0.2266
     33  O         23.8390    2.1130  -31.7660 O.2   164  ASN164     -0.2867
     34  CB        22.2580    3.4690  -29.2940 C.3   164  ASN164      0.1155
     35  CG        22.1240    4.0900  -27.9120 C.2   164  ASN164      0.2627
     36  OD1       22.9700    3.8830  -27.0410 O.2   164  ASN164     -0.2716
     37  ND2       21.0580    4.8560  -27.7070 N.am  164  ASN164     -0.0877
     38  N         20.7590   -1.2050  -32.8060 N.3   166  PHE166     -0.1241
     39  CA        19.5800   -2.0310  -33.0320 C.3   166  PHE166      0.1605
     40  C         20.1100   -3.3390  -33.6090 C.2   166  PHE166      0.2264
     41  O         20.4900   -3.4030  -34.7810 O.2   166  PHE166     -0.2867
     42  CB        18.5960   -1.3420  -33.9730 C.3   166  PHE166      0.0534
     43  CG        17.9850   -0.1010  -33.4000 C.ar  166  PHE166     -0.0203
     44  CD1       18.6060    1.1260  -33.5480 C.ar  166  PHE166     -0.0042
     45  CD2       16.7900   -0.1630  -32.7070 C.ar  166  PHE166     -0.0042
     46  CE1       18.0450    2.2710  -33.0130 C.ar  166  PHE166     -0.0003
     47  CE2       16.2240    0.9780  -32.1710 C.ar  166  PHE166     -0.0003
     48  CZ        16.8530    2.1970  -32.3250 C.ar  166  PHE166     -0.0000
     49  N         23.7540    1.2880  -25.2100 N.3   197  GLU197     -0.1245
     50  CA        22.4020    0.7470  -25.2500 C.3   197  GLU197      0.1567
     51  C         22.2780   -0.1470  -26.4720 C.2   197  GLU197      0.2260
     52  O         22.5710    0.2860  -27.5900 O.2   197  GLU197     -0.2867
     53  CB        21.3400    1.8480  -25.3310 C.3   197  GLU197      0.0388
     54  CG        21.3300    2.8610  -24.2090 C.3   197  GLU197      0.1160
     55  CD        20.1030    3.7490  -24.2770 C.2   197  GLU197      0.3649
     56  OE1       19.1000    3.3280  -24.8910 O.co2 197  GLU197     -0.2457
     57  OE2       20.1400    4.8690  -23.7330 O.co2 197  GLU197     -0.2457
     58  N         19.3580   -2.4670  -28.3480 N.3   199  TYR199     -0.1241
     59  CA        17.9880   -2.9410  -28.4700 C.3   199  TYR199      0.1605
     60  C         18.0110   -4.3320  -29.0880 C.2   199  TYR199      0.2264
     61  O         18.4800   -4.5090  -30.2170 O.2   199  TYR199     -0.2867
     62  CB        17.1610   -1.9660  -29.3040 C.3   199  TYR199      0.0534
     63  CG        16.8980   -0.6840  -28.5550 C.ar  199  TYR199     -0.0201
     64  CD1       17.8550    0.3190  -28.5050 C.ar  199  TYR199     -0.0009
     65  CD2       15.7090   -0.4920  -27.8680 C.ar  199  TYR199     -0.0009
     66  CE1       17.6300    1.4810  -27.8040 C.ar  199  TYR199      0.0417
     67  CE2       15.4760    0.6710  -27.1620 C.ar  199  TYR199      0.0417
     68  CZ        16.4400    1.6560  -27.1360 C.ar  199  TYR199      0.1957
     69  OH        16.2120    2.8200  -26.4390 O.3   199  TYR199     -0.2866
     70  N         10.8640    4.0190  -30.6260 N.3   235  VAL235     -0.1231
     71  CA        11.9320    4.1700  -29.6440 C.3   235  VAL235      0.1692
     72  C         12.6280    5.5200  -29.7920 C.2   235  VAL235      0.2592
     73  O         13.0390    6.1240  -28.7930 O.2   235  VAL235     -0.2718
     74  CB        12.9140    2.9900  -29.7600 C.3   235  VAL235      0.0266
     75  CG1       14.2490    3.3320  -29.1290 C.3   235  VAL235      0.0020
     76  CG2       12.3200    1.7530  -29.0940 C.3   235  VAL235      0.0020
     77  N         12.7460    6.0330  -31.0160 N.am  236  THR236     -0.1953
     78  CA        13.3960    7.3150  -31.2540 C.3   236  THR236      0.1897
     79  C         12.4330    8.4960  -31.2320 C.2   236  THR236      0.2313
     80  O         12.8620    9.6220  -31.5040 O.2   236  THR236     -0.2863
     81  CB        14.1410    7.2950  -32.5950 C.3   236  THR236      0.1794
     82  OG1       13.2020    7.1670  -33.6710 O.3   236  THR236     -0.2208
     83  CG2       15.1220    6.1320  -32.6450 C.3   236  THR236      0.0378
     84  N         11.0610   10.3130  -28.9180 N.3   238  CYS238     -0.1221
     85  CA        11.3510   11.4260  -28.0220 C.3   238  CYS238      0.1808
     86  C         12.5590   12.2390  -28.4700 C.2   238  CYS238      0.2601
     87  O         12.7100   13.3880  -28.0420 O.2   238  CYS238     -0.2717
     88  CB        11.5540   10.9080  -26.6010 C.3   238  CYS238      0.0970
     89  SG        10.0320   10.2430  -25.8870 S.3   238  CYS238     -0.0800
     90  N         13.4130   11.6750  -29.3230 N.am  239  LEU239     -0.1979
     91  CA        14.5350   12.4340  -29.8560 C.3   239  LEU239      0.1596
     92  C         14.1360   13.2750  -31.0600 C.2   239  LEU239      0.2287
     93  O         14.7530   14.3150  -31.3150 O.2   239  LEU239     -0.2864
     94  CB        15.6710   11.4910  -30.2430 C.3   239  LEU239      0.0297
     95  CG        16.2410   10.6630  -29.0980 C.3   239  LEU239      0.0022
     96  CD1       17.4950    9.9780  -29.5630 C.3   239  LEU239      0.0001
     97  CD2       16.5250   11.5580  -27.9080 C.3   239  LEU239      0.0001
     98  N         10.2990   15.2740  -22.8130 N.3   245  LEU245     -0.1245
     99  CA        11.7150   15.0100  -22.6070 C.3   245  LEU245      0.1561
    100  C         12.5640   16.1280  -23.1980 C.2   245  LEU245      0.2260
    101  O         12.3330   16.5700  -24.3280 O.2   245  LEU245     -0.2867
    102  CB        12.1070   13.6710  -23.2290 C.3   245  LEU245      0.0270
    103  CG        11.7620   12.4220  -22.4250 C.3   245  LEU245      0.0019
    104  CD1       12.4390   11.2110  -23.0240 C.3   245  LEU245      0.0001
    105  CD2       12.1700   12.6000  -20.9790 C.3   245  LEU245      0.0001
    106  N         20.8970   11.3150  -25.9940 N.3   249  LEU249     -0.1245
    107  CA        21.1430    9.8910  -25.7690 C.3   249  LEU249      0.1561
    108  C         21.8250    9.6280  -24.4270 C.2   249  LEU249      0.2260
    109  O         21.5810    8.5900  -23.8030 O.2   249  LEU249     -0.2867
    110  CB        22.0000    9.3140  -26.8940 C.3   249  LEU249      0.0270
    111  CG        21.3960    9.2320  -28.2930 C.3   249  LEU249      0.0019
    112  CD1       22.4800    8.9240  -29.3160 C.3   249  LEU249      0.0001
    113  CD2       20.3190    8.1630  -28.3200 C.3   249  LEU249      0.0001
    114  N         19.3760    9.7080  -21.5080 N.3   252  LEU252     -0.1245
    115  CA        18.5120    8.5360  -21.5330 C.3   252  LEU252      0.1561
    116  C         19.2600    7.2740  -21.1060 C.2   252  LEU252      0.2260
    117  O         18.6880    6.4090  -20.4340 O.2   252  LEU252     -0.2867
    118  CB        17.9090    8.3770  -22.9270 C.3   252  LEU252      0.0270
    119  CG        17.2020    9.6330  -23.4640 C.3   252  LEU252      0.0019
    120  CD1       16.9750    9.5400  -24.9650 C.3   252  LEU252      0.0001
    121  CD2       15.8870    9.9110  -22.7420 C.3   252  LEU252      0.0001
    122  N         19.5930    7.1550  -17.2910 N.3   255  ASN255     -0.1225
    123  CA        18.3920    6.7470  -16.5810 C.3   255  ASN255      0.1785
    124  C         17.9750    5.3090  -16.8540 C.2   255  ASN255      0.2597
    125  O         17.1010    4.7950  -16.1500 O.2   255  ASN255     -0.2718
    126  CB        17.2390    7.6980  -16.9150 C.3   255  ASN255      0.1169
    127  CG        17.4400    9.0730  -16.3090 C.2   255  ASN255      0.2627
    128  OD1       17.8640    9.1980  -15.1580 O.2   255  ASN255     -0.2716
    129  ND2       17.1610   10.1140  -17.0860 N.am  255  ASN255     -0.0877
    130  N         18.5880    4.6320  -17.8250 N.am  256  MET256     -0.1979
    131  CA        18.1980    3.2680  -18.1460 C.3   256  MET256      0.1605
    132  C         19.2470    2.2180  -17.8090 C.2   256  MET256      0.2287
    133  O         18.8970    1.0400  -17.7160 O.2   256  MET256     -0.2864
    134  CB        17.8480    3.1500  -19.6380 C.3   256  MET256      0.0413
    135  CG        16.6430    3.9800  -20.0660 C.3   256  MET256      0.0598
    136  SD        15.0990    3.4610  -19.2800 S.3   256  MET256     -0.1393
    137  CE        14.9680    1.7790  -19.8780 C.3   256  MET256      0.0692
    138  N         18.1390   -4.1430  -24.0390 N.3   265  PHE265     -0.1241
    139  CA        16.7660   -3.7310  -23.7990 C.3   265  PHE265      0.1605
    140  C         15.7860   -4.6120  -24.5570 C.2   265  PHE265      0.2264
    141  O         16.0460   -5.0150  -25.6960 O.2   265  PHE265     -0.2867
    142  CB        16.5680   -2.2720  -24.2110 C.3   265  PHE265      0.0534
    143  CG        17.4260   -1.3130  -23.4440 C.ar  265  PHE265     -0.0203
    144  CD1       17.7450   -1.5610  -22.1200 C.ar  265  PHE265     -0.0042
    145  CD2       17.9220   -0.1730  -24.0450 C.ar  265  PHE265     -0.0042
    146  CE1       18.5350   -0.6800  -21.4080 C.ar  265  PHE265     -0.0003
    147  CE2       18.7120    0.7080  -23.3370 C.ar  265  PHE265     -0.0003
    148  CZ        19.0200    0.4540  -22.0190 C.ar  265  PHE265     -0.0000
    149  N         11.0860    2.3700  -19.7220 N.3   306  ALA306     -0.1231
    150  CA        10.6140    3.5960  -20.3470 C.3   306  ALA306      0.1694
    151  C          9.4150    3.2780  -21.2300 C.2   306  ALA306      0.2592
    152  O          9.4010    2.2640  -21.9350 O.2   306  ALA306     -0.2718
    153  CB        11.7140    4.2640  -21.1770 C.3   306  ALA306      0.0304
    154  N          8.4080    4.1450  -21.1830 N.am  307  ALA307     -0.1966
    155  CA         7.2160    4.0060  -22.0060 C.3   307  ALA307      0.1728
    156  C          6.9680    5.3120  -22.7410 C.2   307  ALA307      0.2616
    157  O          7.1080    6.3950  -22.1640 O.2   307  ALA307     -0.2715
    158  CB         5.9880    3.6330  -21.1630 C.3   307  ALA307      0.0334
    159  N          6.6140    5.2080  -24.0180 N.am  308  ILE308     -0.1977
    160  CA         6.3520    6.3700  -24.8620 C.3   308  ILE308      0.1596
    161  C          4.9640    6.1970  -25.4610 C.2   308  ILE308      0.2287
    162  O          4.7420    5.2840  -26.2660 O.2   308  ILE308     -0.2864
    163  CB         7.4010    6.5410  -25.9700 C.3   308  ILE308      0.0276
    164  CG1        8.8040    6.6530  -25.3740 C.3   308  ILE308      0.0022
    165  CG2        7.0800    7.7660  -26.8240 C.3   308  ILE308      0.0022
    166  CD1        9.5580    5.3370  -25.3270 C.3   308  ILE308      0.0001
    167  N          9.4900    5.1910  -16.1440 N.3   342  LYS342     -0.1231
    168  CA         9.2890    6.5490  -16.6280 C.3   342  LYS342      0.1693
    169  C          8.4020    6.5550  -17.8670 C.2   342  LYS342      0.2593
    170  O          8.3370    5.5720  -18.6140 O.2   342  LYS342     -0.2718
    171  CB        10.6290    7.2270  -16.9340 C.3   342  LYS342      0.0285
    172  CG        11.4930    7.4320  -15.6860 C.3   342  LYS342      0.0035
    173  CD        10.6590    8.0510  -14.5750 C.3   342  LYS342      0.0206
    174  CE        11.4900    8.4060  -13.3550 C.3   342  LYS342      0.1093
    175  NZ        10.6160    9.0010  -12.3040 N.3   342  LYS342     -0.1314
    176  N          7.7310    7.6860  -18.0850 N.am  343  THR343     -0.1939
    177  CA         6.7260    7.8200  -19.1290 C.3   343  THR343      0.2028
    178  C          6.9040    9.1410  -19.8640 C.2   343  THR343      0.2642
    179  O          7.1560   10.1800  -19.2460 O.2   343  THR343     -0.2714
    180  CB         5.3070    7.7410  -18.5410 C.3   343  THR343      0.1808
    181  OG1        5.1600    6.5140  -17.8180 O.3   343  THR343     -0.2208
    182  CG2        4.2610    7.7950  -19.6410 C.3   343  THR343      0.0379
    183  N          6.7690    9.0920  -21.1860 N.am  344  ALA344     -0.1977
    184  CA         6.7320   10.2820  -22.0220 C.3   344  ALA344      0.1597
    185  C          5.5490   10.1760  -22.9740 C.2   344  ALA344      0.2287
    186  O          5.1280    9.0770  -23.3410 O.2   344  ALA344     -0.2864
    187  CB         8.0330   10.4650  -22.8180 C.3   344  ALA344      0.0319
    188  N         10.1920    0.1230  -23.6190 N.3   360  ILE360     -0.1245
    189  CA        11.6340   -0.0840  -23.5440 C.3   360  ILE360      0.1561
    190  C         11.9350   -0.6330  -22.1600 C.2   360  ILE360      0.2260
    191  O         11.8920    0.1150  -21.1730 O.2   360  ILE360     -0.2867
    192  CB        12.4220    1.2080  -23.7850 C.3   360  ILE360      0.0252
    193  CG1       12.0770    1.8220  -25.1460 C.3   360  ILE360      0.0019
    194  CG2       13.9220    0.9390  -23.6650 C.3   360  ILE360      0.0019
    195  CD1       12.6890    3.1900  -25.3690 C.3   360  ILE360      0.0001
@<TRIPOS>BOND
     1    12    11    2
     2    11    10    1
     3    13    10    1
     4    13    14    1
     5    10     9    1
     6    15    14   ar
     7    15    17   ar
     8    14    16   ar
     9     4     3    2
    10    29    27   am
    11    24    23    2
    12    17    19   ar
    13    16    18   ar
    14     3     2    1
    15    26    27    1
    16    26    25    1
    17    27    28    2
    18    23    22    1
    19    19    18   ar
    20    19    20    1
    21    41    40    2
    22     1     2    1
    23     2     5    1
    24     7     5    1
    25     5     6    1
    26    42    43    1
    27    42    39    1
    28    21    22    1
    29    22    25    1
    30    82    81    1
    31    40    39    1
    32    44    43   ar
    33    44    46   ar
    34    43    45   ar
    35    39    38    1
    36    46    48   ar
    37    45    47   ar
    38    83    81    1
    39    81    78    1
    40     6     8    1
    41    48    47   ar
    42    33    32    2
    43    80    79    2
    44    93    92    2
    45    78    79    1
    46    78    77    1
    47    92    91    1
    48    77    72   am
    49    32    31    1
    50    70    71    1
    51    94    91    1
    52    94    95    1
    53    61    60    2
    54    91    90    1
    55    72    71    1
    56    72    73    2
    57    74    71    1
    58    74    75    1
    59    74    76    1
    60    96    95    1
    61    30    31    1
    62    31    34    1
    63    90    86   am
    64   112   111    1
    65    62    63    1
    66    62    59    1
    67    34    35    1
    68    95    97    1
    69    60    59    1
    70    84    85    1
    71    63    64   ar
    72    63    65   ar
    73    64    66   ar
    74    59    58    1
    75    86    87    2
    76    86    85    1
    77   113   111    1
    78   111   110    1
    79    85    88    1
    80    35    37   am
    81    35    36    2
    82    65    67   ar
    83    66    68   ar
    84    52    51    2
    85    67    68   ar
    86    68    69    1
    87   110   107    1
    88   165   163    1
    89    88    89    1
    90    51    50    1
    91   162   161    2
    92   106   107    1
    93   163   164    1
    94   163   160    1
    95   107   108    1
    96   141   140    2
    97   161   160    1
    98   164   166    1
    99   195   193    1
   100    53    50    1
   101    53    54    1
   102    50    49    1
   103   193   192    1
   104   120   119    1
   105    56    55   ar
   106   160   159    1
   107   140   139    1
   108   108   109    2
   109   101   100    2
   110    55    54    1
   111    55    57   ar
   112   142   139    1
   113   142   143    1
   114   145   143   ar
   115   145   147   ar
   116   138   139    1
   117   159   156   am
   118   192   194    1
   119   192   189    1
   120   188   189    1
   121   189   190    1
   122   119   118    1
   123   119   121    1
   124   143   144   ar
   125   186   185    2
   126   147   148   ar
   127   102    99    1
   128   102   103    1
   129   100    99    1
   130   104   103    1
   131   185   184    1
   132   118   115    1
   133   187   184    1
   134    98    99    1
   135   156   157    2
   136   156   155    1
   137   103   105    1
   138   190   191    2
   139   144   146   ar
   140   184   183    1
   141   148   146   ar
   142   155   154    1
   143   155   158    1
   144   152   151    2
   145   115   114    1
   146   115   116    1
   147   151   154   am
   148   151   150    1
   149   183   178   am
   150   153   150    1
   151   116   117    2
   152   150   149    1
   153   135   134    1
   154   135   136    1
   155   137   136    1
   156   178   179    2
   157   178   177    1
   158   182   180    1
   159   134   131    1
   160   177   180    1
   161   177   176    1
   162   170   169    2
   163   180   181    1
   164   131   130    1
   165   131   132    1
   166   176   169   am
   167   169   168    1
   168   130   124   am
   169   132   133    2
   170   122   123    1
   171   129   127   am
   172   171   168    1
   173   171   172    1
   174   126   123    1
   175   126   127    1
   176   124   123    1
   177   124   125    2
   178   168   167    1
   179   127   128    2
   180   172   173    1
   181   173   174    1
   182   174   175    1
