@<TRIPOS>MOLECULE
tmp/6fknB02.pdb
 99 93 0 0 0
SMALL
GASTEIGER

@<TRIPOS>ATOM
      1  N         41.1250   42.5390  -35.6790 N.3    13  ASP13      -0.1239
      2  CA        42.1120   41.4880  -35.4650 C.3    13  ASP13       0.1674
      3  C         43.4890   42.0960  -35.6790 C.2    13  ASP13       0.2266
      4  O         43.6500   42.9600  -36.5400 O.2    13  ASP13      -0.2867
      5  CB        41.9060   40.2980  -36.4180 C.3    13  ASP13       0.1410
      6  CG        42.6110   39.0360  -35.9420 C.2    13  ASP13       0.3668
      7  OD1       42.2380   38.5160  -34.8690 O.co2  13  ASP13      -0.2456
      8  OD2       43.5310   38.5580  -36.6400 O.co2  13  ASP13      -0.2456
      9  N         47.7850   41.0130  -35.7260 N.3    15  ASN15      -0.1240
     10  CA        49.0150   40.2490  -35.5850 C.3    15  ASN15       0.1653
     11  C         50.1980   41.2050  -35.6690 C.2    15  ASN15       0.2266
     12  O         50.0450   42.4040  -35.9030 O.2    15  ASN15      -0.2867
     13  CB        49.1380   39.1700  -36.6560 C.3    15  ASN15       0.1155
     14  CG        47.8930   38.3450  -36.7810 C.2    15  ASN15       0.2627
     15  OD1       47.0730   38.3070  -35.8600 O.2    15  ASN15      -0.2716
     16  ND2       47.7290   37.6890  -37.9210 N.am   15  ASN15      -0.0877
     17  N         50.0250   41.6700  -39.6990 N.3    18  PHE18      -0.1241
     18  CA        48.8490   42.2320  -40.3570 C.3    18  PHE18       0.1605
     19  C         47.8090   42.6700  -39.3320 C.2    18  PHE18       0.2264
     20  O         47.7560   42.1650  -38.2100 O.2    18  PHE18      -0.2867
     21  CB        48.2300   41.2340  -41.3430 C.3    18  PHE18       0.0534
     22  CG        49.1240   40.9070  -42.5090 C.ar   18  PHE18      -0.0203
     23  CD1       49.3420   41.8400  -43.5110 C.ar   18  PHE18      -0.0042
     24  CD2       49.7530   39.6740  -42.6010 C.ar   18  PHE18      -0.0042
     25  CE1       50.1720   41.5480  -44.5830 C.ar   18  PHE18      -0.0003
     26  CE2       50.5800   39.3780  -43.6710 C.ar   18  PHE18      -0.0003
     27  CZ        50.7890   40.3160  -44.6650 C.ar   18  PHE18      -0.0000
     28  N         43.4680   43.9970  -39.2940 N.3    20  LEU20      -0.1245
     29  CA        42.2020   44.1040  -40.0080 C.3    20  LEU20       0.1561
     30  C         41.4050   45.2620  -39.4320 C.2    20  LEU20       0.2260
     31  O         41.2740   45.3840  -38.2100 O.2    20  LEU20      -0.2867
     32  CB        41.3880   42.8130  -39.9130 C.3    20  LEU20       0.0270
     33  CG        41.5980   41.7940  -41.0320 C.3    20  LEU20       0.0019
     34  CD1       43.0760   41.5210  -41.2620 C.3    20  LEU20       0.0001
     35  CD2       40.8710   40.5090  -40.7030 C.3    20  LEU20       0.0001
     36  N         42.6200   44.6760  -44.9620 N.3    29  ASN29      -0.1240
     37  CA        43.6970   43.8480  -44.4400 C.3    29  ASN29       0.1653
     38  C         44.9780   44.6250  -44.6900 C.2    29  ASN29       0.2266
     39  O         45.3960   44.7820  -45.8390 O.2    29  ASN29      -0.2867
     40  CB        43.7010   42.4750  -45.1090 C.3    29  ASN29       0.1155
     41  CG        44.8150   41.5870  -44.6020 C.2    29  ASN29       0.2627
     42  OD1       45.4320   41.8800  -43.5820 O.2    29  ASN29      -0.2716
     43  ND2       45.0720   40.4900  -45.3160 N.am   29  ASN29      -0.0877
     44  N         46.6610   45.5710  -48.1260 N.3    38  ILE38      -0.1231
     45  CA        46.9860   44.2970  -48.7440 C.3    38  ILE38       0.1692
     46  C         45.7600   43.6610  -49.3890 C.2    38  ILE38       0.2591
     47  O         45.8570   43.0730  -50.4700 O.2    38  ILE38      -0.2718
     48  CB        47.6230   43.3320  -47.7200 C.3    38  ILE38       0.0266
     49  CG1       48.8990   43.9290  -47.1310 C.3    38  ILE38       0.0019
     50  CG2       47.9410   41.9970  -48.3670 C.3    38  ILE38       0.0020
     51  CD1       49.9970   44.1560  -48.1450 C.3    38  ILE38       0.0001
     52  N         44.6050   43.7600  -48.7410 N.am   39  ALA39      -0.1980
     53  CA        43.3720   43.2090  -49.2790 C.3    39  ALA39       0.1597
     54  C         42.1970   44.0160  -48.7470 C.2    39  ALA39       0.2287
     55  O         42.3080   44.7700  -47.7760 O.2    39  ALA39      -0.2864
     56  CB        43.2110   41.7260  -48.9320 C.3    39  ALA39       0.0319
     57  N         34.6240   40.3300  -36.6020 N.3    70  TYR70      -0.1241
     58  CA        35.4260   39.4460  -37.4300 C.3    70  TYR70       0.1605
     59  C         35.8610   38.2460  -36.6080 C.2    70  TYR70       0.2264
     60  O         36.1110   38.3450  -35.4020 O.2    70  TYR70      -0.2867
     61  CB        36.6680   40.1550  -37.9970 C.3    70  TYR70       0.0534
     62  CG        37.6110   39.2300  -38.7410 C.ar   70  TYR70      -0.0201
     63  CD1       37.4350   38.9670  -40.0920 C.ar   70  TYR70      -0.0009
     64  CD2       38.6770   38.6160  -38.0900 C.ar   70  TYR70      -0.0009
     65  CE1       38.2910   38.1200  -40.7770 C.ar   70  TYR70       0.0417
     66  CE2       39.5350   37.7720  -38.7620 C.ar   70  TYR70       0.0417
     67  CZ        39.3370   37.5270  -40.1040 C.ar   70  TYR70       0.1957
     68  OH        40.1930   36.6900  -40.7740 O.3    70  TYR70      -0.2866
     69  N         37.9180   34.2770  -37.7050 N.3    72  LEU72      -0.1245
     70  CA        38.2890   33.2330  -38.6530 C.3    72  LEU72       0.1561
     71  C         37.8810   31.8900  -38.0530 C.2    72  LEU72       0.2260
     72  O         38.3980   31.4880  -37.0030 O.2    72  LEU72      -0.2867
     73  CB        39.7790   33.2840  -38.9680 C.3    72  LEU72       0.0270
     74  CG        40.2590   32.4060  -40.1220 C.3    72  LEU72       0.0019
     75  CD1       41.3410   33.1180  -40.9160 C.3    72  LEU72       0.0001
     76  CD2       40.7790   31.0790  -39.5990 C.3    72  LEU72       0.0001
     77  N         38.6780   35.6150  -54.7990 N.3    96  ARG96      -0.1231
     78  CA        39.0010   35.0450  -53.4980 C.3    96  ARG96       0.1694
     79  C         37.7450   34.5710  -52.7360 C.2    96  ARG96       0.2592
     80  O         37.3120   33.4270  -52.9000 O.2    96  ARG96      -0.2718
     81  CB        39.7790   36.0660  -52.6670 C.3    96  ARG96       0.0321
     82  CG        40.3580   35.5060  -51.3800 C.3    96  ARG96       0.0489
     83  CD        41.4220   34.4640  -51.6640 C.3    96  ARG96       0.2205
     84  NE        42.6810   35.0760  -52.0720 N.pl3  96  ARG96      -0.0865
     85  CZ        43.6020   35.5160  -51.2230 C.cat  96  ARG96       0.5346
     86  NH1       43.4040   35.4140  -49.9130 N.pl3  96  ARG96       0.1354
     87  NH2       44.7240   36.0580  -51.6760 N.pl3  96  ARG96       0.1354
     88  N         37.1650   35.4450  -51.9130 N.am   97  TYR97      -0.1976
     89  CA        36.0420   35.0620  -51.0660 C.3    97  TYR97       0.1639
     90  C         34.7270   35.1070  -51.8360 C.2    97  TYR97       0.2290
     91  O         34.5820   35.8150  -52.8350 O.2    97  TYR97      -0.2864
     92  CB        35.9500   35.9660  -49.8330 C.3    97  TYR97       0.0560
     93  CG        37.1320   35.8510  -48.8980 C.ar   97  TYR97      -0.0198
     94  CD1       37.2280   34.8040  -47.9950 C.ar   97  TYR97      -0.0009
     95  CD2       38.1520   36.7880  -48.9290 C.ar   97  TYR97      -0.0009
     96  CE1       38.3130   34.6950  -47.1420 C.ar   97  TYR97       0.0417
     97  CE2       39.2390   36.6890  -48.0840 C.ar   97  TYR97       0.0417
     98  CZ        39.3170   35.6420  -47.1890 C.ar   97  TYR97       0.1957
     99  OH        40.4000   35.5480  -46.3470 O.3    97  TYR97      -0.2866
@<TRIPOS>BOND
     1    77    78    1
     2    78    79    1
     3    78    81    1
     4    80    79    2
     5    91    90    2
     6    79    88   am
     7    81    82    1
     8    84    83    1
     9    84    85    2
    10    88    89    1
    11    90    89    1
    12    87    85    1
    13    83    82    1
    14    85    86    1
    15    89    92    1
    16    47    46    2
    17    92    93    1
    18    46    45    1
    19    46    52   am
    20    53    56    1
    21    53    54    1
    22    53    52    1
    23    95    93   ar
    24    95    97   ar
    25    93    94   ar
    26    54    55    2
    27    45    44    1
    28    45    48    1
    29    50    48    1
    30    51    49    1
    31    97    98   ar
    32    94    96   ar
    33    48    49    1
    34    98    96   ar
    35    98    99    1
    36    39    38    2
    37    43    41   am
    38    40    41    1
    39    40    37    1
    40    36    37    1
    41    38    37    1
    42    27    25   ar
    43    27    26   ar
    44    41    42    2
    45    25    23   ar
    46    26    24   ar
    47    23    22   ar
    48    24    22   ar
    49    22    21    1
    50    21    18    1
    51    34    33    1
    52    33    35    1
    53    33    32    1
    54    75    74    1
    55    65    67   ar
    56    65    63   ar
    57    68    67    1
    58    18    17    1
    59    18    19    1
    60    74    76    1
    61    74    73    1
    62    67    66   ar
    63    63    62   ar
    64    29    32    1
    65    29    30    1
    66    29    28    1
    67    30    31    2
    68    19    20    2
    69    73    70    1
    70    66    64   ar
    71    62    64   ar
    72    62    61    1
    73    70    71    1
    74    70    69    1
    75    71    72    2
    76    61    58    1
    77    16    14   am
    78    58    59    1
    79    58    57    1
    80    14    13    1
    81    14    15    2
    82    13    10    1
    83     8     6   ar
    84    59    60    2
    85     4     3    2
    86     5     6    1
    87     5     2    1
    88     6     7   ar
    89    12    11    2
    90     9    10    1
    91     3     2    1
    92     1     2    1
    93    11    10    1
