@<TRIPOS>MOLECULE
tmp/6fknB00.pdb
 71 65 0 0 0
SMALL
GASTEIGER

@<TRIPOS>ATOM
      1  N         32.6440   44.9890   -9.0640 N.3   218  ARG218     -0.1245
      2  CA        33.0880   46.3540   -9.3140 C.3   218  ARG218      0.1563
      3  C         34.6090   46.4190   -9.3390 C.2   218  ARG218      0.2260
      4  O         35.2850   45.7290   -8.5740 O.2   218  ARG218     -0.2867
      5  CB        32.5410   47.3060   -8.2490 C.3   218  ARG218      0.0307
      6  CG        33.0950   48.7130   -8.3400 C.3   218  ARG218      0.0489
      7  CD        32.5480   49.6130   -7.2550 C.3   218  ARG218      0.2205
      8  NE        33.2690   50.8830   -7.2190 N.pl3 218  ARG218     -0.0865
      9  CZ        33.0550   51.8380   -6.3240 C.cat 218  ARG218      0.5346
     10  NH1       32.1330   51.6760   -5.3830 N.pl3 218  ARG218      0.1354
     11  NH2       33.7610   52.9570   -6.3690 N.pl3 218  ARG218      0.1354
     12  N         37.9870   48.6340   -8.6520 N.3   220  ASN220     -0.1240
     13  CA        38.4210   49.6800   -7.7220 C.3   220  ASN220      0.1653
     14  C         39.6750   50.3490   -8.2870 C.2   220  ASN220      0.2266
     15  O         40.7820   49.8150   -8.1610 O.2   220  ASN220     -0.2867
     16  CB        38.6700   49.0780   -6.3360 C.3   220  ASN220      0.1155
     17  CG        38.9600   50.1320   -5.2580 C.2   220  ASN220      0.2627
     18  OD1       38.9710   51.3330   -5.5200 O.2   220  ASN220     -0.2716
     19  ND2       39.1830   49.6660   -4.0340 N.am  220  ASN220     -0.0877
     20  N         40.7880   53.6260   -7.3310 N.3   222  SER222     -0.1202
     21  CA        40.7360   54.8340   -6.5260 C.3   222  SER222      0.2020
     22  C         42.1150   55.1860   -5.9860 C.2   222  SER222      0.2618
     23  O         43.0010   54.3350   -5.8640 O.2   222  SER222     -0.2717
     24  CB        39.7530   54.6740   -5.3690 C.3   222  SER222      0.2103
     25  OG        40.2130   53.7010   -4.4500 O.3   222  SER222     -0.2182
     26  N         42.2880   56.4620   -5.6700 N.am  223  VAL223     -0.1979
     27  CA        43.4580   56.9400   -4.9420 C.3   223  VAL223      0.1595
     28  C         43.1800   56.7480   -3.4540 C.2   223  VAL223      0.2287
     29  O         42.1830   57.2870   -2.9490 O.2   223  VAL223     -0.2864
     30  CB        43.7660   58.4060   -5.2670 C.3   223  VAL223      0.0276
     31  CG1       44.8540   58.9450   -4.3610 C.3   223  VAL223      0.0022
     32  CG2       44.2040   58.5160   -6.7070 C.3   223  VAL223      0.0022
     33  N         44.0510   56.6770    0.8840 N.3   224  GLY224     -0.1225
     34  CA        44.4230   57.6860    1.8460 C.3   224  GLY224      0.1811
     35  C         43.2110   58.2100    2.5910 C.2   224  GLY224      0.2280
     36  O         42.1050   57.6660    2.5100 O.2   224  GLY224     -0.2866
     37  N         39.9320   59.9400   -0.2750 N.3   227  PRO227     -0.2116
     38  CA        39.8660   59.0900   -1.4700 C.3   227  PRO227      0.1372
     39  C         39.4080   59.8680   -2.6960 C.2   227  PRO227      0.2244
     40  O         38.6950   60.8710   -2.5980 O.2   227  PRO227     -0.2868
     41  CB        38.8470   58.0090   -1.0860 C.3   227  PRO227      0.0268
     42  CG        38.7590   58.0620    0.3990 C.3   227  PRO227      0.0207
     43  CD        39.0190   59.4820    0.7810 C.3   227  PRO227      0.0892
     44  N         37.9910   58.7560   -6.6380 N.3   229  TYR229     -0.1241
     45  CA        37.5990   57.6150   -7.4530 C.3   229  TYR229      0.1605
     46  C         37.5300   57.9960   -8.9250 C.2   229  TYR229      0.2264
     47  O         37.0850   59.0930   -9.2780 O.2   229  TYR229     -0.2867
     48  CB        36.2580   57.0380   -6.9780 C.3   229  TYR229      0.0534
     49  CG        36.3780   56.2180   -5.7070 C.ar  229  TYR229     -0.0201
     50  CD1       36.6300   56.8300   -4.4800 C.ar  229  TYR229     -0.0009
     51  CD2       36.2540   54.8310   -5.7290 C.ar  229  TYR229     -0.0009
     52  CE1       36.7500   56.0870   -3.3210 C.ar  229  TYR229      0.0417
     53  CE2       36.3730   54.0790   -4.5610 C.ar  229  TYR229      0.0417
     54  CZ        36.6210   54.7130   -3.3610 C.ar  229  TYR229      0.1957
     55  OH        36.7410   53.9760   -2.1980 O.3   229  TYR229     -0.2866
     56  N         34.9670   44.3620   -4.1310 N.3   309  ALA309     -0.1245
     57  CA        35.4520   45.0560   -5.3150 C.3   309  ALA309      0.1562
     58  C         36.8600   44.5840   -5.6460 C.2   309  ALA309      0.2260
     59  O         37.6770   44.3470   -4.7490 O.2   309  ALA309     -0.2867
     60  CB        35.4450   46.5710   -5.1170 C.3   309  ALA309      0.0290
     61  N         40.4590   44.7530   -6.2360 N.3   311  PRO311     -0.2116
     62  CA        41.4720   45.7600   -5.9150 C.3   311  PRO311      0.1372
     63  C         42.4830   45.9190   -7.0370 C.2   311  PRO311      0.2244
     64  O         42.6280   45.0680   -7.9140 O.2   311  PRO311     -0.2868
     65  CB        42.1360   45.1900   -4.6610 C.3   311  PRO311      0.0268
     66  CG        42.0030   43.7240   -4.8280 C.3   311  PRO311      0.0207
     67  CD        40.6690   43.5020   -5.4920 C.3   311  PRO311      0.0892
     68  N         47.5750   48.9370   -5.1000 N.3   315  GLY315     -0.1225
     69  CA        46.4940   49.5970   -4.4060 C.3   315  GLY315      0.1811
     70  C         46.2300   51.0250   -4.8220 C.2   315  GLY315      0.2280
     71  O         45.4880   51.7230   -4.1270 O.2   315  GLY315     -0.2866
@<TRIPOS>BOND
     1     3     2    1
     2     3     4    2
     3     2     1    1
     4     2     5    1
     5    47    46    2
     6    46    45    1
     7    12    13    1
     8     6     5    1
     9     6     7    1
    10    14    15    2
    11    14    13    1
    12    64    63    2
    13    13    16    1
    14    45    48    1
    15    45    44    1
    16    20    21    1
    17     7     8    1
    18     8     9    2
    19    63    62    1
    20    48    49    1
    21    32    30    1
    22    21    22    1
    23    21    24    1
    24    11     9    1
    25    16    17    1
    26     9    10    1
    27    61    62    1
    28    61    67    1
    29    22    23    2
    30    22    26   am
    31    62    65    1
    32    51    49   ar
    33    51    53   ar
    34    49    50   ar
    35    26    27    1
    36    58    57    1
    37    58    59    2
    38    18    17    2
    39    67    66    1
    40    24    25    1
    41    57    60    1
    42    57    56    1
    43    30    27    1
    44    30    31    1
    45    17    19   am
    46    68    69    1
    47    27    28    1
    48    66    65    1
    49    70    69    1
    50    70    71    2
    51    53    54   ar
    52    50    52   ar
    53    28    29    2
    54    54    52   ar
    55    54    55    1
    56    39    40    2
    57    39    38    1
    58    38    41    1
    59    38    37    1
    60    41    42    1
    61    37    43    1
    62    42    43    1
    63    33    34    1
    64    34    35    1
    65    36    35    2
