@<TRIPOS>MOLECULE
tmp/6fkuB03.pdb
 86 83 0 0 0
SMALL
GASTEIGER

@<TRIPOS>ATOM
      1  N        -26.5710    2.0670  -20.5720 N.3    57  ARG57      -0.1245
      2  CA       -25.1060    2.0220  -20.4210 C.3    57  ARG57       0.1563
      3  C        -24.6270    3.1950  -19.5500 C.2    57  ARG57       0.2260
      4  O        -23.7340    3.0390  -18.7120 O.2    57  ARG57      -0.2867
      5  CB       -24.4230    2.0340  -21.7920 C.3    57  ARG57       0.0307
      6  CG       -22.9090    1.8990  -21.7300 C.3    57  ARG57       0.0489
      7  CD       -22.2170    1.8640  -23.0840 C.3    57  ARG57       0.2205
      8  NE       -21.6430    0.5490  -23.3530 N.pl3  57  ARG57      -0.0865
      9  CZ       -20.4340    0.1390  -22.9580 C.cat  57  ARG57       0.5346
     10  NH1      -20.1110   -1.1420  -23.0410 N.pl3  57  ARG57       0.1354
     11  NH2      -19.5550    1.0050  -22.4820 N.pl3  57  ARG57       0.1354
     12  N        -21.3730   -7.1990  -11.8650 N.3   145  PRO145     -0.2102
     13  CA       -22.4700   -7.0220  -12.7930 C.3   145  PRO145      0.1504
     14  C        -21.9830   -7.2020  -14.2360 C.2   145  PRO145      0.2575
     15  O        -20.8050   -7.0110  -14.5230 O.2   145  PRO145     -0.2718
     16  CB       -22.9940   -5.6020  -12.5480 C.3   145  PRO145      0.0282
     17  CG       -21.8330   -4.8750  -11.9180 C.3   145  PRO145      0.0208
     18  CD       -21.0630   -5.9440  -11.1740 C.3   145  PRO145      0.0893
     19  N        -22.8980   -7.5930  -15.1060 N.am  146  LEU146     -0.1980
     20  CA       -22.5690   -7.8940  -16.5030 C.3   146  LEU146      0.1596
     21  C        -22.6070   -6.6110  -17.3420 C.2   146  LEU146      0.2287
     22  O        -21.7650   -6.4240  -18.2170 O.2   146  LEU146     -0.2864
     23  CB       -23.5590   -8.9300  -17.0440 C.3   146  LEU146      0.0297
     24  CG       -23.2890  -10.3830  -16.6470 C.3   146  LEU146      0.0022
     25  CD1      -24.4970  -11.2480  -16.9490 C.3   146  LEU146      0.0001
     26  CD2      -22.0720  -10.9330  -17.3660 C.3   146  LEU146      0.0001
     27  N        -23.5170   -4.9070  -30.1040 N.3   227  GLY227     -0.1225
     28  CA       -22.7050   -4.8780  -28.8730 C.3   227  GLY227      0.1811
     29  C        -23.3660   -4.1250  -27.7290 C.2   227  GLY227      0.2280
     30  O        -22.6970   -3.8140  -26.7500 O.2   227  GLY227     -0.2866
     31  N        -25.8020   -5.0500  -25.6270 N.3   229  PHE229     -0.1227
     32  CA       -26.2780   -5.8420  -24.4900 C.3   229  PHE229      0.1736
     33  C        -25.1860   -6.8050  -24.0160 C.2   229  PHE229      0.2595
     34  O        -24.5430   -7.4880  -24.8270 O.2   229  PHE229     -0.2718
     35  CB       -27.5260   -6.6330  -24.8800 C.3   229  PHE229      0.0547
     36  CG       -28.7550   -5.7930  -25.1160 C.ar  229  PHE229     -0.0202
     37  CD1      -29.3400   -5.1060  -24.0720 C.ar  229  PHE229     -0.0042
     38  CD2      -29.3380   -5.7030  -26.3730 C.ar  229  PHE229     -0.0042
     39  CE1      -30.4820   -4.3450  -24.2740 C.ar  229  PHE229     -0.0003
     40  CE2      -30.4780   -4.9430  -26.5740 C.ar  229  PHE229     -0.0003
     41  CZ       -31.0510   -4.2650  -25.5220 C.ar  229  PHE229     -0.0000
     42  N        -24.9840   -6.8600  -22.7010 N.am  230  GLN230     -0.1979
     43  CA       -24.0120   -7.7910  -22.1240 C.3   230  GLN230      0.1601
     44  C        -24.7290   -9.0410  -21.5970 C.2   230  GLN230      0.2287
     45  O        -24.0810  -10.0100  -21.2210 O.2   230  GLN230     -0.2864
     46  CB       -23.1950   -7.0970  -21.0400 C.3   230  GLN230      0.0394
     47  CG       -22.1570   -6.1370  -21.6100 C.3   230  GLN230      0.0908
     48  CD       -22.7740   -4.8920  -22.2050 C.2   230  GLN230      0.2608
     49  OE1      -23.4920   -4.1560  -21.5330 O.2   230  GLN230     -0.2717
     50  NE2      -22.5080   -4.6540  -23.4790 N.am  230  GLN230     -0.0878
     51  N        -22.7660  -13.4790  -30.2100 N.3   251  ASN251     -0.1225
     52  CA       -22.2890  -12.2630  -29.5120 C.3   251  ASN251      0.1785
     53  C        -21.7250  -12.6110  -28.1280 C.2   251  ASN251      0.2597
     54  O        -21.5600  -11.7180  -27.2940 O.2   251  ASN251     -0.2718
     55  CB       -23.3970  -11.2080  -29.4260 C.3   251  ASN251      0.1169
     56  CG       -23.7420  -10.6590  -30.7960 C.2   251  ASN251      0.2627
     57  OD1      -22.9470   -9.9340  -31.3740 O.2   251  ASN251     -0.2716
     58  ND2      -24.8980  -11.0130  -31.3340 N.am  251  ASN251     -0.0877
     59  N        -21.4290  -13.8950  -27.8910 N.am  252  LEU252     -0.1966
     60  CA       -20.7800  -14.3620  -26.6540 C.3   252  LEU252      0.1728
     61  C        -21.5870  -13.9420  -25.4200 C.2   252  LEU252      0.2616
     62  O        -21.0210  -13.6590  -24.3640 O.2   252  LEU252     -0.2715
     63  CB       -19.3450  -13.8280  -26.5970 C.3   252  LEU252      0.0311
     64  CG       -18.4710  -14.2080  -27.7910 C.3   252  LEU252      0.0022
     65  CD1      -17.0570  -13.6760  -27.6230 C.3   252  LEU252      0.0001
     66  CD2      -18.4480  -15.7200  -28.0050 C.3   252  LEU252      0.0001
     67  N        -22.9070  -13.9340  -25.5630 N.am  253  ILE253     -0.1977
     68  CA       -23.8110  -13.7240  -24.4500 C.3   253  ILE253      0.1596
     69  C        -24.3660  -15.0910  -24.0490 C.2   253  ILE253      0.2287
     70  O        -24.6700  -15.9160  -24.8940 O.2   253  ILE253     -0.2864
     71  CB       -24.9340  -12.7380  -24.8230 C.3   253  ILE253      0.0276
     72  CG1      -24.3940  -11.3200  -25.0090 C.3   253  ILE253      0.0022
     73  CG2      -26.0660  -12.7690  -23.8090 C.3   253  ILE253      0.0022
     74  CD1      -25.3120  -10.4240  -25.8080 C.3   253  ILE253      0.0001
     75  N        -20.9270  -12.1280  -13.2590 N.3   491  TYR491     -0.1241
     76  CA       -19.8240  -12.9970  -13.6540 C.3   491  TYR491      0.1605
     77  C        -18.7990  -13.0630  -12.5170 C.2   491  TYR491      0.2264
     78  O        -18.7260  -12.1510  -11.6680 O.2   491  TYR491     -0.2867
     79  CB       -19.1760  -12.5130  -14.9540 C.3   491  TYR491      0.0534
     80  CG       -18.3660  -11.2390  -14.8780 C.ar  491  TYR491     -0.0201
     81  CD1      -17.0360  -11.2570  -14.4850 C.ar  491  TYR491     -0.0009
     82  CD2      -18.9060  -10.0140  -15.2510 C.ar  491  TYR491     -0.0009
     83  CE1      -16.2720  -10.0980  -14.4470 C.ar  491  TYR491      0.0417
     84  CE2      -18.1540   -8.8480  -15.2360 C.ar  491  TYR491      0.0417
     85  CZ       -16.8290   -8.8910  -14.8330 C.ar  491  TYR491      0.1957
     86  OH       -16.0720   -7.7610  -14.7930 O.3   491  TYR491     -0.2866
@<TRIPOS>BOND
     1    57    56    2
     2    58    56   am
     3    56    55    1
     4    51    52    1
     5    27    28    1
     6    52    55    1
     7    52    53    1
     8    28    29    1
     9    53    59   am
    10    53    54    2
    11    66    64    1
    12    59    60    1
    13    64    65    1
    14    64    63    1
    15    29    30    2
    16    60    63    1
    17    60    61    1
    18    40    38   ar
    19    40    41   ar
    20    38    36   ar
    21    74    72    1
    22    31    32    1
    23    67    61   am
    24    67    68    1
    25    41    39   ar
    26    61    62    2
    27    36    35    1
    28    36    37   ar
    29    72    71    1
    30    70    69    2
    31    35    32    1
    32    34    33    2
    33    71    68    1
    34    71    73    1
    35    32    33    1
    36    68    69    1
    37    39    37   ar
    38    33    42   am
    39    50    48   am
    40     8     7    1
    41     8     9    2
    42     7     6    1
    43    10     9    1
    44     9    11    1
    45    42    43    1
    46    48    47    1
    47    48    49    2
    48    43    44    1
    49    43    46    1
    50     5     6    1
    51     5     2    1
    52    47    46    1
    53    44    45    2
    54     1     2    1
    55     2     3    1
    56     3     4    2
    57    22    21    2
    58    26    24    1
    59    21    20    1
    60    23    24    1
    61    23    20    1
    62    25    24    1
    63    20    19    1
    64    82    84   ar
    65    82    80   ar
    66    84    85   ar
    67    19    14   am
    68    79    80    1
    69    79    76    1
    70    80    81   ar
    71    85    86    1
    72    85    83   ar
    73    15    14    2
    74    81    83   ar
    75    14    13    1
    76    76    75    1
    77    76    77    1
    78    13    16    1
    79    13    12    1
    80    16    17    1
    81    77    78    2
    82    17    18    1
    83    12    18    1
