@<TRIPOS>MOLECULE
tmp/6fkuA03.pdb
 112 105 0 0 0
SMALL
GASTEIGER

@<TRIPOS>ATOM
      1  N          1.2830  -50.2240  -31.8060 N.3     1  HIS1       -0.1241
      2  CA         1.2880  -48.7350  -32.0080 C.3     1  HIS1        0.1621
      3  C          2.6460  -48.2250  -32.5140 C.2     1  HIS1        0.2264
      4  O          2.6910  -47.2190  -33.2130 O.2     1  HIS1       -0.2867
      5  CB         0.8760  -48.0160  -30.7160 C.3     1  HIS1        0.0745
      6  CG        -0.5590  -48.2190  -30.3720 C.ar    1  HIS1        0.0817
      7  ND1       -0.9720  -48.5420  -29.0930 N.ar    1  HIS1       -0.2268
      8  CD2       -1.6720  -48.1660  -31.1380 C.ar    1  HIS1        0.1154
      9  CE1       -2.2840  -48.6730  -29.0850 C.ar    1  HIS1        0.1986
     10  NE2       -2.7360  -48.4480  -30.3320 N.ar    1  HIS1       -0.2212
     11  N          4.6020  -43.0430  -33.2360 N.3    12  LEU12      -0.1245
     12  CA         3.4290  -43.8600  -32.9230 C.3    12  LEU12       0.1561
     13  C          2.3560  -43.6940  -34.0130 C.2    12  LEU12       0.2260
     14  O          2.1590  -42.6080  -34.5450 O.2    12  LEU12      -0.2867
     15  CB         2.8900  -43.4570  -31.5480 C.3    12  LEU12       0.0270
     16  CG         3.8330  -43.7320  -30.3780 C.3    12  LEU12       0.0019
     17  CD1        4.5500  -42.4560  -29.9530 C.3    12  LEU12       0.0001
     18  CD2        3.0750  -44.3420  -29.2070 C.3    12  LEU12       0.0001
     19  N          2.2470  -41.3200  -11.4370 N.3    87  ARG87      -0.1231
     20  CA         3.1900  -42.3300  -11.9170 C.3    87  ARG87       0.1694
     21  C          3.7460  -41.9140  -13.2850 C.2    87  ARG87       0.2591
     22  O          4.9240  -42.0660  -13.5380 O.2    87  ARG87      -0.2718
     23  CB         2.5020  -43.6970  -12.0140 C.3    87  ARG87       0.0321
     24  CG         3.4140  -44.8440  -12.4250 C.3    87  ARG87       0.0489
     25  CD         2.6200  -46.1000  -12.7530 C.3    87  ARG87       0.2205
     26  NE         1.9220  -46.0190  -14.0340 N.pl3  87  ARG87      -0.0865
     27  CZ         0.6860  -46.4680  -14.2570 C.cat  87  ARG87       0.5346
     28  NH1       -0.0090  -47.0150  -13.2750 N.pl3  87  ARG87       0.1354
     29  NH2        0.1370  -46.3500  -15.4530 N.pl3  87  ARG87       0.1354
     30  N          2.8950  -41.3700  -14.1440 N.am   88  GLU88      -0.1979
     31  CA         3.2650  -41.1090  -15.5340 C.3    88  GLU88       0.1602
     32  C          3.7930  -39.6790  -15.7230 C.2    88  GLU88       0.2287
     33  O          4.1020  -39.3040  -16.8490 O.2    88  GLU88      -0.2864
     34  CB         2.0610  -41.3660  -16.4410 C.3    88  GLU88       0.0415
     35  CG         1.6950  -42.8330  -16.5300 C.3    88  GLU88       0.1163
     36  CD         2.8250  -43.7490  -16.9790 C.2    88  GLU88       0.3649
     37  OE1        3.7530  -43.2620  -17.6540 O.co2  88  GLU88      -0.2457
     38  OE2        2.7780  -44.9460  -16.6500 O.co2  88  GLU88      -0.2457
     39  N          7.0650  -39.2560  -17.8150 N.3    91  THR91      -0.1203
     40  CA         6.8010  -39.6990  -19.1880 C.3    91  THR91       0.1994
     41  C          5.9520  -38.6700  -19.9500 C.2    91  THR91       0.2617
     42  O          6.2490  -38.3490  -21.0980 O.2    91  THR91      -0.2717
     43  CB         6.0920  -41.0570  -19.1930 C.3    91  THR91       0.1784
     44  OG1        7.0140  -41.9760  -18.6190 O.3    91  THR91      -0.2211
     45  CG2        5.7100  -41.5440  -20.5730 C.3    91  THR91       0.0376
     46  N          4.8750  -38.1990  -19.3380 N.am   92  LEU92      -0.1979
     47  CA         3.9970  -37.2330  -19.9940 C.3    92  LEU92       0.1596
     48  C          4.7560  -35.9170  -20.2060 C.2    92  LEU92       0.2287
     49  O          4.5500  -35.2480  -21.2180 O.2    92  LEU92      -0.2864
     50  CB         2.7340  -37.0190  -19.1480 C.3    92  LEU92       0.0297
     51  CG         1.7010  -38.1450  -19.2180 C.3    92  LEU92       0.0022
     52  CD1        0.6410  -37.9860  -18.1350 C.3    92  LEU92       0.0001
     53  CD2        1.0430  -38.2100  -20.5900 C.3    92  LEU92       0.0001
     54  N          7.0920  -36.4700  -23.2530 N.3    95  LEU95      -0.1245
     55  CA         6.3000  -36.5390  -24.4720 C.3    95  LEU95       0.1561
     56  C          5.7700  -35.1500  -24.8490 C.2    95  LEU95       0.2260
     57  O          5.6600  -34.8350  -26.0390 O.2    95  LEU95      -0.2867
     58  CB         5.1430  -37.5200  -24.2830 C.3    95  LEU95       0.0270
     59  CG         4.1520  -37.5930  -25.4480 C.3    95  LEU95       0.0019
     60  CD1        4.8420  -38.0140  -26.7310 C.3    95  LEU95       0.0001
     61  CD2        2.9990  -38.5390  -25.1350 C.3    95  LEU95       0.0001
     62  N         -0.8550  -37.4680  -29.6160 N.3   189  THR189     -0.1218
     63  CA        -0.2570  -38.5620  -28.8330 C.3   189  THR189      0.1862
     64  C         -0.6010  -38.3980  -27.3470 C.2   189  THR189      0.2287
     65  O         -1.0400  -39.3560  -26.7010 O.2   189  THR189     -0.2866
     66  CB         1.2650  -38.6390  -29.0020 C.3   189  THR189      0.1770
     67  OG1        1.6090  -38.4800  -30.3790 O.3   189  THR189     -0.2211
     68  CG2        1.8200  -39.9530  -28.5010 C.3   189  THR189      0.0375
     69  N         -4.2900  -39.2520  -26.8600 N.3   192  PHE192     -0.1227
     70  CA        -4.5010  -40.7070  -26.9060 C.3   192  PHE192      0.1736
     71  C         -4.0930  -41.3280  -25.5600 C.2   192  PHE192      0.2595
     72  O         -4.8450  -42.0950  -24.9480 O.2   192  PHE192     -0.2718
     73  CB        -3.7150  -41.3300  -28.0670 C.3   192  PHE192      0.0547
     74  CG        -3.9830  -42.7990  -28.2780 C.ar  192  PHE192     -0.0202
     75  CD1       -5.0680  -43.2240  -29.0320 C.ar  192  PHE192     -0.0042
     76  CD2       -3.1670  -43.7590  -27.7030 C.ar  192  PHE192     -0.0042
     77  CE1       -5.3210  -44.5740  -29.2170 C.ar  192  PHE192     -0.0003
     78  CE2       -3.4230  -45.1090  -27.8840 C.ar  192  PHE192     -0.0003
     79  CZ        -4.4920  -45.5130  -28.6460 C.ar  192  PHE192     -0.0000
     80  N         -2.8970  -40.9720  -25.1040 N.am  193  VAL193     -0.1980
     81  CA        -2.3500  -41.5090  -23.8630 C.3   193  VAL193      0.1595
     82  C         -3.2630  -41.1200  -22.6900 C.2   193  VAL193      0.2287
     83  O         -3.5590  -41.9510  -21.8440 O.2   193  VAL193     -0.2864
     84  CB        -0.8970  -41.0330  -23.6490 C.3   193  VAL193      0.0276
     85  CG1       -0.4110  -41.2790  -22.2270 C.3   193  VAL193      0.0022
     86  CG2        0.0570  -41.6570  -24.6560 C.3   193  VAL193      0.0022
     87  N         -6.1240  -43.2750  -22.4980 N.3   196  LYS196     -0.1231
     88  CA        -5.7410  -44.6310  -22.0590 C.3   196  LYS196      0.1693
     89  C         -5.5210  -44.6650  -20.5380 C.2   196  LYS196      0.2591
     90  O         -5.7900  -45.6800  -19.8940 O.2   196  LYS196     -0.2718
     91  CB        -4.5010  -45.1100  -22.8190 C.3   196  LYS196      0.0285
     92  CG        -4.7780  -45.6170  -24.2280 C.3   196  LYS196      0.0035
     93  CD        -5.3590  -47.0140  -24.2720 C.3   196  LYS196      0.0206
     94  CE        -6.0180  -47.3160  -25.6000 C.3   196  LYS196      0.1093
     95  NZ        -6.5940  -48.6790  -25.6230 N.3   196  LYS196     -0.1314
     96  N         -5.0480  -43.5660  -19.9660 N.am  197  LEU197     -0.1980
     97  CA        -4.8810  -43.4780  -18.5180 C.3   197  LEU197      0.1596
     98  C         -6.2600  -43.4720  -17.8380 C.2   197  LEU197      0.2287
     99  O         -6.4330  -44.1210  -16.7930 O.2   197  LEU197     -0.2864
    100  CB        -4.0680  -42.2270  -18.1750 C.3   197  LEU197      0.0297
    101  CG        -2.6580  -42.1730  -18.7650 C.3   197  LEU197      0.0022
    102  CD1       -1.9010  -40.9650  -18.2460 C.3   197  LEU197      0.0001
    103  CD2       -1.8770  -43.4420  -18.4750 C.3   197  LEU197      0.0001
    104  N         -7.2740  -47.0960  -17.8390 N.3   200  GLU200     -0.1245
    105  CA        -6.5620  -47.8230  -16.7730 C.3   200  GLU200      0.1567
    106  C         -7.1680  -47.4800  -15.4020 C.2   200  GLU200      0.2260
    107  O         -7.2330  -48.3330  -14.5190 O.2   200  GLU200     -0.2867
    108  CB        -5.0700  -47.4860  -16.8140 C.3   200  GLU200      0.0388
    109  CG        -4.2140  -48.3070  -15.8660 C.3   200  GLU200      0.1160
    110  CD        -2.8050  -47.7680  -15.6490 C.2   200  GLU200      0.3649
    111  OE1       -2.2900  -47.0640  -16.5480 O.co2 200  GLU200     -0.2457
    112  OE2       -2.2220  -48.0490  -14.5840 O.co2 200  GLU200     -0.2457
@<TRIPOS>BOND
     1    14    13    2
     2    13    12    1
     3    11    12    1
     4     4     3    2
     5    12    15    1
     6     3     2    1
     7     2     1    1
     8     2     5    1
     9    15    16    1
    10     8     6   ar
    11     8    10   ar
    12     5     6    1
    13    67    66    1
    14    16    17    1
    15    16    18    1
    16     6     7   ar
    17    10     9   ar
    18    62    63    1
    19    77    75   ar
    20    77    79   ar
    21     7     9   ar
    22    75    74   ar
    23    66    63    1
    24    66    68    1
    25    63    64    1
    26    79    78   ar
    27    74    73    1
    28    74    76   ar
    29    73    70    1
    30    78    76   ar
    31    64    65    2
    32    70    69    1
    33    70    71    1
    34    60    59    1
    35    57    56    2
    36    95    94    1
    37    94    93    1
    38    71    80   am
    39    71    72    2
    40    59    61    1
    41    59    58    1
    42    80    81    1
    43    56    55    1
    44    86    84    1
    45    55    58    1
    46    55    54    1
    47    93    92    1
    48    92    91    1
    49    81    84    1
    50    81    82    1
    51    84    85    1
    52    91    88    1
    53    82    83    2
    54    87    88    1
    55    88    89    1
    56    49    48    2
    57    42    41    2
    58    53    51    1
    59    45    43    1
    60    89    96   am
    61    89    90    2
    62    48    47    1
    63    47    46    1
    64    47    50    1
    65    96    97    1
    66    41    46   am
    67    41    40    1
    68    51    50    1
    69    51    52    1
    70    43    40    1
    71    43    44    1
    72    40    39    1
    73   101   103    1
    74   101   102    1
    75   101   100    1
    76    97   100    1
    77    97    98    1
    78   104   105    1
    79    98    99    2
    80    37    36   ar
    81    36    38   ar
    82    36    35    1
    83    33    32    2
    84   108   105    1
    85   108   109    1
    86   105   106    1
    87   111   110   ar
    88    35    34    1
    89    34    31    1
    90   109   110    1
    91    32    31    1
    92   110   112   ar
    93    31    30    1
    94    29    27    1
    95   106   107    2
    96    27    26    2
    97    27    28    1
    98    30    21   am
    99    26    25    1
   100    22    21    2
   101    21    20    1
   102    25    24    1
   103    24    23    1
   104    23    20    1
   105    20    19    1
