@<TRIPOS>MOLECULE
tmp/6fkuB07.pdb
 95 89 0 0 0
SMALL
GASTEIGER

@<TRIPOS>ATOM
      1  N        -55.9550    4.2180  -20.4390 N.3     9  LEU9       -0.1245
      2  CA       -54.7190    4.9680  -20.2270 C.3     9  LEU9        0.1561
      3  C        -53.9560    5.1170  -21.5490 C.2     9  LEU9        0.2260
      4  O        -53.9240    4.1990  -22.3600 O.2     9  LEU9       -0.2867
      5  CB       -53.8690    4.2480  -19.1790 C.3     9  LEU9        0.0270
      6  CG       -54.4620    4.2260  -17.7710 C.3     9  LEU9        0.0019
      7  CD1      -55.1750    2.9050  -17.4980 C.3     9  LEU9        0.0001
      8  CD2      -53.3760    4.4810  -16.7300 C.3     9  LEU9        0.0001
      9  N        -48.7280   -2.2410   -0.9700 N.3    84  ARG84      -0.1231
     10  CA       -49.7300   -1.1780   -0.9820 C.3    84  ARG84       0.1694
     11  C        -50.5980   -1.2980   -2.2390 C.2    84  ARG84       0.2591
     12  O        -51.8060   -1.1330   -2.1780 O.2    84  ARG84      -0.2718
     13  CB       -49.0430    0.1900   -0.9330 C.3    84  ARG84       0.0321
     14  CG       -49.9870    1.3810   -0.8610 C.3    84  ARG84       0.0489
     15  CD       -49.2230    2.6840   -1.0450 C.3    84  ARG84       0.2205
     16  NE       -48.8340    2.9170   -2.4400 N.pl3  84  ARG84      -0.0865
     17  CZ       -47.6800    3.4450   -2.8280 C.cat  84  ARG84       0.5346
     18  NH1      -46.7650    3.7620   -1.9290 N.pl3  84  ARG84       0.1354
     19  NH2      -47.4350    3.6370   -4.1100 N.pl3  84  ARG84       0.1354
     20  N        -49.9760   -1.6100   -3.3680 N.am   85  GLU85      -0.1979
     21  CA       -50.6630   -1.5600   -4.6570 C.3    85  GLU85       0.1602
     22  C        -51.2680   -2.9210   -5.0350 C.2    85  GLU85       0.2287
     23  O        -51.8330   -3.0340   -6.1150 O.2    85  GLU85      -0.2864
     24  CB       -49.6810   -1.0830   -5.7290 C.3    85  GLU85       0.0415
     25  CG       -49.2780    0.3710   -5.5650 C.3    85  GLU85       0.1163
     26  CD       -50.4370    1.3490   -5.5440 C.2    85  GLU85       0.3649
     27  OE1      -51.5000    1.0160   -6.1050 O.co2  85  GLU85      -0.2457
     28  OE2      -50.2780    2.4340   -4.9600 O.co2  85  GLU85      -0.2457
     29  N        -54.9340   -2.9530   -6.3670 N.3    88  THR88      -0.1203
     30  CA       -54.9710   -2.1960   -7.6250 C.3    88  THR88       0.1994
     31  C        -54.3610   -3.0070   -8.7790 C.2    88  THR88       0.2617
     32  O        -54.9200   -3.0650   -9.8650 O.2    88  THR88      -0.2717
     33  CB       -54.2180   -0.8670   -7.4800 C.3    88  THR88       0.1784
     34  OG1      -54.9210   -0.1260   -6.4890 O.3    88  THR88      -0.2211
     35  CG2      -54.1360   -0.0550   -8.7540 C.3    88  THR88       0.0376
     36  N        -53.1870   -3.5830   -8.5590 N.am   89  LEU89      -0.1979
     37  CA       -52.5170   -4.3580   -9.6000 C.3    89  LEU89       0.1596
     38  C        -53.3420   -5.6120   -9.9160 C.2    89  LEU89       0.2287
     39  O        -53.4000   -6.0380  -11.0610 O.2    89  LEU89      -0.2864
     40  CB       -51.1020   -4.7210   -9.1350 C.3    89  LEU89       0.0297
     41  CG       -50.0860   -3.5790   -9.1810 C.3    89  LEU89       0.0022
     42  CD1      -48.8170   -3.9470   -8.4260 C.3    89  LEU89       0.0001
     43  CD2      -49.7530   -3.1980  -10.6140 C.3    89  LEU89       0.0001
     44  N        -56.3040   -4.4500  -12.1260 N.3    92  LEU92      -0.1245
     45  CA       -55.8050   -4.1010  -13.4550 C.3    92  LEU92       0.1561
     46  C        -55.4150   -5.3670  -14.2390 C.2    92  LEU92       0.2260
     47  O        -55.5840   -5.4130  -15.4530 O.2    92  LEU92      -0.2867
     48  CB       -54.6050   -3.1600  -13.3100 C.3    92  LEU92       0.0270
     49  CG       -53.8930   -2.8100  -14.6130 C.3    92  LEU92       0.0019
     50  CD1      -54.8460   -2.1150  -15.5630 C.3    92  LEU92       0.0001
     51  CD2      -52.6700   -1.9410  -14.3590 C.3    92  LEU92       0.0001
     52  N        -45.9570   -0.6750  -17.5460 N.3   189  PHE189     -0.1227
     53  CA       -45.7320    0.7590  -17.3010 C.3   189  PHE189      0.1736
     54  C        -45.8160    1.0500  -15.7940 C.2   189  PHE189      0.2595
     55  O        -44.9270    1.6830  -15.2170 O.2   189  PHE189     -0.2718
     56  CB       -46.7470    1.6110  -18.0780 C.3   189  PHE189      0.0547
     57  CG       -46.5120    3.0990  -17.9850 C.ar  189  PHE189     -0.0202
     58  CD1      -45.6000    3.7230  -18.8230 C.ar  189  PHE189     -0.0042
     59  CD2      -47.1780    3.8680  -17.0390 C.ar  189  PHE189     -0.0042
     60  CE1      -45.3640    5.0870  -18.7210 C.ar  189  PHE189     -0.0003
     61  CE2      -46.9470    5.2310  -16.9450 C.ar  189  PHE189     -0.0003
     62  CZ       -46.0320    5.8370  -17.7790 C.ar  189  PHE189     -0.0000
     63  N        -46.8850    0.5730  -15.1700 N.am  190  VAL190     -0.1980
     64  CA       -47.1270    0.8080  -13.7540 C.3   190  VAL190      0.1595
     65  C        -45.9810    0.1950  -12.9310 C.2   190  VAL190      0.2287
     66  O        -45.4720    0.8320  -12.0070 O.2   190  VAL190     -0.2864
     67  CB       -48.4990    0.2500  -13.3320 C.3   190  VAL190      0.0276
     68  CG1      -48.6430    0.1750  -11.8210 C.3   190  VAL190      0.0022
     69  CG2      -49.6380    1.0540  -13.9410 C.3   190  VAL190      0.0022
     70  N        -43.0920    2.3300  -12.9350 N.3   193  LYS193     -0.1231
     71  CA       -43.3230    3.5460  -12.1340 C.3   193  LYS193      0.1693
     72  C        -43.1670    3.2390  -10.6380 C.2   193  LYS193      0.2591
     73  O        -42.7140    4.0940   -9.8710 O.2   193  LYS193     -0.2718
     74  CB       -44.7050    4.1340  -12.4450 C.3   193  LYS193      0.0285
     75  CG       -44.7680    4.9720  -13.7110 C.3   193  LYS193      0.0035
     76  CD       -44.2640    6.3820  -13.5000 C.3   193  LYS193      0.0206
     77  CE       -43.9590    7.0950  -14.7980 C.3   193  LYS193      0.1093
     78  NZ       -43.3790    8.4330  -14.5490 N.3   193  LYS193     -0.1314
     79  N        -43.5370    2.0310  -10.2250 N.am  194  LEU194     -0.1980
     80  CA       -43.3630    1.6190   -8.8350 C.3   194  LEU194      0.1596
     81  C        -41.8640    1.4840   -8.5230 C.2   194  LEU194      0.2287
     82  O        -41.4280    1.8810   -7.4380 O.2   194  LEU194     -0.2864
     83  CB       -44.1200    0.3100   -8.5930 C.3   194  LEU194      0.0297
     84  CG       -45.6300    0.3660   -8.8340 C.3   194  LEU194      0.0022
     85  CD1      -46.3000   -0.9370   -8.4260 C.3   194  LEU194      0.0001
     86  CD2      -46.2640    1.5360   -8.0970 C.3   194  LEU194      0.0001
     87  N        -40.7550    5.0320   -7.9490 N.3   197  GLU197     -0.1245
     88  CA       -41.1820    5.4680   -6.6060 C.3   197  GLU197      0.1567
     89  C        -40.2850    4.8350   -5.5310 C.2   197  GLU197      0.2260
     90  O        -39.9920    5.4640   -4.5230 O.2   197  GLU197     -0.2867
     91  CB       -42.6520    5.1150   -6.3620 C.3   197  GLU197      0.0388
     92  CG       -43.2310    5.6990   -5.0830 C.3   197  GLU197      0.1160
     93  CD       -44.5710    5.1160   -4.6590 C.2   197  GLU197      0.3649
     94  OE1      -45.3110    4.6420   -5.5370 O.co2 197  GLU197     -0.2457
     95  OE2      -44.8760    5.1330   -3.4490 O.co2 197  GLU197     -0.2457
@<TRIPOS>BOND
     1     4     3    2
     2     3     2    1
     3     1     2    1
     4     2     5    1
     5     5     6    1
     6    58    60   ar
     7    58    57   ar
     8    60    62   ar
     9    56    57    1
    10    56    53    1
    11    57    59   ar
    12    62    61   ar
    13     6     7    1
    14     6     8    1
    15    52    53    1
    16    53    54    1
    17    59    61   ar
    18    54    55    2
    19    54    63   am
    20    50    49    1
    21    47    46    2
    22    63    64    1
    23    77    78    1
    24    77    76    1
    25    49    51    1
    26    49    48    1
    27    46    45    1
    28    69    67    1
    29    64    67    1
    30    64    65    1
    31    75    76    1
    32    75    74    1
    33    45    48    1
    34    45    44    1
    35    67    68    1
    36    70    71    1
    37    65    66    2
    38    74    71    1
    39    71    72    1
    40    39    38    2
    41    72    79   am
    42    72    73    2
    43    43    41    1
    44    79    80    1
    45    38    37    1
    46    32    31    2
    47    37    40    1
    48    37    36    1
    49    41    40    1
    50    41    42    1
    51    80    83    1
    52    80    81    1
    53    84    83    1
    54    84    85    1
    55    84    86    1
    56    31    36   am
    57    31    30    1
    58    35    33    1
    59    81    82    2
    60    87    88    1
    61    30    33    1
    62    30    29    1
    63    33    34    1
    64    88    91    1
    65    88    89    1
    66    91    92    1
    67    23    22    2
    68    27    26   ar
    69    24    25    1
    70    24    21    1
    71    25    26    1
    72    26    28   ar
    73    94    93   ar
    74    89    90    2
    75    92    93    1
    76    22    21    1
    77    93    95   ar
    78    21    20    1
    79    19    17    1
    80    20    11   am
    81    17    16    2
    82    17    18    1
    83    16    15    1
    84    11    12    2
    85    11    10    1
    86    15    14    1
    87    10     9    1
    88    10    13    1
    89    13    14    1
