@<TRIPOS>MOLECULE
tmp/6fkuB04.pdb
 79 76 0 0 0
SMALL
GASTEIGER

@<TRIPOS>ATOM
      1  N        -26.5710    2.0670  -20.5720 N.3    57  ARG57      -0.1245
      2  CA       -25.1060    2.0220  -20.4210 C.3    57  ARG57       0.1563
      3  C        -24.6270    3.1950  -19.5500 C.2    57  ARG57       0.2260
      4  O        -23.7340    3.0390  -18.7120 O.2    57  ARG57      -0.2867
      5  CB       -24.4230    2.0340  -21.7920 C.3    57  ARG57       0.0307
      6  CG       -22.9090    1.8990  -21.7300 C.3    57  ARG57       0.0489
      7  CD       -22.2170    1.8640  -23.0840 C.3    57  ARG57       0.2205
      8  NE       -21.6430    0.5490  -23.3530 N.pl3  57  ARG57      -0.0865
      9  CZ       -20.4340    0.1390  -22.9580 C.cat  57  ARG57       0.5346
     10  NH1      -20.1110   -1.1420  -23.0410 N.pl3  57  ARG57       0.1354
     11  NH2      -19.5550    1.0050  -22.4820 N.pl3  57  ARG57       0.1354
     12  N        -25.7290    2.7060  -15.8030 N.3    60  PHE60      -0.1227
     13  CA       -25.0520    1.5460  -15.2190 C.3    60  PHE60       0.1736
     14  C        -23.8040    1.9740  -14.4320 C.2    60  PHE60       0.2595
     15  O        -23.4570    1.3390  -13.4270 O.2    60  PHE60      -0.2718
     16  CB       -24.6640    0.5430  -16.3070 C.3    60  PHE60       0.0547
     17  CG       -23.6400   -0.4830  -15.8880 C.ar   60  PHE60      -0.0202
     18  CD1      -24.0140   -1.6050  -15.1650 C.ar   60  PHE60      -0.0042
     19  CD2      -22.2980   -0.3200  -16.2050 C.ar   60  PHE60      -0.0042
     20  CE1      -23.0720   -2.5440  -14.7800 C.ar   60  PHE60      -0.0003
     21  CE2      -21.3560   -1.2630  -15.8190 C.ar   60  PHE60      -0.0003
     22  CZ       -21.7470   -2.3750  -15.1120 C.ar   60  PHE60      -0.0000
     23  N        -23.1260    3.0240  -14.8990 N.am   61  ALA61      -0.1980
     24  CA       -21.8740    3.4630  -14.2780 C.3    61  ALA61       0.1597
     25  C        -22.0930    3.7930  -12.7980 C.2    61  ALA61       0.2287
     26  O        -21.3320    3.3360  -11.9640 O.2    61  ALA61      -0.2864
     27  CB       -21.3220    4.6490  -15.0250 C.3    61  ALA61       0.0319
     28  N        -23.9650    0.4850  -10.7310 N.3    64  SER64      -0.1202
     29  CA       -23.0520   -0.6040  -10.3820 C.3    64  SER64       0.2020
     30  C        -22.1360   -0.1970   -9.2190 C.2    64  SER64       0.2618
     31  O        -21.6840   -1.0600   -8.4830 O.2    64  SER64      -0.2717
     32  CB       -22.2420   -1.0360  -11.5700 C.3    64  SER64       0.2103
     33  OG       -21.4090    0.0230  -12.0220 O.3    64  SER64      -0.2182
     34  N        -21.8590    1.1030   -9.0700 N.am   65  ARG65      -0.1979
     35  CA       -21.0000    1.6080   -7.9880 C.3    65  ARG65       0.1597
     36  C        -21.8470    1.9670   -6.7620 C.2    65  ARG65       0.2287
     37  O        -21.3020    2.3770   -5.7450 O.2    65  ARG65      -0.2864
     38  CB       -20.1790    2.8190   -8.4490 C.3    65  ARG65       0.0334
     39  CG       -19.0960    2.4810   -9.4710 C.3    65  ARG65       0.0492
     40  CD       -17.9700    3.5010   -9.5960 C.3    65  ARG65       0.2205
     41  NE       -18.3420    4.7760  -10.2080 N.pl3  65  ARG65      -0.0865
     42  CZ       -18.2340    5.0710  -11.5030 C.cat  65  ARG65       0.5346
     43  NH1      -17.6970    4.2040  -12.3460 N.pl3  65  ARG65       0.1354
     44  NH2      -18.6750    6.2350  -11.9500 N.pl3  65  ARG65       0.1354
     45  N        -21.3730   -7.1990  -11.8650 N.3   145  PRO145     -0.2102
     46  CA       -22.4700   -7.0220  -12.7930 C.3   145  PRO145      0.1504
     47  C        -21.9830   -7.2020  -14.2360 C.2   145  PRO145      0.2576
     48  O        -20.8050   -7.0110  -14.5230 O.2   145  PRO145     -0.2718
     49  CB       -22.9940   -5.6020  -12.5480 C.3   145  PRO145      0.0282
     50  CG       -21.8330   -4.8750  -11.9180 C.3   145  PRO145      0.0208
     51  CD       -21.0630   -5.9440  -11.1740 C.3   145  PRO145      0.0893
     52  N        -22.8980   -7.5930  -15.1060 N.am  146  LEU146     -0.1966
     53  CA       -22.5690   -7.8940  -16.5030 C.3   146  LEU146      0.1728
     54  C        -22.6070   -6.6110  -17.3420 C.2   146  LEU146      0.2617
     55  O        -21.7650   -6.4240  -18.2170 O.2   146  LEU146     -0.2715
     56  CB       -23.5590   -8.9300  -17.0440 C.3   146  LEU146      0.0311
     57  CG       -23.2890  -10.3830  -16.6470 C.3   146  LEU146      0.0022
     58  CD1      -24.4970  -11.2480  -16.9490 C.3   146  LEU146      0.0001
     59  CD2      -22.0720  -10.9330  -17.3660 C.3   146  LEU146      0.0001
     60  N        -23.5830   -5.7430  -17.0930 N.am  147  GLY147     -0.1940
     61  CA       -23.7010   -4.4850  -17.8390 C.3   147  GLY147      0.2014
     62  C        -25.1510   -4.1270  -18.1260 C.2   147  GLY147      0.2638
     63  O        -25.9350   -3.8780  -17.2000 O.2   147  GLY147     -0.2714
     64  N        -25.5010   -4.0990  -19.4090 N.am  148  VAL148     -0.1977
     65  CA       -26.8500   -3.7700  -19.8380 C.3   148  VAL148      0.1596
     66  C        -27.5470   -5.0750  -20.2140 C.2   148  VAL148      0.2287
     67  O        -27.0510   -5.8310  -21.0520 O.2   148  VAL148     -0.2864
     68  CB       -26.8720   -2.7730  -21.0170 C.3   148  VAL148      0.0276
     69  CG1      -28.2900   -2.4650  -21.4760 C.3   148  VAL148      0.0022
     70  CG2      -26.1490   -1.4830  -20.6720 C.3   148  VAL148      0.0022
     71  N        -24.9840   -6.8600  -22.7010 N.3   230  GLN230     -0.1245
     72  CA       -24.0120   -7.7910  -22.1240 C.3   230  GLN230      0.1566
     73  C        -24.7290   -9.0410  -21.5970 C.2   230  GLN230      0.2260
     74  O        -24.0810  -10.0100  -21.2210 O.2   230  GLN230     -0.2867
     75  CB       -23.1950   -7.0970  -21.0400 C.3   230  GLN230      0.0367
     76  CG       -22.1570   -6.1370  -21.6100 C.3   230  GLN230      0.0905
     77  CD       -22.7740   -4.8920  -22.2050 C.2   230  GLN230      0.2608
     78  OE1      -23.4920   -4.1560  -21.5330 O.2   230  GLN230     -0.2717
     79  NE2      -22.5080   -4.6540  -23.4790 N.am  230  GLN230     -0.0878
@<TRIPOS>BOND
     1    79    77   am
     2     8     7    1
     3     8     9    2
     4     7     6    1
     5    10     9    1
     6     9    11    1
     7    71    72    1
     8    77    76    1
     9    77    78    2
    10    72    73    1
    11    72    75    1
    12     5     6    1
    13     5     2    1
    14    76    75    1
    15    73    74    2
    16    69    68    1
    17    67    66    2
    18    68    70    1
    19    68    65    1
    20     1     2    1
    21     2     3    1
    22    66    65    1
    23    65    64    1
    24     3     4    2
    25    64    62   am
    26    55    54    2
    27    62    61    1
    28    62    63    2
    29    61    60    1
    30    59    57    1
    31    54    60   am
    32    54    53    1
    33    56    57    1
    34    56    53    1
    35    58    57    1
    36    53    52    1
    37    16    17    1
    38    16    13    1
    39    19    17   ar
    40    19    21   ar
    41    17    18   ar
    42    21    22   ar
    43    12    13    1
    44    13    14    1
    45    18    20   ar
    46    22    20   ar
    47    52    47   am
    48    27    24    1
    49    23    14   am
    50    23    24    1
    51    48    47    2
    52    14    15    2
    53    24    25    1
    54    47    46    1
    55    25    26    2
    56    46    49    1
    57    46    45    1
    58    49    50    1
    59    43    42    1
    60    33    32    1
    61    44    42    1
    62    50    51    1
    63    45    51    1
    64    32    29    1
    65    42    41    2
    66    28    29    1
    67    29    30    1
    68    41    40    1
    69    40    39    1
    70    39    38    1
    71    30    34   am
    72    30    31    2
    73    34    35    1
    74    38    35    1
    75    35    36    1
    76    36    37    2
