@<TRIPOS>MOLECULE
tmp/6fkuA05.pdb
 83 80 0 0 0
SMALL
GASTEIGER

@<TRIPOS>ATOM
      1  N        -26.7650  -34.8140  -14.3870 N.3   148  PRO148     -0.2102
      2  CA       -25.9020  -34.7490  -15.5530 C.3   148  PRO148      0.1504
      3  C        -26.6980  -34.2620  -16.7680 C.2   148  PRO148      0.2575
      4  O        -27.9220  -34.4320  -16.8210 O.2   148  PRO148     -0.2718
      5  CB       -25.3740  -36.1710  -15.7590 C.3   148  PRO148      0.0282
      6  CG       -26.3820  -37.0430  -15.0680 C.3   148  PRO148      0.0208
      7  CD       -26.9200  -36.1940  -13.9330 C.3   148  PRO148      0.0893
      8  N        -25.9960  -33.6420  -17.7100 N.am  149  LEU149     -0.1980
      9  CA       -26.6260  -33.0500  -18.8780 C.3   149  LEU149      0.1596
     10  C        -26.8240  -34.1090  -19.9700 C.2   149  LEU149      0.2287
     11  O        -27.8570  -34.1150  -20.6340 O.2   149  LEU149     -0.2864
     12  CB       -25.7520  -31.8970  -19.3760 C.3   149  LEU149      0.0297
     13  CG       -25.9410  -30.5600  -18.6580 C.3   149  LEU149      0.0022
     14  CD1      -24.8130  -29.5990  -19.0190 C.3   149  LEU149      0.0001
     15  CD2      -27.2930  -29.9390  -19.0010 C.3   149  LEU149      0.0001
     16  N        -24.3280  -30.7170  -33.2810 N.3   227  MET227     -0.1245
     17  CA       -25.2620  -30.1190  -32.3130 C.3   227  MET227      0.1570
     18  C        -26.6350  -29.9320  -32.9710 C.2   227  MET227      0.2261
     19  O        -27.6630  -30.0620  -32.3070 O.2   227  MET227     -0.2867
     20  CB       -24.7590  -28.7750  -31.7770 C.3   227  MET227      0.0387
     21  CG       -23.6720  -28.9140  -30.7060 C.3   227  MET227      0.0595
     22  SD       -23.3090  -27.3510  -29.8710 S.3   227  MET227     -0.1393
     23  CE       -22.0330  -26.6760  -30.9330 C.3   227  MET227      0.0692
     24  N        -28.9100  -32.9860  -32.4660 N.3   230  GLY230     -0.1225
     25  CA       -29.3930  -33.3490  -31.1230 C.3   230  GLY230      0.1811
     26  C        -28.4780  -34.3210  -30.3910 C.2   230  GLY230      0.2280
     27  O        -28.8830  -34.8890  -29.3820 O.2   230  GLY230     -0.2866
     28  N        -25.5960  -33.7090  -28.8260 N.3   232  PHE232     -0.1227
     29  CA       -24.8570  -33.1490  -27.7030 C.3   232  PHE232      0.1736
     30  C        -25.7860  -32.3300  -26.8090 C.2   232  PHE232      0.2595
     31  O        -26.5540  -31.5000  -27.2940 O.2   232  PHE232     -0.2718
     32  CB       -23.7160  -32.2590  -28.1920 C.3   232  PHE232      0.0547
     33  CG       -22.5960  -32.9990  -28.8690 C.ar  232  PHE232     -0.0202
     34  CD1      -21.8060  -33.8880  -28.1670 C.ar  232  PHE232     -0.0042
     35  CD2      -22.3170  -32.7930  -30.2060 C.ar  232  PHE232     -0.0042
     36  CE1      -20.7730  -34.5650  -28.7940 C.ar  232  PHE232     -0.0003
     37  CE2      -21.2720  -33.4560  -30.8260 C.ar  232  PHE232     -0.0003
     38  CZ       -20.5040  -34.3430  -30.1220 C.ar  232  PHE232     -0.0000
     39  N        -25.6930  -32.5710  -25.5050 N.am  233  GLN233     -0.1979
     40  CA       -26.4770  -31.8130  -24.5340 C.3   233  GLN233      0.1601
     41  C        -25.6130  -30.7110  -23.9140 C.2   233  GLN233      0.2287
     42  O        -26.1090  -29.9010  -23.1520 O.2   233  GLN233     -0.2864
     43  CB       -27.0430  -32.7530  -23.4710 C.3   233  GLN233      0.0394
     44  CG       -28.2140  -33.5800  -23.9770 C.3   233  GLN233      0.0908
     45  CD       -27.7930  -34.6420  -24.9640 C.2   233  GLN233      0.2608
     46  OE1      -26.9660  -35.5030  -24.6650 O.2   233  GLN233     -0.2717
     47  NE2      -28.3610  -34.5720  -26.1580 N.am  233  GLN233     -0.0878
     48  N        -29.4890  -24.5480  -30.5930 N.3   254  ASN254     -0.1225
     49  CA       -29.8370  -25.8810  -30.0770 C.3   254  ASN254      0.1785
     50  C        -30.0550  -25.8450  -28.5560 C.2   254  ASN254      0.2597
     51  O        -30.0500  -26.8910  -27.9060 O.2   254  ASN254     -0.2718
     52  CB       -28.7830  -26.9150  -30.4730 C.3   254  ASN254      0.1169
     53  CG       -28.7670  -27.1570  -31.9620 C.2   254  ASN254      0.2627
     54  OD1      -29.6920  -27.7650  -32.4850 O.2   254  ASN254     -0.2716
     55  ND2      -27.7390  -26.6760  -32.6500 N.am  254  ASN254     -0.0877
     56  N        -30.2320  -24.6510  -27.9920 N.am  255  LEU255     -0.1966
     57  CA       -30.5340  -24.4630  -26.5590 C.3   255  LEU255      0.1728
     58  C        -29.4800  -25.1340  -25.6730 C.2   255  LEU255      0.2616
     59  O        -29.8000  -25.6400  -24.6050 O.2   255  LEU255     -0.2715
     60  CB       -31.9400  -24.9990  -26.2740 C.3   255  LEU255      0.0311
     61  CG       -33.0480  -24.3580  -27.1090 C.3   255  LEU255      0.0022
     62  CD1      -34.4080  -24.9280  -26.7270 C.3   255  LEU255      0.0001
     63  CD2      -33.0370  -22.8370  -26.9630 C.3   255  LEU255      0.0001
     64  N        -28.2310  -25.1000  -26.1200 N.am  256  ILE256     -0.1977
     65  CA       -27.1030  -25.5330  -25.3210 C.3   256  ILE256      0.1596
     66  C        -26.3990  -24.2850  -24.7950 C.2   256  ILE256      0.2287
     67  O        -26.2550  -23.3070  -25.5010 O.2   256  ILE256     -0.2864
     68  CB       -26.1360  -26.4160  -26.1310 C.3   256  ILE256      0.0276
     69  CG1      -26.7720  -27.7570  -26.4900 C.3   256  ILE256      0.0022
     70  CG2      -24.8200  -26.6130  -25.4000 C.3   256  ILE256      0.0022
     71  CD1      -26.1140  -28.4100  -27.6820 C.3   256  ILE256      0.0001
     72  N        -27.4210  -29.7210  -14.5320 N.3   494  TYR494     -0.1241
     73  CA       -28.5720  -28.8290  -14.4810 C.3   494  TYR494      0.1605
     74  C        -29.2950  -29.0380  -13.1540 C.2   494  TYR494      0.2264
     75  O        -29.1780  -30.1010  -12.5310 O.2   494  TYR494     -0.2867
     76  CB       -29.5150  -29.0470  -15.6680 C.3   494  TYR494      0.0534
     77  CG       -30.3000  -30.3370  -15.6770 C.ar  494  TYR494     -0.0201
     78  CD1      -31.5030  -30.4490  -14.9980 C.ar  494  TYR494     -0.0009
     79  CD2      -29.8810  -31.4300  -16.4250 C.ar  494  TYR494     -0.0009
     80  CE1      -32.2590  -31.6110  -15.0430 C.ar  494  TYR494      0.0417
     81  CE2      -30.6210  -32.6030  -16.4750 C.ar  494  TYR494      0.0417
     82  CZ       -31.8190  -32.6930  -15.7870 C.ar  494  TYR494      0.1957
     83  OH       -32.5400  -33.8550  -15.8090 O.3   494  TYR494     -0.2866
@<TRIPOS>BOND
     1    16    17    1
     2    18    17    1
     3    18    19    2
     4    55    53   am
     5    54    53    2
     6    24    25    1
     7    17    20    1
     8    53    52    1
     9    20    21    1
    10    25    26    1
    11    23    22    1
    12    37    35   ar
    13    37    38   ar
    14    21    22    1
    15    48    49    1
    16    52    49    1
    17    26    27    2
    18    35    33   ar
    19    38    36   ar
    20    49    50    1
    21    33    32    1
    22    33    34   ar
    23    28    29    1
    24    36    34   ar
    25    50    56   am
    26    50    51    2
    27    32    29    1
    28    56    57    1
    29    29    30    1
    30    71    69    1
    31    31    30    2
    32    61    63    1
    33    61    62    1
    34    61    60    1
    35    30    39   am
    36    57    60    1
    37    57    58    1
    38    69    68    1
    39    47    45   am
    40    68    70    1
    41    68    65    1
    42    64    58   am
    43    64    65    1
    44    58    59    2
    45    39    40    1
    46    67    66    2
    47    65    66    1
    48    45    46    2
    49    45    44    1
    50    40    41    1
    51    40    43    1
    52    44    43    1
    53    41    42    2
    54    11    10    2
    55    10     9    1
    56    12     9    1
    57    12    13    1
    58    14    13    1
    59    15    13    1
    60     9     8    1
    61     8     3   am
    62     4     3    2
    63     3     2    1
    64    81    79   ar
    65    81    82   ar
    66    79    77   ar
    67    83    82    1
    68    82    80   ar
    69     5     2    1
    70     5     6    1
    71    77    76    1
    72    77    78   ar
    73    76    73    1
    74     2     1    1
    75     6     7    1
    76    80    78   ar
    77    72    73    1
    78    73    74    1
    79     1     7    1
    80    74    75    2
