@<TRIPOS>MOLECULE
tmp/6fkvB02.pdb
 84 80 0 0 0
SMALL
GASTEIGER

@<TRIPOS>ATOM
      1  N         10.2660  -27.5720  -17.5680 N.3   102  LYS102     -0.1231
      2  CA         9.6440  -27.0260  -16.3240 C.3   102  LYS102      0.1693
      3  C          8.1530  -26.7690  -16.5910 C.2   102  LYS102      0.2591
      4  O          7.2990  -27.3070  -15.8970 O.2   102  LYS102     -0.2718
      5  CB        10.3340  -25.7570  -15.7960 C.3   102  LYS102      0.0285
      6  CG        10.5040  -25.7110  -14.2810 C.3   102  LYS102      0.0035
      7  CD        10.1620  -24.3830  -13.6150 C.3   102  LYS102      0.0206
      8  CE         8.6910  -24.0180  -13.6760 C.3   102  LYS102      0.1093
      9  NZ         8.4560  -22.8550  -14.5650 N.3   102  LYS102     -0.1314
     10  N          7.8420  -26.0080  -17.6340 N.am  103  GLU103     -0.1979
     11  CA         6.4460  -25.6800  -17.9760 C.3   103  GLU103      0.1602
     12  C          5.6050  -26.9400  -18.2110 C.2   103  GLU103      0.2287
     13  O          4.4060  -26.9140  -17.9650 O.2   103  GLU103     -0.2864
     14  CB         6.3730  -24.8240  -19.2410 C.3   103  GLU103      0.0415
     15  CG         6.8790  -23.4040  -19.0490 C.3   103  GLU103      0.1163
     16  CD         6.5050  -22.4920  -20.1970 C.2   103  GLU103      0.3649
     17  OE1        5.2930  -22.2840  -20.3690 O.co2 103  GLU103     -0.2457
     18  OE2        7.4200  -22.0430  -20.9400 O.co2 103  GLU103     -0.2457
     19  N          4.6770  -28.7800  -15.1300 N.3   106  GLY106     -0.1210
     20  CA         3.6100  -27.9510  -14.5570 C.3   106  GLY106      0.1956
     21  C          2.2550  -28.2560  -15.1670 C.2   106  GLY106      0.2611
     22  O          1.2580  -28.3600  -14.4610 O.2   106  GLY106     -0.2717
     23  N          2.2260  -28.3960  -16.4870 N.am  107  ASP107     -0.1973
     24  CA         1.0190  -28.7530  -17.2010 C.3   107  ASP107      0.1709
     25  C          0.4550  -30.0570  -16.6140 C.2   107  ASP107      0.2293
     26  O         -0.6880  -30.1040  -16.1500 O.2   107  ASP107     -0.2864
     27  CB         1.3580  -28.8940  -18.6910 C.3   107  ASP107      0.1436
     28  CG         0.1210  -28.9260  -19.6100 C.2   107  ASP107      0.3671
     29  OD1       -0.7400  -29.8310  -19.4780 O.co2 107  ASP107     -0.2456
     30  OD2        0.0480  -28.0670  -20.5220 O.co2 107  ASP107     -0.2456
     31  N         -1.1770  -29.7860  -13.2110 N.3   110  GLU110     -0.1245
     32  CA        -2.5050  -29.1920  -13.0660 C.3   110  GLU110      0.1567
     33  C         -3.6110  -30.2050  -13.3310 C.2   110  GLU110      0.2260
     34  O         -4.7230  -30.0680  -12.8070 O.2   110  GLU110     -0.2867
     35  CB        -2.6940  -28.0330  -14.0220 C.3   110  GLU110      0.0388
     36  CG        -2.2230  -26.7410  -13.4090 C.3   110  GLU110      0.1160
     37  CD        -2.9440  -25.5550  -13.9990 C.2   110  GLU110      0.3649
     38  OE1       -4.1650  -25.6620  -14.2060 O.co2 110  GLU110     -0.2457
     39  OE2       -2.2760  -24.5470  -14.2680 O.co2 110  GLU110     -0.2457
     40  N         -1.6740  -26.1320  -24.1340 N.3   157  PHE157     -0.1241
     41  CA        -1.7400  -26.8070  -22.7970 C.3   157  PHE157      0.1605
     42  C         -2.3930  -28.1890  -22.9490 C.2   157  PHE157      0.2264
     43  O         -3.4960  -28.4200  -22.4910 O.2   157  PHE157     -0.2867
     44  CB        -2.4810  -25.9550  -21.7560 C.3   157  PHE157      0.0534
     45  CG        -1.7060  -24.7620  -21.2540 C.ar  157  PHE157     -0.0203
     46  CD1       -1.5140  -23.6570  -22.0640 C.ar  157  PHE157     -0.0042
     47  CD2       -1.1570  -24.7540  -19.9820 C.ar  157  PHE157     -0.0042
     48  CE1       -0.7900  -22.5650  -21.6150 C.ar  157  PHE157     -0.0003
     49  CE2       -0.4420  -23.6550  -19.5290 C.ar  157  PHE157     -0.0003
     50  CZ        -0.2510  -22.5660  -20.3480 C.ar  157  PHE157     -0.0000
     51  N          8.0400  -12.5390  -17.7520 N.3   282  TRP282     -0.1241
     52  CA         7.4660  -13.8930  -17.6980 C.3   282  TRP282      0.1605
     53  C          6.0680  -13.9180  -18.3390 C.2   282  TRP282      0.2264
     54  O          5.7360  -14.8900  -18.9870 O.2   282  TRP282     -0.2867
     55  CB         7.4390  -14.4180  -16.2550 C.3   282  TRP282      0.0550
     56  CG         6.8750  -15.7930  -16.1200 C.ar  282  TRP282      0.0003
     57  CD1        5.7570  -16.1590  -15.4310 C.ar  282  TRP282      0.0946
     58  CD2        7.3890  -16.9910  -16.7250 C.ar  282  TRP282      0.0152
     59  NE1        5.5370  -17.5110  -15.5560 N.ar  282  TRP282     -0.2442
     60  CE2        6.5230  -18.0480  -16.3420 C.ar  282  TRP282      0.0810
     61  CE3        8.4810  -17.2750  -17.5590 C.ar  282  TRP282      0.0012
     62  CZ2        6.7310  -19.3680  -16.7570 C.ar  282  TRP282      0.0191
     63  CZ3        8.6840  -18.5840  -17.9670 C.ar  282  TRP282      0.0001
     64  CH2        7.8170  -19.6170  -17.5770 C.ar  282  TRP282      0.0015
     65  N          0.0650  -18.3090  -24.8550 N.3   291  ARG291     -0.1245
     66  CA        -0.9500  -18.5870  -23.8780 C.3   291  ARG291      0.1563
     67  C         -2.1350  -17.6340  -24.0650 C.2   291  ARG291      0.2260
     68  O         -1.9390  -16.4360  -24.3110 O.2   291  ARG291     -0.2867
     69  CB        -0.3720  -18.3650  -22.4840 C.3   291  ARG291      0.0307
     70  CG         0.8120  -19.2480  -22.1270 C.3   291  ARG291      0.0489
     71  CD         1.0580  -19.1100  -20.6420 C.3   291  ARG291      0.2205
     72  NE         2.0180  -20.0650  -20.1240 N.pl3 291  ARG291     -0.0865
     73  CZ         2.2290  -20.2880  -18.8350 C.cat 291  ARG291      0.5346
     74  NH1        1.3840  -19.8200  -17.9300 N.pl3 291  ARG291      0.1354
     75  NH2        3.3030  -20.9570  -18.4580 N.pl3 291  ARG291      0.1354
     76  N         -0.0450  -17.8010  -14.8870 N.3   461  GLY461     -0.1210
     77  CA         0.1400  -18.5160  -13.6240 C.3   461  GLY461      0.1956
     78  C         -1.0630  -18.4210  -12.6990 C.2   461  GLY461      0.2611
     79  O         -0.9050  -18.3060  -11.4730 O.2   461  GLY461     -0.2717
     80  N         -2.2670  -18.4920  -13.2630 N.am  462  ALA462     -0.1979
     81  CA        -3.4750  -18.6600  -12.4360 C.3   462  ALA462      0.1597
     82  C         -3.3130  -19.9370  -11.6070 C.2   462  ALA462      0.2287
     83  O         -2.6880  -20.8880  -12.0470 O.2   462  ALA462     -0.2864
     84  CB        -4.7300  -18.7030  -13.2810 C.3   462  ALA462      0.0319
@<TRIPOS>BOND
     1    65    66    1
     2    68    67    2
     3    40    41    1
     4    67    66    1
     5    66    69    1
     6    42    41    1
     7    42    43    2
     8    41    44    1
     9    69    70    1
    10    70    71    1
    11    46    48   ar
    12    46    45   ar
    13    44    45    1
    14    48    50   ar
    15    45    47   ar
    16    18    16   ar
    17    71    72    1
    18    30    28   ar
    19    17    16   ar
    20    50    49   ar
    21    16    15    1
    22    72    73    2
    23    47    49   ar
    24    28    29   ar
    25    28    27    1
    26    14    15    1
    27    14    11    1
    28    54    53    2
    29    73    75    1
    30    73    74    1
    31    27    24    1
    32    53    52    1
    33    12    11    1
    34    12    13    2
    35    11    10    1
    36    63    64   ar
    37    63    61   ar
    38    51    52    1
    39    52    55    1
    40    10     3   am
    41    64    62   ar
    42     1     2    1
    43    61    58   ar
    44    24    25    1
    45    24    23    1
    46    62    60   ar
    47    58    60   ar
    48    58    56   ar
    49    25    26    2
    50     3     2    1
    51     3     4    2
    52    23    21   am
    53    60    59   ar
    54     2     5    1
    55    55    56    1
    56    56    57   ar
    57     5     6    1
    58    59    57   ar
    59    21    20    1
    60    21    22    2
    61    19    20    1
    62    76    77    1
    63     9     8    1
    64     6     7    1
    65    39    37   ar
    66    38    37   ar
    67    35    36    1
    68    35    32    1
    69    37    36    1
    70     8     7    1
    71    77    78    1
    72    33    32    1
    73    33    34    2
    74    84    81    1
    75    80    78   am
    76    80    81    1
    77    31    32    1
    78    78    79    2
    79    81    82    1
    80    83    82    2
