@<TRIPOS>MOLECULE
tmp/6fkxC02.pdb
 87 85 0 0 0
SMALL
GASTEIGER

@<TRIPOS>ATOM
      1  N         51.7110   58.8880   43.8600 N.3   129  GLU129     -0.1245
      2  CA        52.9490   59.3650   44.4610 C.3   129  GLU129      0.1567
      3  C         53.8000   60.0310   43.3890 C.2   129  GLU129      0.2260
      4  O         54.1240   59.4070   42.3730 O.2   129  GLU129     -0.2867
      5  CB        53.7100   58.2060   45.1020 C.3   129  GLU129      0.0388
      6  CG        54.9200   58.6150   45.9210 C.3   129  GLU129      0.1160
      7  CD        55.6830   57.4180   46.4630 C.2   129  GLU129      0.3649
      8  OE1       55.7340   56.3790   45.7670 O.co2 129  GLU129     -0.2457
      9  OE2       56.2230   57.5140   47.5880 O.co2 129  GLU129     -0.2457
     10  N         65.2140   59.3240   47.5280 N.3   135  TRP135     -0.1227
     11  CA        64.1630   58.8710   48.4260 C.3   135  TRP135      0.1737
     12  C         64.7530   58.5180   49.7850 C.2   135  TRP135      0.2596
     13  O         65.7130   57.7420   49.8740 O.2   135  TRP135     -0.2718
     14  CB        63.4350   57.6590   47.8430 C.3   135  TRP135      0.0564
     15  CG        62.4790   56.9980   48.7900 C.ar  135  TRP135      0.0003
     16  CD1       61.5870   57.6130   49.6240 C.ar  135  TRP135      0.0946
     17  CD2       62.3130   55.5890   48.9960 C.ar  135  TRP135      0.0152
     18  NE1       60.8780   56.6740   50.3320 N.ar  135  TRP135     -0.2442
     19  CE2       61.3030   55.4240   49.9650 C.ar  135  TRP135      0.0810
     20  CE3       62.9190   54.4500   48.4530 C.ar  135  TRP135      0.0012
     21  CZ2       60.8890   54.1690   50.4050 C.ar  135  TRP135      0.0191
     22  CZ3       62.5040   53.2070   48.8860 C.ar  135  TRP135      0.0001
     23  CH2       61.5000   53.0750   49.8540 C.ar  135  TRP135      0.0015
     24  N         64.1820   59.1010   50.8320 N.am  136  SER136     -0.1938
     25  CA        64.4390   58.7090   52.2100 C.3   136  SER136      0.2055
     26  C         63.1100   58.3500   52.8590 C.2   136  SER136      0.2643
     27  O         62.1610   59.1390   52.8220 O.2   136  SER136     -0.2714
     28  CB        65.1210   59.8300   52.9970 C.3   136  SER136      0.2130
     29  OG        65.1320   59.5380   54.3860 O.3   136  SER136     -0.2179
     30  N         63.0460   57.1620   53.4500 N.am  137  MET137     -0.1962
     31  CA        61.8390   56.7420   54.1520 C.3   137  MET137      0.1736
     32  C         61.6810   57.4340   55.4990 C.2   137  MET137      0.2616
     33  O         60.6850   57.1970   56.1870 O.2   137  MET137     -0.2715
     34  CB        61.8710   55.2280   54.3580 C.3   137  MET137      0.0427
     35  CG        62.8220   54.8080   55.4670 C.3   137  MET137      0.0599
     36  SD        62.8420   53.0310   55.7390 S.3   137  MET137     -0.1393
     37  CE        62.3580   52.4530   54.1110 C.3   137  MET137      0.0692
     38  N         62.6400   58.2730   55.8940 N.am  138  ALA138     -0.1963
     39  CA        62.6250   58.8380   57.2390 C.3   138  ALA138      0.1728
     40  C         61.4970   59.8450   57.4340 C.2   138  ALA138      0.2617
     41  O         60.9850   59.9860   58.5500 O.2   138  ALA138     -0.2715
     42  CB        63.9730   59.4870   57.5490 C.3   138  ALA138      0.0334
     43  N         61.0920   60.5560   56.3850 N.am  139  SER139     -0.1936
     44  CA        60.1750   61.6740   56.5940 C.3   139  SER139      0.2055
     45  C         59.3970   61.9700   55.3250 C.2   139  SER139      0.2643
     46  O         59.9960   62.2260   54.2760 O.2   139  SER139     -0.2714
     47  CB        60.9400   62.9180   57.0380 C.3   139  SER139      0.2130
     48  OG        60.1140   64.0640   56.9270 O.3   139  SER139     -0.2179
     49  N         58.0680   61.9630   55.4250 N.am  140  TYR140     -0.1973
     50  CA        57.2550   62.4800   54.3330 C.3   140  TYR140      0.1639
     51  C         57.3680   63.9960   54.2350 C.2   140  TYR140      0.2290
     52  O         57.4310   64.5490   53.1310 O.2   140  TYR140     -0.2864
     53  CB        55.7990   62.0700   54.5120 C.3   140  TYR140      0.0560
     54  CG        54.8600   62.8440   53.6160 C.ar  140  TYR140     -0.0198
     55  CD1       54.8560   62.6370   52.2420 C.ar  140  TYR140     -0.0009
     56  CD2       54.0000   63.8030   54.1370 C.ar  140  TYR140     -0.0009
     57  CE1       54.0090   63.3460   51.4120 C.ar  140  TYR140      0.0417
     58  CE2       53.1520   64.5190   53.3170 C.ar  140  TYR140      0.0417
     59  CZ        53.1590   64.2860   51.9540 C.ar  140  TYR140      0.1957
     60  OH        52.3160   64.9970   51.1280 O.3   140  TYR140     -0.2866
     61  N         60.2180   64.8900   52.2570 N.3   143  ARG143     -0.1245
     62  CA        60.3590   64.1610   51.0050 C.3   143  ARG143      0.1563
     63  C         60.7160   65.1230   49.8790 C.2   143  ARG143      0.2260
     64  O         60.0660   66.1560   49.6980 O.2   143  ARG143     -0.2867
     65  CB        59.0670   63.4160   50.6800 C.3   143  ARG143      0.0307
     66  CG        59.0810   62.6960   49.3500 C.3   143  ARG143      0.0489
     67  CD        57.8200   61.8770   49.1650 C.3   143  ARG143      0.2205
     68  NE        57.7220   61.3590   47.8060 N.pl3 143  ARG143     -0.0865
     69  CZ        58.2520   60.2080   47.4080 C.cat 143  ARG143      0.5346
     70  NH1       58.9150   59.4490   48.2710 N.pl3 143  ARG143      0.1354
     71  NH2       58.1190   59.8160   46.1470 N.pl3 143  ARG143      0.1354
     72  N         59.7590   64.3080   62.7170 N.3   230  GLU230     -0.1245
     73  CA        60.2620   63.8020   61.4460 C.3   230  GLU230      0.1567
     74  C         61.5230   64.5340   61.0080 C.2   230  GLU230      0.2260
     75  O         62.3580   63.9540   60.3050 O.2   230  GLU230     -0.2867
     76  CB        59.1770   63.9050   60.3730 C.3   230  GLU230      0.0388
     77  CG        58.1460   62.7890   60.4610 C.3   230  GLU230      0.1160
     78  CD        57.1230   62.8170   59.3310 C.2   230  GLU230      0.3649
     79  OE1       57.4440   63.3200   58.2310 O.co2 230  GLU230     -0.2457
     80  OE2       55.9960   62.3180   59.5460 O.co2 230  GLU230     -0.2457
     81  N         64.2210   62.8350   62.8690 N.3   233  THR233     -0.1218
     82  CA        64.3790   61.5090   62.2780 C.3   233  THR233      0.1862
     83  C         65.1850   61.5770   60.9880 C.2   233  THR233      0.2287
     84  O         66.0540   60.7310   60.7470 O.2   233  THR233     -0.2866
     85  CB        63.0070   60.8780   62.0200 C.3   233  THR233      0.1770
     86  OG1       62.2470   60.8480   63.2370 O.3   233  THR233     -0.2211
     87  CG2       63.1450   59.4630   61.4690 C.3   233  THR233      0.0375
@<TRIPOS>BOND
     1     4     3    2
     2     3     2    1
     3     1     2    1
     4     2     5    1
     5     5     6    1
     6     8     7   ar
     7     6     7    1
     8    71    69    1
     9     7     9   ar
    10    69    68    2
    11    69    70    1
    12    10    11    1
    13    68    67    1
    14    14    11    1
    15    14    15    1
    16    11    12    1
    17    20    22   ar
    18    20    17   ar
    19    15    17   ar
    20    15    16   ar
    21    22    23   ar
    22    17    19   ar
    23    67    66    1
    24    66    65    1
    25    16    18   ar
    26    64    63    2
    27    12    13    2
    28    12    24   am
    29    23    21   ar
    30    63    62    1
    31    19    18   ar
    32    19    21   ar
    33    65    62    1
    34    24    25    1
    35    62    61    1
    36    60    59    1
    37    57    59   ar
    38    57    55   ar
    39    59    58   ar
    40    25    26    1
    41    25    28    1
    42    55    54   ar
    43    27    26    2
    44    26    30   am
    45    28    29    1
    46    52    51    2
    47    58    56   ar
    48    30    31    1
    49    54    56   ar
    50    54    53    1
    51    37    36    1
    52    31    34    1
    53    31    32    1
    54    51    50    1
    55    46    45    2
    56    50    53    1
    57    50    49    1
    58    34    35    1
    59    45    49   am
    60    45    44    1
    61    35    36    1
    62    32    38   am
    63    32    33    2
    64    38    39    1
    65    43    44    1
    66    43    40   am
    67    44    47    1
    68    48    47    1
    69    39    40    1
    70    39    42    1
    71    40    41    2
    72    79    78   ar
    73    78    80   ar
    74    78    77    1
    75    75    74    2
    76    76    77    1
    77    76    73    1
    78    84    83    2
    79    83    82    1
    80    74    73    1
    81    73    72    1
    82    87    85    1
    83    85    82    1
    84    85    86    1
    85    82    81    1
