@<TRIPOS>MOLECULE
tmp/6fkxA01.pdb
 99 98 0 0 0
SMALL
GASTEIGER

@<TRIPOS>ATOM
      1  N         66.7860   47.9190   60.5780 N.3    96  TYR96      -0.1227
      2  CA        65.7140   48.7050   59.9780 C.3    96  TYR96       0.1736
      3  C         65.9350   50.1950   60.2140 C.2    96  TYR96       0.2596
      4  O         66.1090   50.6340   61.3550 O.2    96  TYR96      -0.2718
      5  CB        64.3660   48.2610   60.5500 C.3    96  TYR96       0.0548
      6  CG        63.1660   48.8380   59.8410 C.ar   96  TYR96      -0.0200
      7  CD1       63.0560   48.7810   58.4590 C.ar   96  TYR96      -0.0009
      8  CD2       62.1330   49.4280   60.5550 C.ar   96  TYR96      -0.0009
      9  CE1       61.9540   49.3040   57.8090 C.ar   96  TYR96       0.0417
     10  CE2       61.0280   49.9520   59.9150 C.ar   96  TYR96       0.0417
     11  CZ        60.9430   49.8870   58.5430 C.ar   96  TYR96       0.1957
     12  OH        59.8430   50.4100   57.9020 O.3    96  TYR96      -0.2866
     13  N         65.9010   50.9650   59.1240 N.am   97  THR97      -0.1953
     14  CA        66.1630   52.4040   59.0200 C.3    97  THR97       0.1897
     15  C         67.6390   52.7740   59.1590 C.2    97  THR97       0.2313
     16  O         67.9700   53.9580   59.0310 O.2    97  THR97      -0.2863
     17  CB        65.3630   53.2450   60.0320 C.3    97  THR97       0.1794
     18  OG1       65.9360   53.1000   61.3370 O.3    97  THR97      -0.2208
     19  CG2       63.8870   52.8370   60.0590 C.3    97  THR97       0.0378
     20  N         63.6870   54.6630   44.3660 N.3   131  GLU131     -0.1245
     21  CA        62.3840   54.1880   44.8050 C.3   131  GLU131      0.1567
     22  C         61.6390   53.5900   43.6180 C.2   131  GLU131      0.2260
     23  O         61.4840   54.2460   42.5810 O.2   131  GLU131     -0.2867
     24  CB        61.5960   55.3360   45.4350 C.3   131  GLU131      0.0388
     25  CG        60.2870   54.9450   46.0880 C.3   131  GLU131      0.1160
     26  CD        59.5570   56.1490   46.6570 C.2   131  GLU131      0.3649
     27  OE1       59.6680   57.2460   46.0670 O.co2 131  GLU131     -0.2457
     28  OE2       58.8750   55.9960   47.6950 O.co2 131  GLU131     -0.2457
     29  N         49.8940   54.2280   46.7320 N.3   137  TRP137     -0.1227
     30  CA        50.8670   54.6620   47.7210 C.3   137  TRP137      0.1737
     31  C         50.1580   54.9720   49.0300 C.2   137  TRP137      0.2596
     32  O         49.2210   55.7720   49.0570 O.2   137  TRP137     -0.2718
     33  CB        51.6300   55.8910   47.2330 C.3   137  TRP137      0.0564
     34  CG        52.4780   56.5280   48.2820 C.ar  137  TRP137      0.0003
     35  CD1       53.2870   55.8970   49.1790 C.ar  137  TRP137      0.0946
     36  CD2       52.5960   57.9280   48.5470 C.ar  137  TRP137      0.0152
     37  NE1       53.9070   56.8190   49.9830 N.ar  137  TRP137     -0.2442
     38  CE2       53.5010   58.0740   49.6150 C.ar  137  TRP137      0.0810
     39  CE3       52.0230   59.0730   47.9830 C.ar  137  TRP137      0.0012
     40  CZ2       53.8490   59.3200   50.1320 C.ar  137  TRP137      0.0191
     41  CZ3       52.3730   60.3080   48.4930 C.ar  137  TRP137      0.0001
     42  CH2       53.2760   60.4220   49.5580 C.ar  137  TRP137      0.0015
     43  N         50.6120   54.3420   50.1080 N.am  138  SER138     -0.1938
     44  CA        50.1980   54.6880   51.4590 C.3   138  SER138      0.2055
     45  C         51.4360   55.0180   52.2760 C.2   138  SER138      0.2643
     46  O         52.4020   54.2490   52.2820 O.2   138  SER138     -0.2714
     47  CB        49.4170   53.5560   52.1280 C.3   138  SER138      0.2130
     48  OG        49.2430   53.8260   53.5110 O.3   138  SER138     -0.2179
     49  N         51.4160   56.1780   52.9310 N.am  139  MET139     -0.1962
     50  CA        52.4970   56.5970   53.8150 C.3   139  MET139      0.1736
     51  C         52.4880   55.8640   55.1470 C.2   139  MET139      0.2616
     52  O         53.3960   56.0760   55.9590 O.2   139  MET139     -0.2715
     53  CB        52.3890   58.0950   54.0800 C.3   139  MET139      0.0427
     54  CG        51.2240   58.4180   55.0130 C.3   139  MET139      0.0599
     55  SD        51.0930   60.1470   55.4870 S.3   139  MET139     -0.1393
     56  CE        52.7510   60.6900   55.1400 C.3   139  MET139      0.0692
     57  N         51.4970   55.0060   55.3890 N.am  140  ALA140     -0.1963
     58  CA        51.3460   54.4150   56.7120 C.3   140  ALA140      0.1728
     59  C         52.4670   53.4340   57.0340 C.2   140  ALA140      0.2617
     60  O         52.8450   53.2970   58.2020 O.2   140  ALA140     -0.2715
     61  CB        49.9870   53.7240   56.8250 C.3   140  ALA140      0.0334
     62  N         53.0170   52.7550   56.0300 N.am  141  SER141     -0.1936
     63  CA        53.9270   51.6440   56.2990 C.3   141  SER141      0.2055
     64  C         54.8310   51.3990   55.1030 C.2   141  SER141      0.2643
     65  O         54.3410   51.1750   53.9910 O.2   141  SER141     -0.2714
     66  CB        53.1300   50.3800   56.6330 C.3   141  SER141      0.2130
     67  OG        53.9420   49.2210   56.5750 O.3   141  SER141     -0.2179
     68  N         56.1460   51.4210   55.3320 N.am  142  TYR142     -0.1973
     69  CA        57.0740   50.9520   54.3100 C.3   142  TYR142      0.1639
     70  C         57.0000   49.4360   54.1490 C.2   142  TYR142      0.2290
     71  O         57.0980   48.9190   53.0300 O.2   142  TYR142     -0.2864
     72  CB        58.5010   51.3870   54.6380 C.3   142  TYR142      0.0560
     73  CG        59.5120   50.6250   53.8280 C.ar  142  TYR142     -0.0198
     74  CD1       59.6230   50.8220   52.4560 C.ar  142  TYR142     -0.0009
     75  CD2       60.3250   49.6750   54.4220 C.ar  142  TYR142     -0.0009
     76  CE1       60.5340   50.1090   51.7070 C.ar  142  TYR142      0.0417
     77  CE2       61.2430   48.9620   53.6840 C.ar  142  TYR142      0.0417
     78  CZ        61.3440   49.1800   52.3290 C.ar  142  TYR142      0.1957
     79  OH        62.2600   48.4620   51.5960 O.3   142  TYR142     -0.2866
     80  N         54.3320   48.5540   51.8160 N.3   145  ARG145     -0.1245
     81  CA        54.2950   49.2900   50.5580 C.3   145  ARG145      0.1563
     82  C         54.0390   48.3380   49.3940 C.2   145  ARG145      0.2260
     83  O         54.7210   47.3220   49.2450 O.2   145  ARG145     -0.2867
     84  CB        55.6060   50.0490   50.3580 C.3   145  ARG145      0.0307
     85  CG        55.7050   50.8040   49.0390 C.3   145  ARG145      0.0489
     86  CD        56.9630   51.6560   48.9890 C.3   145  ARG145      0.2205
     87  NE        57.1880   52.2090   47.6570 N.pl3 145  ARG145     -0.0865
     88  CZ        56.6660   53.3520   47.2300 C.cat 145  ARG145      0.5346
     89  NH1       55.8900   54.0690   48.0330 N.pl3 145  ARG145      0.1354
     90  NH2       56.9190   53.7800   46.0010 N.pl3 145  ARG145      0.1354
     91  N         53.8120   48.9760   62.3060 N.3   232  GLU232     -0.1245
     92  CA        53.4220   49.5040   61.0030 C.3   232  GLU232      0.1567
     93  C         52.2110   48.7740   60.4450 C.2   232  GLU232      0.2260
     94  O         51.4570   49.3430   59.6490 O.2   232  GLU232     -0.2867
     95  CB        54.5870   49.4020   60.0190 C.3   232  GLU232      0.0388
     96  CG        55.6270   50.4730   60.1970 C.3   232  GLU232      0.1160
     97  CD        56.7030   50.4130   59.1330 C.2   232  GLU232      0.3649
     98  OE1       56.4130   49.9440   58.0110 O.co2 232  GLU232     -0.2457
     99  OE2       57.8410   50.8310   59.4230 O.co2 232  GLU232     -0.2457
@<TRIPOS>BOND
     1    23    22    2
     2    22    21    1
     3    20    21    1
     4    21    24    1
     5    24    25    1
     6    90    88    1
     7    27    26   ar
     8    25    26    1
     9    26    28   ar
    10    29    30    1
    11    88    87    2
    12    88    89    1
    13    33    30    1
    14    33    34    1
    15    87    86    1
    16    30    31    1
    17    39    41   ar
    18    39    36   ar
    19    34    36   ar
    20    34    35   ar
    21    41    42   ar
    22    36    38   ar
    23    86    85    1
    24    31    32    2
    25    31    43   am
    26    85    84    1
    27    35    37   ar
    28    83    82    2
    29    82    81    1
    30    42    40   ar
    31    38    37   ar
    32    38    40   ar
    33    43    44    1
    34    84    81    1
    35    81    80    1
    36    44    47    1
    37    44    45    1
    38    79    78    1
    39    76    78   ar
    40    76    74   ar
    41    47    48    1
    42    45    46    2
    43    45    49   am
    44    78    77   ar
    45    74    73   ar
    46    49    50    1
    47    71    70    2
    48    77    75   ar
    49    50    53    1
    50    50    51    1
    51    73    75   ar
    52    73    72    1
    53    65    64    2
    54    53    54    1
    55    70    69    1
    56    69    72    1
    57    69    68    1
    58    54    55    1
    59    64    68   am
    60    64    63    1
    61    56    55    1
    62    51    57   am
    63    51    52    2
    64    57    58    1
    65    62    63    1
    66    62    59   am
    67    63    66    1
    68    67    66    1
    69    58    61    1
    70    58    59    1
    71    59    60    2
    72     9     7   ar
    73     9    11   ar
    74    12    11    1
    75    98    97   ar
    76     7     6   ar
    77    11    10   ar
    78    14    13    1
    79    14    15    1
    80    14    17    1
    81    16    15    2
    82    13     3   am
    83    97    99   ar
    84    97    96    1
    85    94    93    2
    86     6     5    1
    87     6     8   ar
    88    10     8   ar
    89     2     3    1
    90     2     5    1
    91     2     1    1
    92    95    96    1
    93    95    92    1
    94    17    19    1
    95    17    18    1
    96     3     4    2
    97    93    92    1
    98    92    91    1
