@<TRIPOS>MOLECULE
tmp/6fkyA02.pdb
 181 177 0 0 0
SMALL
GASTEIGER

@<TRIPOS>ATOM
      1  N         23.2390   19.1440   -8.0790 N.3    21  ALA21      -0.1245
      2  CA        23.6880   19.6160   -9.3880 C.3    21  ALA21       0.1562
      3  C         22.9640   19.0370  -10.6400 C.2    21  ALA21       0.2260
      4  O         22.9710   19.6400  -11.7140 O.2    21  ALA21      -0.2867
      5  CB        25.1850   19.4410   -9.4940 C.3    21  ALA21       0.0290
      6  N         20.3690   21.4800  -12.2620 N.3    24  SER24      -0.1217
      7  CA        20.9790   22.5710  -13.0120 C.3    24  SER24       0.1889
      8  C         21.6070   22.0200  -14.3200 C.2    24  SER24       0.2288
      9  O         21.6080   22.6930  -15.3830 O.2    24  SER24      -0.2866
     10  CB        21.9890   23.3140  -12.1550 C.3    24  SER24       0.2089
     11  OG        21.2620   24.0960  -11.2500 O.3    24  SER24      -0.2183
     12  N         23.4040   23.9630  -17.6150 N.3    29  VAL29      -0.1231
     13  CA        24.3770   24.7700  -16.8840 C.3    29  VAL29       0.1678
     14  C         25.5880   23.8990  -16.7620 C.2    29  VAL29       0.2434
     15  O         25.4710   22.7490  -16.3490 O.2    29  VAL29      -0.2733
     16  CB        23.9160   25.0830  -15.4490 C.3    29  VAL29       0.0265
     17  CG1       24.9490   25.8970  -14.7320 C.3    29  VAL29       0.0020
     18  CG2       22.5980   25.8210  -15.4390 C.3    29  VAL29       0.0020
     19  N         26.7700   24.4360  -17.0770 N.am   30  PRO30      -0.2718
     20  CA        28.0100   23.6910  -16.7690 C.3    30  PRO30       0.1535
     21  C         28.3110   23.6450  -15.2720 C.2    30  PRO30       0.2599
     22  O         28.1830   24.6600  -14.5700 O.2    30  PRO30      -0.2715
     23  CB        29.0710   24.5020  -17.4720 C.3    30  PRO30       0.0310
     24  CG        28.5390   25.8990  -17.4150 C.3    30  PRO30       0.0237
     25  CD        27.0670   25.7630  -17.6350 C.3    30  PRO30       0.0939
     26  N         28.7110   22.4700  -14.7950 N.am   31  THR31      -0.1951
     27  CA        29.0910   22.3070  -13.3850 C.3    31  THR31       0.1897
     28  C         30.5960   22.1600  -13.2000 C.2    31  THR31       0.2313
     29  O         31.0280   22.1060  -12.0900 O.2    31  THR31      -0.2863
     30  CB        28.3910   21.0990  -12.7270 C.3    31  THR31       0.1794
     31  OG1       28.6890   19.9230  -13.4720 O.3    31  THR31      -0.2208
     32  CG2       26.8610   21.2820  -12.7010 C.3    31  THR31       0.0378
     33  N         32.6220   19.7640  -13.0700 N.3    33  ARG33      -0.1245
     34  CA        32.9040   18.6080  -12.2180 C.3    33  ARG33       0.1563
     35  C         33.0520   17.3270  -13.0420 C.2    33  ARG33       0.2260
     36  O         32.4950   17.2090  -14.1240 O.2    33  ARG33      -0.2867
     37  CB        31.7780   18.4380  -11.2020 C.3    33  ARG33       0.0307
     38  CG        31.9230   19.4090  -10.0290 C.3    33  ARG33       0.0489
     39  CD        30.6840   19.5780   -9.1460 C.3    33  ARG33       0.2205
     40  NE        31.0140   19.7740   -7.7160 N.pl3  33  ARG33      -0.0865
     41  CZ        31.7950   20.7310   -7.1750 C.cat  33  ARG33       0.5346
     42  NH1       32.4110   21.6780   -7.9010 N.pl3  33  ARG33       0.1354
     43  NH2       31.9630   20.7260   -5.8550 N.pl3  33  ARG33       0.1354
     44  N         36.8420   23.3190  -11.6880 N.3    44  ALA44      -0.1245
     45  CA        36.2650   24.0770  -10.5670 C.3    44  ALA44       0.1562
     46  C         37.2170   24.1840   -9.3890 C.2    44  ALA44       0.2260
     47  O         37.4930   25.2770   -8.8710 O.2    44  ALA44      -0.2867
     48  CB        34.9640   23.4250  -10.1020 C.3    44  ALA44       0.0290
     49  N         37.8590   27.7740   -7.7020 N.3    48  ALA48      -0.1245
     50  CA        36.8730   28.0070   -6.6610 C.3    48  ALA48       0.1562
     51  C         37.4180   27.9220   -5.2090 C.2    48  ALA48       0.2260
     52  O         36.9030   27.1640   -4.3790 O.2    48  ALA48      -0.2867
     53  CB        35.7020   27.0460   -6.8650 C.3    48  ALA48       0.0290
     54  N         36.2470   33.6560  -14.8410 N.3    63  PHE63      -0.1227
     55  CA        35.4960   32.3870  -14.6850 C.3    63  PHE63       0.1736
     56  C         34.0840   32.6110  -14.1670 C.2    63  PHE63       0.2595
     57  O         33.1180   32.1050  -14.7570 O.2    63  PHE63      -0.2718
     58  CB        36.2960   31.4850  -13.7410 C.3    63  PHE63       0.0547
     59  CG        35.6330   30.2150  -13.3320 C.ar   63  PHE63      -0.0202
     60  CD1       35.3390   29.2490  -14.2600 C.ar   63  PHE63      -0.0042
     61  CD2       35.4200   29.9300  -11.9840 C.ar   63  PHE63      -0.0042
     62  CE1       34.7850   28.0130  -13.8670 C.ar   63  PHE63      -0.0003
     63  CE2       34.8590   28.7120  -11.5950 C.ar   63  PHE63      -0.0003
     64  CZ        34.5520   27.7520  -12.5440 C.ar   63  PHE63      -0.0000
     65  N         33.9640   33.3880  -13.0830 N.am   64  TYR64      -0.1976
     66  CA        32.6670   33.6640  -12.5210 C.3    64  TYR64       0.1639
     67  C         31.8510   34.5650  -13.4940 C.2    64  TYR64       0.2290
     68  O         30.6790   34.2770  -13.7310 O.2    64  TYR64      -0.2864
     69  CB        32.7730   34.1100  -11.0350 C.3    64  TYR64       0.0560
     70  CG        32.8950   32.8890  -10.0910 C.ar   64  TYR64      -0.0198
     71  CD1       31.7870   32.1400   -9.7470 C.ar   64  TYR64      -0.0009
     72  CD2       34.1210   32.4450   -9.6010 C.ar   64  TYR64      -0.0009
     73  CE1       31.8740   31.0010   -8.9450 C.ar   64  TYR64       0.0417
     74  CE2       34.2170   31.3000   -8.7670 C.ar   64  TYR64       0.0417
     75  CZ        33.0920   30.5690   -8.4680 C.ar   64  TYR64       0.1957
     76  OH        33.1660   29.4300   -7.6870 O.3    64  TYR64      -0.2866
     77  N         30.2740   32.3390  -16.0860 N.3    67  ARG67      -0.1245
     78  CA        29.2150   31.5000  -15.5730 C.3    67  ARG67       0.1563
     79  C         27.9470   32.2870  -15.3780 C.2    67  ARG67       0.2260
     80  O         26.8540   31.7520  -15.6110 O.2    67  ARG67      -0.2867
     81  CB        29.6660   30.8190  -14.3000 C.3    67  ARG67       0.0307
     82  CG        30.7750   29.8110  -14.6310 C.3    67  ARG67       0.0489
     83  CD        31.3120   29.1370  -13.3890 C.3    67  ARG67       0.2205
     84  NE        30.2010   28.4910  -12.7410 N.pl3  67  ARG67      -0.0865
     85  CZ        30.2520   27.9680  -11.5380 C.cat  67  ARG67       0.5346
     86  NH1       31.3650   28.0240  -10.7920 N.pl3  67  ARG67       0.1354
     87  NH2       29.1400   27.4220  -11.0490 N.pl3  67  ARG67       0.1354
     88  N         22.0230   23.1270   -3.2900 N.3   102  GLN102     -0.1231
     89  CA        23.4730   23.3530   -3.3760 C.3   102  GLN102      0.1698
     90  C         23.8760   24.1560   -4.6220 C.2   102  GLN102      0.2592
     91  O         25.0680   24.4420   -4.8050 O.2   102  GLN102     -0.2718
     92  CB        24.2370   22.0740   -3.3340 C.3   102  GLN102      0.0381
     93  CG        23.9950   21.2110   -4.5530 C.3   102  GLN102      0.0905
     94  CD        25.2050   20.4650   -4.9550 C.2   102  GLN102      0.2608
     95  OE1       25.2740   19.2260   -4.7750 O.2   102  GLN102     -0.2717
     96  NE2       26.1990   21.2040   -5.5050 N.am  102  GLN102     -0.0878
     97  N         22.8820   24.5250   -5.4560 N.am  103  ASN103     -0.1960
     98  CA        23.1270   25.1540   -6.7470 C.3   103  ASN103      0.1819
     99  C         23.1990   26.6360   -6.5770 C.2   103  ASN103      0.2621
    100  O         22.5660   27.1750   -5.6650 O.2   103  ASN103     -0.2715
    101  CB        22.0070   24.7730   -7.7260 C.3   103  ASN103      0.1195
    102  CG        21.9560   23.2870   -7.9710 C.2   103  ASN103      0.2630
    103  OD1       23.0120   22.6720   -8.1740 O.2   103  ASN103     -0.2716
    104  ND2       20.7540   22.6920   -7.9290 N.am  103  ASN103     -0.0877
    105  N         23.9460   27.2810   -7.4780 N.am  104  ILE104     -0.1963
    106  CA        24.2410   28.7280   -7.3420 C.3   104  ILE104      0.1727
    107  C         23.7610   29.5900   -8.4930 C.2   104  ILE104      0.2616
    108  O         24.2230   30.7190   -8.6410 O.2   104  ILE104     -0.2715
    109  CB        25.7620   28.9890   -7.0970 C.3   104  ILE104      0.0290
    110  CG1       26.6120   28.5150   -8.2780 C.3   104  ILE104      0.0022
    111  CG2       26.2120   28.3580   -5.7960 C.3   104  ILE104      0.0023
    112  CD1       28.0240   28.9780   -8.2620 C.3   104  ILE104      0.0001
    113  N         22.8110   29.0890   -9.2650 N.am  105  ASP105     -0.1971
    114  CA        22.4760   29.6840  -10.5690 C.3   105  ASP105      0.1709
    115  C         21.1340   30.3980  -10.5660 C.2   105  ASP105      0.2293
    116  O         20.7540   31.0060  -11.5620 O.2   105  ASP105     -0.2864
    117  CB        22.5320   28.6370  -11.6680 C.3   105  ASP105      0.1436
    118  CG        21.9890   27.3120  -11.2420 C.2   105  ASP105      0.3671
    119  OD1       20.7640   27.2360  -10.9960 O.co2 105  ASP105     -0.2456
    120  OD2       22.8300   26.3720  -11.1090 O.co2 105  ASP105     -0.2456
    121  N         25.1130   27.0810   -0.8480 N.3   120  HIS120     -0.1241
    122  CA        26.4200   27.4230   -1.4040 C.3   120  HIS120      0.1621
    123  C         26.4310   28.8340   -1.9790 C.2   120  HIS120      0.2264
    124  O         27.4140   29.2450   -2.5880 O.2   120  HIS120     -0.2867
    125  CB        26.8140   26.4070   -2.4600 C.3   120  HIS120      0.0745
    126  CG        27.1380   25.0520   -1.9270 C.ar  120  HIS120      0.0817
    127  ND1       27.2460   23.9440   -2.7510 N.ar  120  HIS120     -0.2268
    128  CD2       27.3890   24.6240   -0.6710 C.ar  120  HIS120      0.1154
    129  CE1       27.5710   22.8950   -2.0160 C.ar  120  HIS120      0.1986
    130  NE2       27.6430   23.2790   -0.7500 N.ar  120  HIS120     -0.2212
    131  N         29.7390   32.9880   -3.0490 N.3   182  VAL182     -0.1231
    132  CA        29.6230   31.5710   -3.3640 C.3   182  VAL182      0.1692
    133  C         30.5630   30.9040   -2.3470 C.2   182  VAL182      0.2592
    134  O         31.6630   31.4510   -2.0750 O.2   182  VAL182     -0.2718
    135  CB        30.0840   31.2970   -4.8320 C.3   182  VAL182      0.0266
    136  CG1       30.6170   29.8810   -5.0420 C.3   182  VAL182      0.0020
    137  CG2       28.9740   31.5930   -5.8280 C.3   182  VAL182      0.0020
    138  N         30.1410   29.7670   -1.7940 N.am  183  VAL183     -0.1966
    139  CA        30.9970   29.0470   -0.8810 C.3   183  VAL183      0.1727
    140  C         32.0530   28.2470   -1.6610 C.2   183  VAL183      0.2616
    141  O         31.7160   27.3690   -2.4760 O.2   183  VAL183     -0.2715
    142  CB        30.2060   28.1230    0.0630 C.3   183  VAL183      0.0290
    143  CG1       31.1500   27.4100    1.0110 C.3   183  VAL183      0.0023
    144  CG2       29.2270   28.9360    0.8820 C.3   183  VAL183      0.0023
    145  N         33.3300   28.5740   -1.3900 N.am  184  TRP184     -0.1960
    146  CA        34.4620   27.9840   -2.0780 C.3   184  TRP184      0.1771
    147  C         35.0020   26.7540   -1.3490 C.2   184  TRP184      0.2619
    148  O         34.5830   26.4600   -0.2230 O.2   184  TRP184     -0.2715
    149  CB        35.5460   29.0310   -2.2750 C.3   184  TRP184      0.0590
    150  CG        35.2820   29.9860   -3.4110 C.ar  184  TRP184      0.0006
    151  CD1       34.5280   29.7540   -4.5470 C.ar  184  TRP184      0.0946
    152  CD2       35.7810   31.3130   -3.5400 C.ar  184  TRP184      0.0152
    153  NE1       34.5080   30.8600   -5.3350 N.ar  184  TRP184     -0.2442
    154  CE2       35.2730   31.8340   -4.7520 C.ar  184  TRP184      0.0810
    155  CE3       36.5910   32.1170   -2.7460 C.ar  184  TRP184      0.0012
    156  CZ2       35.5470   33.1380   -5.1850 C.ar  184  TRP184      0.0191
    157  CZ3       36.8770   33.3940   -3.1750 C.ar  184  TRP184      0.0001
    158  CH2       36.3540   33.8990   -4.3930 C.ar  184  TRP184      0.0015
    159  N         35.8820   26.0110   -2.0260 N.am  185  PHE185     -0.1974
    160  CA        36.4500   24.7930   -1.4600 C.3   185  PHE185      0.1639
    161  C         37.3060   25.1730   -0.2760 C.2   185  PHE185      0.2290
    162  O         38.1360   26.0900   -0.3510 O.2   185  PHE185     -0.2864
    163  CB        37.2830   24.0070   -2.4660 C.3   185  PHE185      0.0560
    164  CG        36.4650   23.2050   -3.4200 C.ar  185  PHE185     -0.0200
    165  CD1       35.8240   22.0400   -3.0130 C.ar  185  PHE185     -0.0042
    166  CD2       36.3370   23.6010   -4.7540 C.ar  185  PHE185     -0.0042
    167  CE1       35.0480   21.3130   -3.9080 C.ar  185  PHE185     -0.0003
    168  CE2       35.5620   22.8600   -5.6530 C.ar  185  PHE185     -0.0003
    169  CZ        34.9250   21.7200   -5.2250 C.ar  185  PHE185     -0.0000
    170  N         27.6600   14.4440    0.1090 N.3   217  TYR217     -0.1241
    171  CA        27.5490   15.8610    0.4440 C.3   217  TYR217      0.1605
    172  C         26.7300   16.4830   -0.6490 C.2   217  TYR217      0.2264
    173  O         27.0470   16.2490   -1.8040 O.2   217  TYR217     -0.2867
    174  CB        28.9220   16.5650    0.4060 C.3   217  TYR217      0.0534
    175  CG        28.8910   18.0760    0.7330 C.ar  217  TYR217     -0.0201
    176  CD1       28.6220   18.5010    2.0140 C.ar  217  TYR217     -0.0009
    177  CD2       29.0090   19.0620   -0.2630 C.ar  217  TYR217     -0.0009
    178  CE1       28.5590   19.8700    2.3320 C.ar  217  TYR217      0.0417
    179  CE2       28.9520   20.4160    0.0500 C.ar  217  TYR217      0.0417
    180  CZ        28.7110   20.8130    1.3540 C.ar  217  TYR217      0.1957
    181  OH        28.6440   22.1240    1.7480 O.3   217  TYR217     -0.2866
@<TRIPOS>BOND
     1    25    24    1
     2    25    19    1
     3    12    13    1
     4    23    24    1
     5    23    20    1
     6    19    20    1
     7    19    14   am
     8    13    14    1
     9    13    16    1
    10    20    21    1
    11    14    15    2
    12    77    78    1
    13    80    79    2
    14    78    79    1
    15    78    81    1
    16    16    18    1
    17    16    17    1
    18     9     8    2
    19    21    26   am
    20    21    22    2
    21    54    55    1
    22    26    27    1
    23    57    56    2
    24    55    56    1
    25    55    58    1
    26    82    81    1
    27    82    83    1
    28     8     7    1
    29    60    62   ar
    30    60    59   ar
    31    56    65   am
    32    36    35    2
    33    62    64   ar
    34    58    59    1
    35    68    67    2
    36    67    66    1
    37    31    30    1
    38    83    84    1
    39    27    28    1
    40    27    30    1
    41    59    61   ar
    42    28    29    2
    43    65    66    1
    44    33    34    1
    45    35    34    1
    46     7     6    1
    47     7    10    1
    48    84    85    2
    49    30    32    1
    50    64    63   ar
    51    66    69    1
    52    34    37    1
    53    10    11    1
    54    61    63   ar
    55     4     3    2
    56    44    45    1
    57   117   118    1
    58   117   114    1
    59   116   115    2
    60    85    87    1
    61    85    86    1
    62   118   120   ar
    63   118   119   ar
    64    37    38    1
    65    69    70    1
    66     3     2    1
    67   114   115    1
    68   114   113    1
    69    45    48    1
    70    45    46    1
    71    70    71   ar
    72    70    72   ar
    73    38    39    1
    74    71    73   ar
    75    72    74   ar
    76     5     2    1
    77    46    47    2
    78     2     1    1
    79   113   107   am
    80    39    40    1
    81    73    75   ar
    82    74    75   ar
    83   108   107    2
    84   107   106    1
    85    75    76    1
    86   110   112    1
    87   110   109    1
    88   103   102    2
    89   102   104   am
    90   102   101    1
    91    42    41    1
    92   101    98    1
    93    40    41    2
    94    49    50    1
    95   105   106    1
    96   105    99   am
    97   106   109    1
    98    41    43    1
    99   109   111    1
   100    53    50    1
   101    98    99    1
   102    98    97    1
   103    50    51    1
   104    99   100    2
   105   137   135    1
   106   168   169   ar
   107   168   166   ar
   108    96    94   am
   109    97    90   am
   110   153   154   ar
   111   153   151   ar
   112   169   167   ar
   113    51    52    2
   114   156   154   ar
   115   156   158   ar
   116   136   135    1
   117    94    95    2
   118    94    93    1
   119   135   132    1
   120    91    90    2
   121   166   164   ar
   122   154   152   ar
   123    90    89    1
   124    93    92    1
   125   151   150   ar
   126   158   157   ar
   127   167   165   ar
   128   152   150   ar
   129   152   155   ar
   130   164   165   ar
   131   164   163    1
   132   150   149    1
   133    89    92    1
   134    89    88    1
   135   132   131    1
   136   132   133    1
   137   157   155   ar
   138   127   129   ar
   139   127   126   ar
   140   124   123    2
   141   141   140    2
   142   163   160    1
   143   125   126    1
   144   125   122    1
   145   133   134    2
   146   133   138   am
   147   149   146    1
   148   146   145    1
   149   146   147    1
   150   159   160    1
   151   159   147   am
   152   129   130   ar
   153   123   122    1
   154   126   128   ar
   155   173   172    2
   156   138   139    1
   157   140   145   am
   158   140   139    1
   159   160   161    1
   160   122   121    1
   161   147   148    2
   162   139   142    1
   163   130   128   ar
   164   172   171    1
   165   162   161    2
   166   177   179   ar
   167   177   175   ar
   168   179   180   ar
   169   142   144    1
   170   142   143    1
   171   170   171    1
   172   174   171    1
   173   174   175    1
   174   175   176   ar
   175   180   181    1
   176   180   178   ar
   177   176   178   ar
