@<TRIPOS>MOLECULE
tmp/6fkyA01.pdb
 158 153 0 0 0
SMALL
GASTEIGER

@<TRIPOS>ATOM
      1  N         23.2390   19.1440   -8.0790 N.3    21  ALA21      -0.1245
      2  CA        23.6880   19.6160   -9.3880 C.3    21  ALA21       0.1562
      3  C         22.9640   19.0370  -10.6400 C.2    21  ALA21       0.2260
      4  O         22.9710   19.6400  -11.7140 O.2    21  ALA21      -0.2867
      5  CB        25.1850   19.4410   -9.4940 C.3    21  ALA21       0.0290
      6  N         20.3690   21.4800  -12.2620 N.3    24  SER24      -0.1217
      7  CA        20.9790   22.5710  -13.0120 C.3    24  SER24       0.1889
      8  C         21.6070   22.0200  -14.3200 C.2    24  SER24       0.2288
      9  O         21.6080   22.6930  -15.3830 O.2    24  SER24      -0.2866
     10  CB        21.9890   23.3140  -12.1550 C.3    24  SER24       0.2089
     11  OG        21.2620   24.0960  -11.2500 O.3    24  SER24      -0.2183
     12  N         23.4040   23.9630  -17.6150 N.3    29  VAL29      -0.1231
     13  CA        24.3770   24.7700  -16.8840 C.3    29  VAL29       0.1678
     14  C         25.5880   23.8990  -16.7620 C.2    29  VAL29       0.2434
     15  O         25.4710   22.7490  -16.3490 O.2    29  VAL29      -0.2733
     16  CB        23.9160   25.0830  -15.4490 C.3    29  VAL29       0.0265
     17  CG1       24.9490   25.8970  -14.7320 C.3    29  VAL29       0.0020
     18  CG2       22.5980   25.8210  -15.4390 C.3    29  VAL29       0.0020
     19  N         26.7700   24.4360  -17.0770 N.am   30  PRO30      -0.2718
     20  CA        28.0100   23.6910  -16.7690 C.3    30  PRO30       0.1535
     21  C         28.3110   23.6450  -15.2720 C.2    30  PRO30       0.2599
     22  O         28.1830   24.6600  -14.5700 O.2    30  PRO30      -0.2715
     23  CB        29.0710   24.5020  -17.4720 C.3    30  PRO30       0.0310
     24  CG        28.5390   25.8990  -17.4150 C.3    30  PRO30       0.0237
     25  CD        27.0670   25.7630  -17.6350 C.3    30  PRO30       0.0939
     26  N         28.7110   22.4700  -14.7950 N.am   31  THR31      -0.1951
     27  CA        29.0910   22.3070  -13.3850 C.3    31  THR31       0.1897
     28  C         30.5960   22.1600  -13.2000 C.2    31  THR31       0.2313
     29  O         31.0280   22.1060  -12.0900 O.2    31  THR31      -0.2863
     30  CB        28.3910   21.0990  -12.7270 C.3    31  THR31       0.1794
     31  OG1       28.6890   19.9230  -13.4720 O.3    31  THR31      -0.2208
     32  CG2       26.8610   21.2820  -12.7010 C.3    31  THR31       0.0378
     33  N         32.6220   19.7640  -13.0700 N.3    33  ARG33      -0.1245
     34  CA        32.9040   18.6080  -12.2180 C.3    33  ARG33       0.1563
     35  C         33.0520   17.3270  -13.0420 C.2    33  ARG33       0.2260
     36  O         32.4950   17.2090  -14.1240 O.2    33  ARG33      -0.2867
     37  CB        31.7780   18.4380  -11.2020 C.3    33  ARG33       0.0307
     38  CG        31.9230   19.4090  -10.0290 C.3    33  ARG33       0.0489
     39  CD        30.6840   19.5780   -9.1460 C.3    33  ARG33       0.2205
     40  NE        31.0140   19.7740   -7.7160 N.pl3  33  ARG33      -0.0865
     41  CZ        31.7950   20.7310   -7.1750 C.cat  33  ARG33       0.5346
     42  NH1       32.4110   21.6780   -7.9010 N.pl3  33  ARG33       0.1354
     43  NH2       31.9630   20.7260   -5.8550 N.pl3  33  ARG33       0.1354
     44  N         36.8420   23.3190  -11.6880 N.3    44  ALA44      -0.1245
     45  CA        36.2650   24.0770  -10.5670 C.3    44  ALA44       0.1562
     46  C         37.2170   24.1840   -9.3890 C.2    44  ALA44       0.2260
     47  O         37.4930   25.2770   -8.8710 O.2    44  ALA44      -0.2867
     48  CB        34.9640   23.4250  -10.1020 C.3    44  ALA44       0.0290
     49  N         37.8590   27.7740   -7.7020 N.3    48  ALA48      -0.1245
     50  CA        36.8730   28.0070   -6.6610 C.3    48  ALA48       0.1562
     51  C         37.4180   27.9220   -5.2090 C.2    48  ALA48       0.2260
     52  O         36.9030   27.1640   -4.3790 O.2    48  ALA48      -0.2867
     53  CB        35.7020   27.0460   -6.8650 C.3    48  ALA48       0.0290
     54  N         33.9640   33.3880  -13.0830 N.3    64  TYR64      -0.1241
     55  CA        32.6670   33.6640  -12.5210 C.3    64  TYR64       0.1605
     56  C         31.8510   34.5650  -13.4940 C.2    64  TYR64       0.2264
     57  O         30.6790   34.2770  -13.7310 O.2    64  TYR64      -0.2867
     58  CB        32.7730   34.1100  -11.0350 C.3    64  TYR64       0.0534
     59  CG        32.8950   32.8890  -10.0910 C.ar   64  TYR64      -0.0201
     60  CD1       31.7870   32.1400   -9.7470 C.ar   64  TYR64      -0.0009
     61  CD2       34.1210   32.4450   -9.6010 C.ar   64  TYR64      -0.0009
     62  CE1       31.8740   31.0010   -8.9450 C.ar   64  TYR64       0.0417
     63  CE2       34.2170   31.3000   -8.7670 C.ar   64  TYR64       0.0417
     64  CZ        33.0920   30.5690   -8.4680 C.ar   64  TYR64       0.1957
     65  OH        33.1660   29.4300   -7.6870 O.3    64  TYR64      -0.2866
     66  N         30.2740   32.3390  -16.0860 N.3    67  ARG67      -0.1245
     67  CA        29.2150   31.5000  -15.5730 C.3    67  ARG67       0.1563
     68  C         27.9470   32.2870  -15.3780 C.2    67  ARG67       0.2260
     69  O         26.8540   31.7520  -15.6110 O.2    67  ARG67      -0.2867
     70  CB        29.6660   30.8190  -14.3000 C.3    67  ARG67       0.0307
     71  CG        30.7750   29.8110  -14.6310 C.3    67  ARG67       0.0489
     72  CD        31.3120   29.1370  -13.3890 C.3    67  ARG67       0.2205
     73  NE        30.2010   28.4910  -12.7410 N.pl3  67  ARG67      -0.0865
     74  CZ        30.2520   27.9680  -11.5380 C.cat  67  ARG67       0.5346
     75  NH1       31.3650   28.0240  -10.7920 N.pl3  67  ARG67       0.1354
     76  NH2       29.1400   27.4220  -11.0490 N.pl3  67  ARG67       0.1354
     77  N         22.0230   23.1270   -3.2900 N.3   102  GLN102     -0.1231
     78  CA        23.4730   23.3530   -3.3760 C.3   102  GLN102      0.1698
     79  C         23.8760   24.1560   -4.6220 C.2   102  GLN102      0.2592
     80  O         25.0680   24.4420   -4.8050 O.2   102  GLN102     -0.2718
     81  CB        24.2370   22.0740   -3.3340 C.3   102  GLN102      0.0381
     82  CG        23.9950   21.2110   -4.5530 C.3   102  GLN102      0.0905
     83  CD        25.2050   20.4650   -4.9550 C.2   102  GLN102      0.2608
     84  OE1       25.2740   19.2260   -4.7750 O.2   102  GLN102     -0.2717
     85  NE2       26.1990   21.2040   -5.5050 N.am  102  GLN102     -0.0878
     86  N         22.8820   24.5250   -5.4560 N.am  103  ASN103     -0.1960
     87  CA        23.1270   25.1540   -6.7470 C.3   103  ASN103      0.1819
     88  C         23.1990   26.6360   -6.5770 C.2   103  ASN103      0.2621
     89  O         22.5660   27.1750   -5.6650 O.2   103  ASN103     -0.2715
     90  CB        22.0070   24.7730   -7.7260 C.3   103  ASN103      0.1195
     91  CG        21.9560   23.2870   -7.9710 C.2   103  ASN103      0.2630
     92  OD1       23.0120   22.6720   -8.1740 O.2   103  ASN103     -0.2716
     93  ND2       20.7540   22.6920   -7.9290 N.am  103  ASN103     -0.0877
     94  N         23.9460   27.2810   -7.4780 N.am  104  ILE104     -0.1963
     95  CA        24.2410   28.7280   -7.3420 C.3   104  ILE104      0.1727
     96  C         23.7610   29.5900   -8.4930 C.2   104  ILE104      0.2616
     97  O         24.2230   30.7190   -8.6410 O.2   104  ILE104     -0.2715
     98  CB        25.7620   28.9890   -7.0970 C.3   104  ILE104      0.0290
     99  CG1       26.6120   28.5150   -8.2780 C.3   104  ILE104      0.0022
    100  CG2       26.2120   28.3580   -5.7960 C.3   104  ILE104      0.0023
    101  CD1       28.0240   28.9780   -8.2620 C.3   104  ILE104      0.0001
    102  N         22.8110   29.0890   -9.2650 N.am  105  ASP105     -0.1971
    103  CA        22.4760   29.6840  -10.5690 C.3   105  ASP105      0.1709
    104  C         21.1340   30.3980  -10.5660 C.2   105  ASP105      0.2293
    105  O         20.7540   31.0060  -11.5620 O.2   105  ASP105     -0.2864
    106  CB        22.5320   28.6370  -11.6680 C.3   105  ASP105      0.1436
    107  CG        21.9890   27.3120  -11.2420 C.2   105  ASP105      0.3671
    108  OD1       20.7640   27.2360  -10.9960 O.co2 105  ASP105     -0.2456
    109  OD2       22.8300   26.3720  -11.1090 O.co2 105  ASP105     -0.2456
    110  N         25.1130   27.0810   -0.8480 N.3   120  HIS120     -0.1241
    111  CA        26.4200   27.4230   -1.4040 C.3   120  HIS120      0.1621
    112  C         26.4310   28.8340   -1.9790 C.2   120  HIS120      0.2264
    113  O         27.4140   29.2450   -2.5880 O.2   120  HIS120     -0.2867
    114  CB        26.8140   26.4070   -2.4600 C.3   120  HIS120      0.0745
    115  CG        27.1380   25.0520   -1.9270 C.ar  120  HIS120      0.0817
    116  ND1       27.2460   23.9440   -2.7510 N.ar  120  HIS120     -0.2268
    117  CD2       27.3890   24.6240   -0.6710 C.ar  120  HIS120      0.1154
    118  CE1       27.5710   22.8950   -2.0160 C.ar  120  HIS120      0.1986
    119  NE2       27.6430   23.2790   -0.7500 N.ar  120  HIS120     -0.2212
    120  N         29.7390   32.9880   -3.0490 N.3   182  VAL182     -0.1231
    121  CA        29.6230   31.5710   -3.3640 C.3   182  VAL182      0.1692
    122  C         30.5630   30.9040   -2.3470 C.2   182  VAL182      0.2592
    123  O         31.6630   31.4510   -2.0750 O.2   182  VAL182     -0.2718
    124  CB        30.0840   31.2970   -4.8320 C.3   182  VAL182      0.0266
    125  CG1       30.6170   29.8810   -5.0420 C.3   182  VAL182      0.0020
    126  CG2       28.9740   31.5930   -5.8280 C.3   182  VAL182      0.0020
    127  N         30.1410   29.7670   -1.7940 N.am  183  VAL183     -0.1966
    128  CA        30.9970   29.0470   -0.8810 C.3   183  VAL183      0.1727
    129  C         32.0530   28.2470   -1.6610 C.2   183  VAL183      0.2616
    130  O         31.7160   27.3690   -2.4760 O.2   183  VAL183     -0.2715
    131  CB        30.2060   28.1230    0.0630 C.3   183  VAL183      0.0290
    132  CG1       31.1500   27.4100    1.0110 C.3   183  VAL183      0.0023
    133  CG2       29.2270   28.9360    0.8820 C.3   183  VAL183      0.0023
    134  N         33.3300   28.5740   -1.3900 N.am  184  TRP184     -0.1960
    135  CA        34.4620   27.9840   -2.0780 C.3   184  TRP184      0.1771
    136  C         35.0020   26.7540   -1.3490 C.2   184  TRP184      0.2619
    137  O         34.5830   26.4600   -0.2230 O.2   184  TRP184     -0.2715
    138  CB        35.5460   29.0310   -2.2750 C.3   184  TRP184      0.0590
    139  CG        35.2820   29.9860   -3.4110 C.ar  184  TRP184      0.0006
    140  CD1       34.5280   29.7540   -4.5470 C.ar  184  TRP184      0.0946
    141  CD2       35.7810   31.3130   -3.5400 C.ar  184  TRP184      0.0152
    142  NE1       34.5080   30.8600   -5.3350 N.ar  184  TRP184     -0.2442
    143  CE2       35.2730   31.8340   -4.7520 C.ar  184  TRP184      0.0810
    144  CE3       36.5910   32.1170   -2.7460 C.ar  184  TRP184      0.0012
    145  CZ2       35.5470   33.1380   -5.1850 C.ar  184  TRP184      0.0191
    146  CZ3       36.8770   33.3940   -3.1750 C.ar  184  TRP184      0.0001
    147  CH2       36.3540   33.8990   -4.3930 C.ar  184  TRP184      0.0015
    148  N         35.8820   26.0110   -2.0260 N.am  185  PHE185     -0.1974
    149  CA        36.4500   24.7930   -1.4600 C.3   185  PHE185      0.1639
    150  C         37.3060   25.1730   -0.2760 C.2   185  PHE185      0.2290
    151  O         38.1360   26.0900   -0.3510 O.2   185  PHE185     -0.2864
    152  CB        37.2830   24.0070   -2.4660 C.3   185  PHE185      0.0560
    153  CG        36.4650   23.2050   -3.4200 C.ar  185  PHE185     -0.0200
    154  CD1       35.8240   22.0400   -3.0130 C.ar  185  PHE185     -0.0042
    155  CD2       36.3370   23.6010   -4.7540 C.ar  185  PHE185     -0.0042
    156  CE1       35.0480   21.3130   -3.9080 C.ar  185  PHE185     -0.0003
    157  CE2       35.5620   22.8600   -5.6530 C.ar  185  PHE185     -0.0003
    158  CZ        34.9250   21.7200   -5.2250 C.ar  185  PHE185     -0.0000
@<TRIPOS>BOND
     1    25    24    1
     2    25    19    1
     3    12    13    1
     4    23    24    1
     5    23    20    1
     6    19    20    1
     7    19    14   am
     8    13    14    1
     9    13    16    1
    10    20    21    1
    11    14    15    2
    12    66    67    1
    13    69    68    2
    14    67    68    1
    15    67    70    1
    16    16    18    1
    17    16    17    1
    18     9     8    2
    19    21    26   am
    20    21    22    2
    21    26    27    1
    22    71    70    1
    23    71    72    1
    24     8     7    1
    25    36    35    2
    26    57    56    2
    27    56    55    1
    28    31    30    1
    29    72    73    1
    30    27    28    1
    31    27    30    1
    32    28    29    2
    33    54    55    1
    34    33    34    1
    35    35    34    1
    36     7     6    1
    37     7    10    1
    38    73    74    2
    39    30    32    1
    40    55    58    1
    41    34    37    1
    42    10    11    1
    43     4     3    2
    44    44    45    1
    45   106   107    1
    46   106   103    1
    47   105   104    2
    48    74    76    1
    49    74    75    1
    50   107   109   ar
    51   107   108   ar
    52    37    38    1
    53    58    59    1
    54     3     2    1
    55   103   104    1
    56   103   102    1
    57    45    48    1
    58    45    46    1
    59    59    60   ar
    60    59    61   ar
    61    38    39    1
    62    60    62   ar
    63    61    63   ar
    64     5     2    1
    65    46    47    2
    66     2     1    1
    67   102    96   am
    68    39    40    1
    69    62    64   ar
    70    63    64   ar
    71    97    96    2
    72    96    95    1
    73    64    65    1
    74    99   101    1
    75    99    98    1
    76    92    91    2
    77    91    93   am
    78    91    90    1
    79    42    41    1
    80    90    87    1
    81    40    41    2
    82    49    50    1
    83    94    95    1
    84    94    88   am
    85    95    98    1
    86    41    43    1
    87    98   100    1
    88    53    50    1
    89    87    88    1
    90    87    86    1
    91    50    51    1
    92    88    89    2
    93   126   124    1
    94   157   158   ar
    95   157   155   ar
    96    85    83   am
    97    86    79   am
    98   142   143   ar
    99   142   140   ar
   100   158   156   ar
   101    51    52    2
   102   145   143   ar
   103   145   147   ar
   104   125   124    1
   105    83    84    2
   106    83    82    1
   107   124   121    1
   108    80    79    2
   109   155   153   ar
   110   143   141   ar
   111    79    78    1
   112    82    81    1
   113   140   139   ar
   114   147   146   ar
   115   156   154   ar
   116   141   139   ar
   117   141   144   ar
   118   153   154   ar
   119   153   152    1
   120   139   138    1
   121    78    81    1
   122    78    77    1
   123   121   120    1
   124   121   122    1
   125   146   144   ar
   126   116   118   ar
   127   116   115   ar
   128   113   112    2
   129   130   129    2
   130   152   149    1
   131   114   115    1
   132   114   111    1
   133   122   123    2
   134   122   127   am
   135   138   135    1
   136   135   134    1
   137   135   136    1
   138   148   149    1
   139   148   136   am
   140   118   119   ar
   141   112   111    1
   142   115   117   ar
   143   127   128    1
   144   129   134   am
   145   129   128    1
   146   149   150    1
   147   111   110    1
   148   136   137    2
   149   128   131    1
   150   119   117   ar
   151   151   150    2
   152   131   133    1
   153   131   132    1
