@<TRIPOS>MOLECULE
tmp/6fkyA00.pdb
 150 145 0 0 0
SMALL
GASTEIGER

@<TRIPOS>ATOM
      1  N         32.6220   19.7640  -13.0700 N.3    33  ARG33      -0.1245
      2  CA        32.9040   18.6080  -12.2180 C.3    33  ARG33       0.1563
      3  C         33.0520   17.3270  -13.0420 C.2    33  ARG33       0.2260
      4  O         32.4950   17.2090  -14.1240 O.2    33  ARG33      -0.2867
      5  CB        31.7780   18.4380  -11.2020 C.3    33  ARG33       0.0307
      6  CG        31.9230   19.4090  -10.0290 C.3    33  ARG33       0.0489
      7  CD        30.6840   19.5780   -9.1460 C.3    33  ARG33       0.2205
      8  NE        31.0140   19.7740   -7.7160 N.pl3  33  ARG33      -0.0865
      9  CZ        31.7950   20.7310   -7.1750 C.cat  33  ARG33       0.5346
     10  NH1       32.4110   21.6780   -7.9010 N.pl3  33  ARG33       0.1354
     11  NH2       31.9630   20.7260   -5.8550 N.pl3  33  ARG33       0.1354
     12  N         37.7250   23.0180   -8.9900 N.3    45  GLN45      -0.1245
     13  CA        38.6380   22.8510   -7.8760 C.3    45  GLN45       0.1566
     14  C         39.7990   23.8160   -7.8850 C.2    45  GLN45       0.2260
     15  O         40.2690   24.2060   -6.8390 O.2    45  GLN45      -0.2867
     16  CB        39.2530   21.4520   -7.9430 C.3    45  GLN45       0.0367
     17  CG        38.3250   20.3030   -7.5820 C.3    45  GLN45       0.0905
     18  CD        39.1210   19.0540   -7.2300 C.2    45  GLN45       0.2608
     19  OE1       40.0170   18.6790   -7.9910 O.2    45  GLN45      -0.2717
     20  NE2       38.8290   18.4210   -6.0670 N.am   45  GLN45      -0.0878
     21  N         37.8590   27.7740   -7.7020 N.3    48  ALA48      -0.1245
     22  CA        36.8730   28.0070   -6.6610 C.3    48  ALA48       0.1562
     23  C         37.4180   27.9220   -5.2090 C.2    48  ALA48       0.2260
     24  O         36.9030   27.1640   -4.3790 O.2    48  ALA48      -0.2867
     25  CB        35.7020   27.0460   -6.8650 C.3    48  ALA48       0.0290
     26  N         22.0230   23.1270   -3.2900 N.3   102  GLN102     -0.1245
     27  CA        23.4730   23.3530   -3.3760 C.3   102  GLN102      0.1566
     28  C         23.8760   24.1560   -4.6220 C.2   102  GLN102      0.2260
     29  O         25.0680   24.4420   -4.8050 O.2   102  GLN102     -0.2867
     30  CB        24.2370   22.0740   -3.3340 C.3   102  GLN102      0.0367
     31  CG        23.9950   21.2110   -4.5530 C.3   102  GLN102      0.0905
     32  CD        25.2050   20.4650   -4.9550 C.2   102  GLN102      0.2608
     33  OE1       25.2740   19.2260   -4.7750 O.2   102  GLN102     -0.2717
     34  NE2       26.1990   21.2040   -5.5050 N.am  102  GLN102     -0.0878
     35  N         25.1130   27.0810   -0.8480 N.3   120  HIS120     -0.1241
     36  CA        26.4200   27.4230   -1.4040 C.3   120  HIS120      0.1621
     37  C         26.4310   28.8340   -1.9790 C.2   120  HIS120      0.2264
     38  O         27.4140   29.2450   -2.5880 O.2   120  HIS120     -0.2867
     39  CB        26.8140   26.4070   -2.4600 C.3   120  HIS120      0.0745
     40  CG        27.1380   25.0520   -1.9270 C.ar  120  HIS120      0.0817
     41  ND1       27.2460   23.9440   -2.7510 N.ar  120  HIS120     -0.2268
     42  CD2       27.3890   24.6240   -0.6710 C.ar  120  HIS120      0.1154
     43  CE1       27.5710   22.8950   -2.0160 C.ar  120  HIS120      0.1986
     44  NE2       27.6430   23.2790   -0.7500 N.ar  120  HIS120     -0.2212
     45  N         30.1410   29.7670   -1.7940 N.3   183  VAL183     -0.1231
     46  CA        30.9970   29.0470   -0.8810 C.3   183  VAL183      0.1692
     47  C         32.0530   28.2470   -1.6610 C.2   183  VAL183      0.2592
     48  O         31.7160   27.3690   -2.4760 O.2   183  VAL183     -0.2718
     49  CB        30.2060   28.1230    0.0630 C.3   183  VAL183      0.0266
     50  CG1       31.1500   27.4100    1.0110 C.3   183  VAL183      0.0020
     51  CG2       29.2270   28.9360    0.8820 C.3   183  VAL183      0.0020
     52  N         33.3300   28.5740   -1.3900 N.am  184  TRP184     -0.1962
     53  CA        34.4620   27.9840   -2.0780 C.3   184  TRP184      0.1771
     54  C         35.0020   26.7540   -1.3490 C.2   184  TRP184      0.2620
     55  O         34.5830   26.4600   -0.2230 O.2   184  TRP184     -0.2715
     56  CB        35.5460   29.0310   -2.2750 C.3   184  TRP184      0.0590
     57  CG        35.2820   29.9860   -3.4110 C.ar  184  TRP184      0.0006
     58  CD1       34.5280   29.7540   -4.5470 C.ar  184  TRP184      0.0946
     59  CD2       35.7810   31.3130   -3.5400 C.ar  184  TRP184      0.0152
     60  NE1       34.5080   30.8600   -5.3350 N.ar  184  TRP184     -0.2442
     61  CE2       35.2730   31.8340   -4.7520 C.ar  184  TRP184      0.0810
     62  CE3       36.5910   32.1170   -2.7460 C.ar  184  TRP184      0.0012
     63  CZ2       35.5470   33.1380   -5.1850 C.ar  184  TRP184      0.0191
     64  CZ3       36.8770   33.3940   -3.1750 C.ar  184  TRP184      0.0001
     65  CH2       36.3540   33.8990   -4.3930 C.ar  184  TRP184      0.0015
     66  N         35.8820   26.0110   -2.0260 N.am  185  PHE185     -0.1960
     67  CA        36.4500   24.7930   -1.4600 C.3   185  PHE185      0.1771
     68  C         37.3060   25.1730   -0.2760 C.2   185  PHE185      0.2620
     69  O         38.1360   26.0900   -0.3510 O.2   185  PHE185     -0.2715
     70  CB        37.2830   24.0070   -2.4660 C.3   185  PHE185      0.0574
     71  CG        36.4650   23.2050   -3.4200 C.ar  185  PHE185     -0.0200
     72  CD1       35.8240   22.0400   -3.0130 C.ar  185  PHE185     -0.0042
     73  CD2       36.3370   23.6010   -4.7540 C.ar  185  PHE185     -0.0042
     74  CE1       35.0480   21.3130   -3.9080 C.ar  185  PHE185     -0.0003
     75  CE2       35.5620   22.8600   -5.6530 C.ar  185  PHE185     -0.0003
     76  CZ        34.9250   21.7200   -5.2250 C.ar  185  PHE185     -0.0000
     77  N         37.0720   24.4810    0.8260 N.am  186  GLY186     -0.1940
     78  CA        37.7080   24.8020    2.0860 C.3   186  GLY186      0.2014
     79  C         37.2110   26.0280    2.8230 C.2   186  GLY186      0.2639
     80  O         37.9170   26.5220    3.6700 O.2   186  GLY186     -0.2714
     81  N         36.0040   26.5210    2.5260 N.am  187  GLU187     -0.1963
     82  CA        35.3280   27.5300    3.4040 C.3   187  GLU187      0.1733
     83  C         34.1510   26.8770    4.0880 C.2   187  GLU187      0.2617
     84  O         33.7280   25.7440    3.7100 O.2   187  GLU187     -0.2715
     85  CB        34.8140   28.7460    2.6320 C.3   187  GLU187      0.0429
     86  CG        35.7520   29.2950    1.5720 C.3   187  GLU187      0.1163
     87  CD        35.3150   30.6450    1.0840 C.2   187  GLU187      0.3649
     88  OE1       34.0880   30.8620    0.8550 O.co2 187  GLU187     -0.2457
     89  OE2       36.2120   31.4940    0.9570 O.co2 187  GLU187     -0.2457
     90  N         33.5810   27.5860    5.0520 N.am  188  THR188     -0.1937
     91  CA        32.5150   26.9670    5.8140 C.3   188  THR188      0.2028
     92  C         31.1680   27.4480    5.3690 C.2   188  THR188      0.2642
     93  O         31.0200   28.5240    4.9130 O.2   188  THR188     -0.2714
     94  CB        32.7180   27.2170    7.2970 C.3   188  THR188      0.1808
     95  OG1       33.0500   28.5830    7.4850 O.3   188  THR188     -0.2208
     96  CG2       33.8730   26.3620    7.8190 C.3   188  THR188      0.0379
     97  N         30.1940   26.6060    5.4930 N.am  189  LEU189     -0.1977
     98  CA        28.8180   26.9910    5.2510 C.3   189  LEU189      0.1596
     99  C         28.3530   27.9920    6.3000 C.2   189  LEU189      0.2287
    100  O         28.8290   27.9790    7.4490 O.2   189  LEU189     -0.2864
    101  CB        27.9080   25.7630    5.3040 C.3   189  LEU189      0.0297
    102  CG        28.1670   24.5820    4.3590 C.3   189  LEU189      0.0022
    103  CD1       27.2090   23.4680    4.6210 C.3   189  LEU189      0.0001
    104  CD2       27.9940   24.9500    2.9150 C.3   189  LEU189      0.0001
    105  N         26.4880   29.4770    9.2070 N.3   191  SER191     -0.1217
    106  CA        25.8550   28.7820   10.3420 C.3   191  SER191      0.1889
    107  C         24.3530   29.0520   10.5480 C.2   191  SER191      0.2288
    108  O         23.6140   28.1150   10.8100 O.2   191  SER191     -0.2866
    109  CB        26.6700   28.9420   11.6260 C.3   191  SER191      0.2089
    110  OG        27.7220   27.9780   11.5410 O.3   191  SER191     -0.2183
    111  N         22.3260   26.9440    8.1170 N.3   194  LEU194     -0.1245
    112  CA        22.2300   25.5900    8.6470 C.3   194  LEU194      0.1561
    113  C         21.2460   25.4720    9.7850 C.2   194  LEU194      0.2260
    114  O         20.5930   24.4620    9.8890 O.2   194  LEU194     -0.2867
    115  CB        23.5770   25.0660    9.0800 C.3   194  LEU194      0.0270
    116  CG        24.5730   24.8380    7.9510 C.3   194  LEU194      0.0019
    117  CD1       25.9080   24.4270    8.5640 C.3   194  LEU194      0.0001
    118  CD2       24.0890   23.8120    6.9510 C.3   194  LEU194      0.0001
    119  N         25.7420   11.3710   -0.2910 N.3   216  VAL216     -0.1231
    120  CA        26.8710   12.2470   -0.6170 C.3   216  VAL216      0.1692
    121  C         26.5970   13.6370   -0.0300 C.2   216  VAL216      0.2592
    122  O         25.4340   13.9820    0.3100 O.2   216  VAL216     -0.2718
    123  CB        27.0770   12.2480   -2.1640 C.3   216  VAL216      0.0266
    124  CG1       28.2940   13.0570   -2.6050 C.3   216  VAL216      0.0020
    125  CG2       27.2350   10.8280   -2.6420 C.3   216  VAL216      0.0020
    126  N         27.6600   14.4440    0.1090 N.am  217  TYR217     -0.1976
    127  CA        27.5490   15.8610    0.4440 C.3   217  TYR217      0.1639
    128  C         26.7300   16.4830   -0.6490 C.2   217  TYR217      0.2290
    129  O         27.0470   16.2490   -1.8040 O.2   217  TYR217     -0.2864
    130  CB        28.9220   16.5650    0.4060 C.3   217  TYR217      0.0560
    131  CG        28.8910   18.0760    0.7330 C.ar  217  TYR217     -0.0198
    132  CD1       28.6220   18.5010    2.0140 C.ar  217  TYR217     -0.0009
    133  CD2       29.0090   19.0620   -0.2630 C.ar  217  TYR217     -0.0009
    134  CE1       28.5590   19.8700    2.3320 C.ar  217  TYR217      0.0417
    135  CE2       28.9520   20.4160    0.0500 C.ar  217  TYR217      0.0417
    136  CZ        28.7110   20.8130    1.3540 C.ar  217  TYR217      0.1957
    137  OH        28.6440   22.1240    1.7480 O.3   217  TYR217     -0.2866
    138  N         23.7450   14.2660    2.5870 N.3   220  ALA220     -0.1231
    139  CA        24.1080   13.4430    3.7540 C.3   220  ALA220      0.1694
    140  C         24.1690   14.1350    5.1190 C.2   220  ALA220      0.2591
    141  O         24.2470   13.4640    6.1580 O.2   220  ALA220     -0.2718
    142  CB        25.4020   12.7190    3.4930 C.3   220  ALA220      0.0304
    143  N         24.1700   15.4520    5.1210 N.am  221  MET221     -0.1979
    144  CA        24.0990   16.1710    6.3670 C.3   221  MET221      0.1605
    145  C         22.7000   16.1900    6.9600 C.2   221  MET221      0.2287
    146  O         22.5240   16.4700    8.1550 O.2   221  MET221     -0.2864
    147  CB        24.4860   17.6070    6.1450 C.3   221  MET221      0.0413
    148  CG        25.9320   17.8720    6.0210 C.3   221  MET221      0.0598
    149  SD        26.0630   19.6610    6.2130 S.3   221  MET221     -0.1393
    150  CE        25.5690   20.1040    4.5520 C.3   221  MET221      0.0692
@<TRIPOS>BOND
     1     4     3    2
     2     1     2    1
     3     3     2    1
     4     2     5    1
     5     5     6    1
     6     6     7    1
     7     7     8    1
     8    12    13    1
     9    19    18    2
    10    16    13    1
    11    16    17    1
    12    10     9    1
    13    14    13    1
    14    14    15    2
    15     8     9    2
    16    21    22    1
    17    17    18    1
    18    18    20   am
    19     9    11    1
    20    25    22    1
    21    22    23    1
    22    75    76   ar
    23    75    73   ar
    24    34    32   am
    25    60    61   ar
    26    60    58   ar
    27    76    74   ar
    28    23    24    2
    29    63    61   ar
    30    63    65   ar
    31    32    33    2
    32    32    31    1
    33    29    28    2
    34    73    71   ar
    35    61    59   ar
    36    28    27    1
    37    31    30    1
    38    58    57   ar
    39    65    64   ar
    40    74    72   ar
    41    59    57   ar
    42    59    62   ar
    43    71    72   ar
    44    71    70    1
    45    57    56    1
    46    27    30    1
    47    27    26    1
    48    64    62   ar
    49    41    43   ar
    50    41    40   ar
    51   125   123    1
    52   124   123    1
    53    38    37    2
    54    48    47    2
    55    70    67    1
    56    39    40    1
    57    39    36    1
    58    56    53    1
    59   123   120    1
    60    53    52    1
    61    53    54    1
    62    66    67    1
    63    66    54   am
    64    43    44   ar
    65    37    36    1
    66    40    42   ar
    67   129   128    2
    68    45    46    1
    69    47    52   am
    70    47    46    1
    71    67    68    1
    72    36    35    1
    73    54    55    2
    74    46    49    1
    75    44    42   ar
    76   128   127    1
    77   120   119    1
    78   120   121    1
    79    69    68    2
    80    68    77   am
    81   133   135   ar
    82   133   131   ar
    83   121   126   am
    84   121   122    2
    85   135   136   ar
    86    49    51    1
    87    49    50    1
    88   126   127    1
    89   130   127    1
    90   130   131    1
    91   131   132   ar
    92    77    78    1
    93    88    87   ar
    94    89    87   ar
    95    87    86    1
    96   136   137    1
    97   136   134   ar
    98    86    85    1
    99   132   134   ar
   100    78    79    1
   101    81    79   am
   102    81    82    1
   103   138   139    1
   104    85    82    1
   105    79    80    2
   106   104   102    1
   107    82    83    1
   108   142   139    1
   109    84    83    2
   110   139   140    1
   111    83    90   am
   112   102   103    1
   113   102   101    1
   114   150   149    1
   115    93    92    2
   116    90    91    1
   117   140   143   am
   118   140   141    2
   119   143   144    1
   120    98   101    1
   121    98    97    1
   122    98    99    1
   123    92    97   am
   124    92    91    1
   125    91    94    1
   126   148   147    1
   127   148   149    1
   128   147   144    1
   129    99   100    2
   130   144   145    1
   131   118   116    1
   132   145   146    2
   133    94    95    1
   134    94    96    1
   135   116   117    1
   136   116   115    1
   137   111   112    1
   138   112   115    1
   139   112   113    1
   140   105   106    1
   141   113   114    2
   142   106   107    1
   143   106   109    1
   144   107   108    2
   145   110   109    1
