@<TRIPOS>MOLECULE
tmp/6fl3A02.pdb
 110 104 0 0 0
SMALL
GASTEIGER

@<TRIPOS>ATOM
      1  N         -3.5760   -8.1070   -0.9640 N.3    27  GLY27      -0.1225
      2  CA        -3.4170   -9.2140   -1.8880 C.3    27  GLY27       0.1811
      3  C         -2.2020  -10.0910   -1.6370 C.2    27  GLY27       0.2280
      4  O         -2.1930  -11.2540   -2.0540 O.2    27  GLY27      -0.2866
      5  N          0.0560  -17.4200   -3.6220 N.3    52  ARG52      -0.1245
      6  CA        -1.0200  -17.6630   -4.5720 C.3    52  ARG52       0.1563
      7  C         -1.0350  -19.1470   -4.9160 C.2    52  ARG52       0.2260
      8  O         -0.0810  -19.6610   -5.5130 O.2    52  ARG52      -0.2867
      9  CB        -0.8320  -16.8050   -5.8190 C.3    52  ARG52       0.0307
     10  CG        -2.0680  -16.7330   -6.7100 C.3    52  ARG52       0.0489
     11  CD        -3.3240  -16.4100   -5.8870 C.3    52  ARG52       0.2205
     12  NE        -3.1520  -15.2620   -4.9860 N.pl3  52  ARG52      -0.0865
     13  CZ        -3.9510  -14.1940   -4.9580 C.cat  52  ARG52       0.5346
     14  NH1       -4.9920  -14.1140   -5.7770 N.pl3  52  ARG52       0.1354
     15  NH2       -3.7170  -13.2050   -4.1000 N.pl3  52  ARG52       0.1354
     16  N        -13.3500  -14.7950   -0.1520 N.3   134  TRP134     -0.1227
     17  CA       -12.6480  -14.7050   -1.4280 C.3   134  TRP134      0.1737
     18  C        -11.1340  -14.5870   -1.2290 C.2   134  TRP134      0.2595
     19  O        -10.3580  -15.1470   -2.0080 O.2   134  TRP134     -0.2718
     20  CB       -13.2190  -13.5550   -2.2570 C.3   134  TRP134      0.0564
     21  CG       -12.9290  -12.1970   -1.7360 C.ar  134  TRP134      0.0003
     22  CD1      -13.6420  -11.5140   -0.7990 C.ar  134  TRP134      0.0946
     23  CD2      -11.8600  -11.3360   -2.1360 C.ar  134  TRP134      0.0152
     24  NE1      -13.0710  -10.2820   -0.5700 N.ar  134  TRP134     -0.2442
     25  CE2      -11.9800  -10.1420   -1.3840 C.ar  134  TRP134      0.0810
     26  CE3      -10.8070  -11.4580   -3.0480 C.ar  134  TRP134      0.0012
     27  CZ2      -11.0860   -9.0750   -1.5140 C.ar  134  TRP134      0.0191
     28  CZ3       -9.9130  -10.3890   -3.1830 C.ar  134  TRP134      0.0001
     29  CH2      -10.0590   -9.2180   -2.4100 C.ar  134  TRP134      0.0015
     30  N        -10.6870  -13.9090   -0.1760 N.am  135  ARG135     -0.1980
     31  CA        -9.2610  -13.9100    0.1190 C.3   135  ARG135      0.1597
     32  C         -8.7730  -15.3220    0.4070 C.2   135  ARG135      0.2287
     33  O         -7.6860  -15.7070   -0.0250 O.2   135  ARG135     -0.2864
     34  CB        -8.9520  -12.9920    1.3050 C.3   135  ARG135      0.0334
     35  CG        -9.2290  -11.5320    1.0750 C.3   135  ARG135      0.0492
     36  CD        -8.1710  -10.9040    0.1640 C.3   135  ARG135      0.2205
     37  NE        -8.1340   -9.4590    0.3320 N.pl3 135  ARG135     -0.0865
     38  CZ        -7.4780   -8.6170   -0.4600 C.cat 135  ARG135      0.5346
     39  NH1       -6.7920   -9.0660   -1.5010 N.pl3 135  ARG135      0.1354
     40  NH2       -7.5220   -7.3170   -0.2140 N.pl3 135  ARG135      0.1354
     41  N         -8.3470  -17.2660   -2.7380 N.3   138  ALA138     -0.1245
     42  CA        -7.2250  -16.8490   -3.5700 C.3   138  ALA138      0.1562
     43  C         -5.8640  -17.2180   -2.9790 C.2   138  ALA138      0.2260
     44  O         -4.9230  -17.4650   -3.7390 O.2   138  ALA138     -0.2867
     45  CB        -7.2800  -15.3410   -3.8140 C.3   138  ALA138      0.0290
     46  N        -11.0080    2.4920  -13.6370 N.3   198  HIS198     -0.1241
     47  CA       -11.0230    1.1490  -13.0880 C.3   198  HIS198      0.1621
     48  C        -12.2840    0.9010  -12.2790 C.2   198  HIS198      0.2264
     49  O        -12.7730   -0.2290  -12.2290 O.2   198  HIS198     -0.2867
     50  CB        -9.7780    0.9070  -12.2360 C.3   198  HIS198      0.0745
     51  CG        -9.4490   -0.5370  -12.0690 C.ar  198  HIS198      0.0817
     52  ND1       -8.2170   -0.9780  -11.6220 N.ar  198  HIS198     -0.2268
     53  CD2      -10.1890   -1.6490  -12.3080 C.ar  198  HIS198      0.1154
     54  CE1       -8.2200   -2.3010  -11.5800 C.ar  198  HIS198      0.1986
     55  NE2       -9.4050   -2.7330  -11.9890 N.ar  198  HIS198     -0.2212
     56  N        -14.8360   -0.9230  -14.3920 N.3   201  LEU201     -0.1231
     57  CA       -14.4910   -2.3230  -14.5800 C.3   201  LEU201      0.1693
     58  C        -14.6710   -3.1180  -13.2900 C.2   201  LEU201      0.2591
     59  O        -15.1390   -4.2590  -13.3130 O.2   201  LEU201     -0.2718
     60  CB       -13.0550   -2.4080  -15.0690 C.3   201  LEU201      0.0284
     61  CG       -12.5670   -3.7300  -15.6030 C.3   201  LEU201      0.0019
     62  CD1      -13.2240   -3.9930  -16.9720 C.3   201  LEU201      0.0001
     63  CD2      -11.0770   -3.6110  -15.6900 C.3   201  LEU201      0.0001
     64  N        -14.2790   -2.5440  -12.1550 N.am  202  LYS202     -0.1980
     65  CA       -14.4860   -3.2340  -10.8870 C.3   202  LYS202      0.1596
     66  C        -15.9580   -3.5640  -10.6740 C.2   202  LYS202      0.2287
     67  O        -16.2930   -4.6350  -10.1510 O.2   202  LYS202     -0.2864
     68  CB       -13.9580   -2.3800   -9.7330 C.3   202  LYS202      0.0298
     69  CG       -12.4290   -2.2980   -9.6510 C.3   202  LYS202      0.0038
     70  CD       -11.9760   -1.2760   -8.5930 C.3   202  LYS202      0.0206
     71  CE       -10.4720   -1.3420   -8.3340 C.3   202  LYS202      0.1093
     72  NZ       -10.0030   -2.6760   -7.8650 N.3   202  LYS202     -0.1314
     73  N        -17.1470   -6.6430  -12.5640 N.3   205  TYR205     -0.1241
     74  CA       -16.7120   -7.9140  -11.9960 C.3   205  TYR205      0.1605
     75  C        -17.1930   -8.1150  -10.5650 C.2   205  TYR205      0.2264
     76  O        -16.7370   -9.0480   -9.8950 O.2   205  TYR205     -0.2867
     77  CB       -15.1830   -8.0410  -12.0740 C.3   205  TYR205      0.0534
     78  CG       -14.7180   -8.4100  -13.4590 C.ar  205  TYR205     -0.0201
     79  CD1      -14.5920   -7.4470  -14.4400 C.ar  205  TYR205     -0.0009
     80  CD2      -14.4370   -9.7280  -13.7930 C.ar  205  TYR205     -0.0009
     81  CE1      -14.1990   -7.7670  -15.7070 C.ar  205  TYR205      0.0417
     82  CE2      -14.0340  -10.0690  -15.0630 C.ar  205  TYR205      0.0417
     83  CZ       -13.9180   -9.0810  -16.0250 C.ar  205  TYR205      0.1957
     84  OH       -13.5120   -9.3950  -17.3100 O.3   205  TYR205     -0.2866
     85  N        -16.6750   -6.6170   -7.9400 N.3   207  GLU207     -0.1245
     86  CA       -15.6240   -6.3800   -6.9620 C.3   207  GLU207      0.1567
     87  C        -15.9170   -5.1820   -6.0590 C.2   207  GLU207      0.2260
     88  O        -15.2080   -4.9860   -5.0690 O.2   207  GLU207     -0.2867
     89  CB       -14.2740   -6.1900   -7.6880 C.3   207  GLU207      0.0388
     90  CG       -13.8630   -7.4090   -8.4730 C.3   207  GLU207      0.1160
     91  CD       -12.5160   -7.2710   -9.2070 C.2   207  GLU207      0.3649
     92  OE1      -12.1700   -6.1770   -9.6990 O.co2 207  GLU207     -0.2457
     93  OE2      -11.8000   -8.2890   -9.2880 O.co2 207  GLU207     -0.2457
     94  N         -4.4140   -5.4590  -18.2580 N.3   410  LEU410     -0.1245
     95  CA        -5.3870   -4.7540  -17.4330 C.3   410  LEU410      0.1561
     96  C         -5.6530   -3.3520  -17.9810 C.2   410  LEU410      0.2260
     97  O         -6.8140   -2.9450  -18.1380 O.2   410  LEU410     -0.2867
     98  CB        -4.8990   -4.6990  -15.9800 C.3   410  LEU410      0.0270
     99  CG        -5.7980   -3.9570  -14.9820 C.3   410  LEU410      0.0019
    100  CD1       -7.1880   -4.5670  -14.9430 C.3   410  LEU410      0.0001
    101  CD2       -5.1820   -3.9270  -13.5900 C.3   410  LEU410      0.0001
    102  N         -7.7500   -3.5550  -20.9760 N.3   413  LYS413     -0.1245
    103  CA        -9.1160   -3.8470  -20.5690 C.3   413  LYS413      0.1561
    104  C         -9.8200   -2.6040  -20.0380 C.2   413  LYS413      0.2260
    105  O        -11.0110   -2.3920  -20.3010 O.2   413  LYS413     -0.2867
    106  CB        -9.0980   -4.9460  -19.5080 C.3   413  LYS413      0.0271
    107  CG       -10.3860   -5.7230  -19.3690 C.3   413  LYS413      0.0035
    108  CD       -10.1430   -6.9390  -18.5170 C.3   413  LYS413      0.0206
    109  CE       -11.3120   -7.8910  -18.5950 C.3   413  LYS413      0.1093
    110  NZ       -10.9980   -9.1340  -17.8490 N.3   413  LYS413     -0.1314
@<TRIPOS>BOND
     1   102   103    1
     2   103   104    1
     3   103   106    1
     4   105   104    2
     5   106   107    1
     6   107   108    1
     7   109   108    1
     8   109   110    1
     9    94    95    1
    10    97    96    2
    11    96    95    1
    12    95    98    1
    13    84    83    1
    14    62    61    1
    15    83    81   ar
    16    83    82   ar
    17    98    99    1
    18    81    79   ar
    19    63    61    1
    20    61    60    1
    21    60    57    1
    22    82    80   ar
    23    99   100    1
    24    99   101    1
    25    57    56    1
    26    57    58    1
    27    79    78   ar
    28    80    78   ar
    29    46    47    1
    30    78    77    1
    31    59    58    2
    32    58    64   am
    33    47    48    1
    34    47    50    1
    35    73    74    1
    36    53    51   ar
    37    53    55   ar
    38    48    49    2
    39    50    51    1
    40    64    65    1
    41    77    74    1
    42    51    52   ar
    43    74    75    1
    44    55    54   ar
    45    52    54   ar
    46    65    66    1
    47    65    68    1
    48    66    67    2
    49    75    76    2
    50    68    69    1
    51    92    91   ar
    52    69    70    1
    53    93    91   ar
    54    91    90    1
    55    70    71    1
    56    90    89    1
    57    71    72    1
    58    85    86    1
    59    89    86    1
    60    86    87    1
    61    10    11    1
    62    10     9    1
    63    87    88    2
    64    11    12    1
    65     9     6    1
    66    14    13    1
    67     8     7    2
    68    12    13    2
    69    13    15    1
    70     7     6    1
    71     6     5    1
    72    45    42    1
    73    44    43    2
    74    42    43    1
    75    42    41    1
    76    28    26   ar
    77    28    29   ar
    78    26    23   ar
    79    29    27   ar
    80    20    21    1
    81    20    17    1
    82    23    21   ar
    83    23    25   ar
    84     4     3    2
    85    19    18    2
    86     2     3    1
    87     2     1    1
    88    21    22   ar
    89    27    25   ar
    90    39    38    1
    91    17    18    1
    92    17    16    1
    93    25    24   ar
    94    18    30   am
    95    22    24   ar
    96    38    40    1
    97    38    37    2
    98    30    31    1
    99    33    32    2
   100    31    32    1
   101    31    34    1
   102    36    37    1
   103    36    35    1
   104    35    34    1
