@<TRIPOS>MOLECULE
tmp/6fl3A01.pdb
 194 182 0 0 0
SMALL
GASTEIGER

@<TRIPOS>ATOM
      1  N         -5.3290   -8.8550   12.1150 N.3    23  ARG23      -0.1231
      2  CA        -5.5670   -7.4330   11.9020 C.3    23  ARG23       0.1694
      3  C         -6.0600   -7.1440   10.4930 C.2    23  ARG23       0.2593
      4  O         -7.0220   -6.3940   10.3100 O.2    23  ARG23      -0.2718
      5  CB        -4.2890   -6.6260   12.1820 C.3    23  ARG23       0.0321
      6  CG        -4.4610   -5.1240   11.9580 C.3    23  ARG23       0.0489
      7  CD        -5.4910   -4.5260   12.9020 C.3    23  ARG23       0.2205
      8  NE        -5.0320   -4.5960   14.2810 N.pl3  23  ARG23      -0.0865
      9  CZ        -4.0640   -3.8310   14.7740 C.cat  23  ARG23       0.5346
     10  NH1       -3.4610   -2.9410   13.9990 N.pl3  23  ARG23       0.1354
     11  NH2       -3.6950   -3.9610   16.0370 N.pl3  23  ARG23       0.1354
     12  N         -5.4460   -7.7440    9.4830 N.am   24  GLY24      -0.1942
     13  CA        -5.9150   -7.5460    8.1240 C.3    24  GLY24       0.2014
     14  C         -4.9930   -8.2190    7.1370 C.2    24  GLY24       0.2639
     15  O         -4.1450   -9.0340    7.5140 O.2    24  GLY24      -0.2714
     16  N         -5.1640   -7.8480    5.8620 N.am   25  GLU25      -0.1963
     17  CA        -4.4240   -8.4200    4.7440 C.3    25  GLU25       0.1733
     18  C         -4.8120   -7.6830    3.4810 C.2    25  GLU25       0.2617
     19  O         -5.9330   -7.1690    3.3720 O.2    25  GLU25      -0.2715
     20  CB        -4.7130   -9.9150    4.5550 C.3    25  GLU25       0.0429
     21  CG        -6.0760  -10.1990    3.9750 C.3    25  GLU25       0.1163
     22  CD        -6.4150  -11.6850    3.9430 C.2    25  GLU25       0.3649
     23  OE1       -5.8660  -12.4250    3.0900 O.co2  25  GLU25      -0.2457
     24  OE2       -7.2230  -12.1210    4.7890 O.co2  25  GLU25      -0.2457
     25  N         -3.8780   -7.5960    2.5470 N.am   26  GLY26      -0.1940
     26  CA        -4.1660   -7.1520    1.1990 C.3    26  GLY26       0.2014
     27  C         -4.0220   -8.3350    0.2690 C.2    26  GLY26       0.2639
     28  O         -4.2790   -9.4690    0.6790 O.2    26  GLY26      -0.2714
     29  N         -3.5760   -8.1070   -0.9640 N.am   27  GLY27      -0.1939
     30  CA        -3.4170   -9.2140   -1.8880 C.3    27  GLY27       0.2014
     31  C         -2.2020  -10.0910   -1.6370 C.2    27  GLY27       0.2639
     32  O         -2.1930  -11.2540   -2.0540 O.2    27  GLY27      -0.2714
     33  N         -1.1790   -9.5720   -0.9630 N.am   28  ALA28      -0.1963
     34  CA         0.0680  -10.3100   -0.8340 C.3    28  ALA28       0.1728
     35  C          0.3980  -10.7480    0.5870 C.2    28  ALA28       0.2616
     36  O          1.0750  -11.7600    0.7620 O.2    28  ALA28      -0.2715
     37  CB         1.2250   -9.4740   -1.3810 C.3    28  ALA28       0.0334
     38  N         -0.0920  -10.0530    1.6050 N.am   29  ASN29      -0.1972
     39  CA         0.3830  -10.2620    2.9640 C.3    29  ASN29       0.1688
     40  C         -0.7610  -10.3500    3.9540 C.2    29  ASN29       0.2292
     41  O         -1.8050   -9.7100    3.8060 O.2    29  ASN29      -0.2864
     42  CB         1.3220   -9.1310    3.4100 C.3    29  ASN29       0.1181
     43  CG         2.5920   -9.0790    2.5910 C.2    29  ASN29       0.2629
     44  OD1        3.5290   -9.8410    2.8360 O.2    29  ASN29      -0.2716
     45  ND2        2.6300   -8.1770    1.6080 N.am   29  ASN29      -0.0877
     46  N         -1.4930   -9.7260    8.0460 N.3    31  VAL31      -0.1245
     47  CA        -0.9340   -8.9460    9.1490 C.3    31  VAL31       0.1561
     48  C         -1.6210   -9.3380   10.4500 C.2    31  VAL31       0.2260
     49  O         -2.8540   -9.3080   10.5480 O.2    31  VAL31      -0.2867
     50  CB        -1.0450   -7.4300    8.8910 C.3    31  VAL31       0.0252
     51  CG1       -0.6120   -6.6280   10.1370 C.3    31  VAL31       0.0019
     52  CG2       -0.2150   -7.0580    7.6740 C.3    31  VAL31       0.0019
     53  N          3.2380   -5.5350   14.8370 N.3    45  VAL45      -0.1245
     54  CA         2.4870   -6.4680   14.0080 C.3    45  VAL45       0.1561
     55  C          3.4770   -7.4120   13.3600 C.2    45  VAL45       0.2260
     56  O          4.6610   -7.1040   13.1860 O.2    45  VAL45      -0.2867
     57  CB         1.6520   -5.7740   12.9280 C.3    45  VAL45       0.0252
     58  CG1        0.7330   -4.7650   13.5650 C.3    45  VAL45       0.0019
     59  CG2        2.5740   -5.1020   11.9270 C.3    45  VAL45       0.0019
     60  N          3.8960   -9.4210    9.7590 N.3    47  ARG47      -0.1245
     61  CA         3.4540   -9.4320    8.3730 C.3    47  ARG47       0.1563
     62  C          3.9590  -10.7210    7.7590 C.2    47  ARG47       0.2260
     63  O          5.1690  -10.9640    7.7340 O.2    47  ARG47      -0.2867
     64  CB         3.9910   -8.2190    7.6150 C.3    47  ARG47       0.0307
     65  CG         3.4980   -8.0260    6.1840 C.3    47  ARG47       0.0489
     66  CD         4.0400   -6.6940    5.7630 C.3    47  ARG47       0.2205
     67  NE         3.5990   -6.1220    4.4880 N.pl3  47  ARG47      -0.0865
     68  CZ         4.3220   -6.1590    3.3680 C.cat  47  ARG47       0.5346
     69  NH1        5.4780   -6.8110    3.3480 N.pl3  47  ARG47       0.1354
     70  NH2        3.8920   -5.5600    2.2710 N.pl3  47  ARG47       0.1354
     71  N          6.8530   -5.2870   12.3360 N.3   151  LEU151     -0.1231
     72  CA         6.7180   -3.8530   12.1650 C.3   151  LEU151      0.1693
     73  C          6.0660   -3.2650   13.3970 C.2   151  LEU151      0.2592
     74  O          5.4520   -3.9750   14.1880 O.2   151  LEU151     -0.2718
     75  CB         5.8540   -3.4780   10.9560 C.3   151  LEU151      0.0284
     76  CG         6.2150   -3.9970    9.5830 C.3   151  LEU151      0.0019
     77  CD1        5.1510   -3.4810    8.6390 C.3   151  LEU151      0.0001
     78  CD2        7.5960   -3.4780    9.2130 C.3   151  LEU151      0.0001
     79  N          6.1760   -1.9450   13.5200 N.am  152  ASN152     -0.1960
     80  CA         5.4130   -1.2310   14.5220 C.3   152  ASN152      0.1819
     81  C          3.9480   -1.1980   14.1270 C.2   152  ASN152      0.2621
     82  O          3.6130   -1.0070   12.9540 O.2   152  ASN152     -0.2715
     83  CB         5.9490    0.1900   14.6950 C.3   152  ASN152      0.1195
     84  CG         7.2670    0.2270   15.4390 C.2   152  ASN152      0.2630
     85  OD1        7.4050   -0.3540   16.5200 O.2   152  ASN152     -0.2716
     86  ND2        8.2580    0.8890   14.8510 N.am  152  ASN152     -0.0877
     87  N          3.0780   -1.3980   15.1180 N.am  153  ASP153     -0.1957
     88  CA         1.6270   -1.3010   14.9510 C.3   153  ASP153      0.1840
     89  C          1.2290    0.1680   14.9470 C.2   153  ASP153      0.2622
     90  O          1.0250    0.7670   15.9980 O.2   153  ASP153     -0.2715
     91  CB         0.9110   -2.0420   16.0710 C.3   153  ASP153      0.1450
     92  CG        -0.5910   -2.0970   15.8750 C.2   153  ASP153      0.3671
     93  OD1       -1.1170   -1.3630   15.0080 O.co2 153  ASP153     -0.2456
     94  OD2       -1.2480   -2.8820   16.5990 O.co2 153  ASP153     -0.2456
     95  N          1.0860    0.7520   13.7640 N.am  154  HIS154     -0.1959
     96  CA         0.7020    2.1510   13.6980 C.3   154  HIS154      0.1787
     97  C         -0.6950    2.4160   14.2430 C.2   154  HIS154      0.2620
     98  O         -1.1270    3.5700   14.2050 O.2   154  HIS154     -0.2715
     99  CB         0.8170    2.6470   12.2560 C.3   154  HIS154      0.0785
    100  CG         2.1120    2.2780   11.6000 C.ar  154  HIS154      0.0821
    101  ND1        3.3340    2.5140   12.1890 N.ar  154  HIS154     -0.2267
    102  CD2        2.3730    1.6710   10.4170 C.ar  154  HIS154      0.1154
    103  CE1        4.2930    2.0690   11.3990 C.ar  154  HIS154      0.1986
    104  NE2        3.7370    1.5590   10.3130 N.ar  154  HIS154     -0.2212
    105  N         -1.3990    1.4080   14.7500 N.am  155  SER155     -0.1950
    106  CA        -2.6980    1.6120   15.3770 C.3   155  SER155      0.1924
    107  C         -2.6040    1.9530   16.8580 C.2   155  SER155      0.2314
    108  O         -3.6430    2.1000   17.5090 O.2   155  SER155     -0.2863
    109  CB        -3.5850    0.3720   15.2020 C.3   155  SER155      0.2116
    110  OG        -4.2140    0.3760   13.9330 O.3   155  SER155     -0.2180
    111  N         -6.1390    4.5930    7.8510 N.3   168  GLU168     -0.1245
    112  CA        -5.3770    4.0720    6.7270 C.3   168  GLU168      0.1567
    113  C         -5.9620    4.6300    5.4360 C.2   168  GLU168      0.2260
    114  O         -7.1700    4.5210    5.1930 O.2   168  GLU168     -0.2867
    115  CB        -5.3800    2.5420    6.7310 C.3   168  GLU168      0.0388
    116  CG        -4.6090    1.9340    5.5970 C.3   168  GLU168      0.1160
    117  CD        -4.8510    0.4290    5.4430 C.2   168  GLU168      0.3649
    118  OE1       -4.1330   -0.1960    4.6340 O.co2 168  GLU168     -0.2457
    119  OE2       -5.7420   -0.1250    6.1260 O.co2 168  GLU168     -0.2457
    120  N         -5.3310    4.3060    1.3360 N.3   170  LYS170     -0.1245
    121  CA        -4.6960    3.6950    0.1660 C.3   170  LYS170      0.1561
    122  C         -4.9270    4.6240   -1.0160 C.2   170  LYS170      0.2260
    123  O         -5.9350    4.4950   -1.7220 O.2   170  LYS170     -0.2867
    124  CB        -5.2630    2.3000   -0.1230 C.3   170  LYS170      0.0271
    125  CG        -4.4920    1.5040   -1.1920 C.3   170  LYS170      0.0035
    126  CD        -5.0710    0.1090   -1.4670 C.3   170  LYS170      0.0206
    127  CE        -4.2740   -0.6020   -2.5960 C.3   170  LYS170      0.1093
    128  NZ        -4.7200   -2.0090   -2.8260 N.3   170  LYS170     -0.1314
    129  N         -9.7050    3.2150    6.0760 N.3   243  ARG243     -0.1245
    130  CA       -10.0310    2.4670    7.2790 C.3   243  ARG243      0.1563
    131  C         -9.7550    3.3430    8.4860 C.2   243  ARG243      0.2260
    132  O         -8.9090    4.2420    8.4440 O.2   243  ARG243     -0.2867
    133  CB        -9.2270    1.1600    7.3850 C.3   243  ARG243      0.0307
    134  CG        -9.5020    0.1680    6.2590 C.3   243  ARG243      0.0489
    135  CD        -8.7540   -1.1640    6.4220 C.3   243  ARG243      0.2205
    136  NE        -9.1660   -2.0600    5.3530 N.pl3 243  ARG243     -0.0865
    137  CZ        -8.4760   -2.2750    4.2300 C.cat 243  ARG243      0.5346
    138  NH1       -7.3010   -1.7000    4.0330 N.pl3 243  ARG243      0.1354
    139  NH2       -8.9620   -3.0790    3.3060 N.pl3 243  ARG243      0.1354
    140  N         -9.3650    2.8480   12.8270 N.3   245  PHE245     -0.1241
    141  CA        -9.2310    1.9470   13.9550 C.3   245  PHE245      0.1605
    142  C         -9.2960    2.7440   15.2550 C.2   245  PHE245      0.2264
    143  O         -8.6910    3.8170   15.3680 O.2   245  PHE245     -0.2867
    144  CB        -7.9040    1.1700   13.8750 C.3   245  PHE245      0.0534
    145  CG        -7.6700    0.4720   12.5550 C.ar  245  PHE245     -0.0203
    146  CD1       -7.1270    1.1590   11.4690 C.ar  245  PHE245     -0.0042
    147  CD2       -7.9660   -0.8720   12.4120 C.ar  245  PHE245     -0.0042
    148  CE1       -6.8970    0.5180   10.2690 C.ar  245  PHE245     -0.0003
    149  CE2       -7.7450   -1.5260   11.2010 C.ar  245  PHE245     -0.0003
    150  CZ        -7.2040   -0.8330   10.1290 C.ar  245  PHE245     -0.0000
    151  N          0.5690    1.5060   -4.9090 N.3   365  ASP365     -0.1239
    152  CA        -0.2070    0.5170   -4.1690 C.3   365  ASP365      0.1674
    153  C          0.0970    0.5300   -2.6780 C.2   365  ASP365      0.2266
    154  O         -0.3890   -0.3470   -1.9460 O.2   365  ASP365     -0.2867
    155  CB         0.0160   -0.8920   -4.7450 C.3   365  ASP365      0.1410
    156  CG        -1.1660   -1.8170   -4.4830 C.2   365  ASP365      0.3668
    157  OD1       -2.3160   -1.3680   -4.6550 O.co2 365  ASP365     -0.2456
    158  OD2       -0.9560   -2.9830   -4.0950 O.co2 365  ASP365     -0.2456
    159  N          0.2350    2.2260    1.2830 N.3   367  SER367     -0.1217
    160  CA        -0.7660    2.8170    2.1550 C.3   367  SER367      0.1889
    161  C         -0.1280    3.8190    3.1090 C.2   367  SER367      0.2288
    162  O          1.0830    3.8150    3.3610 O.2   367  SER367     -0.2866
    163  CB        -1.5090    1.7460    2.9590 C.3   367  SER367      0.2089
    164  OG        -2.4380    1.0590    2.1540 O.3   367  SER367     -0.2183
    165  N         -0.7040    5.4380    6.9850 N.3   369  MET369     -0.1245
    166  CA        -1.3710    5.2810    8.2680 C.3   369  MET369      0.1570
    167  C         -1.0620    6.4850    9.1360 C.2   369  MET369      0.2261
    168  O          0.1100    6.8190    9.3500 O.2   369  MET369     -0.2867
    169  CB        -0.9680    3.9740    8.9250 C.3   369  MET369      0.0387
    170  CG        -1.5900    2.7920    8.1580 C.3   369  MET369      0.0595
    171  SD        -1.7800    1.3020    9.1310 S.3   369  MET369     -0.1393
    172  CE        -3.0960    1.7640   10.2410 C.3   369  MET369      0.0692
    173  N          3.1550    2.2380    4.6850 N.3   394  ILE394     -0.1231
    174  CA         3.2030    0.7910    4.7780 C.3   394  ILE394      0.1692
    175  C          3.0860    0.2400    3.3640 C.2   394  ILE394      0.2592
    176  O          2.6480    0.9250    2.4380 O.2   394  ILE394     -0.2718
    177  CB         2.0980    0.2160    5.6870 C.3   394  ILE394      0.0266
    178  CG1        0.7210    0.6620    5.2140 C.3   394  ILE394      0.0019
    179  CG2        2.2850    0.6530    7.1320 C.3   394  ILE394      0.0020
    180  CD1       -0.4030   -0.1680    5.7970 C.3   394  ILE394      0.0001
    181  N          3.5130   -1.0070    3.2040 N.am  395  ASP395     -0.1974
    182  CA         3.2760   -1.7730    1.9810 C.3   395  ASP395      0.1709
    183  C          4.0020   -1.1400    0.7930 C.2   395  ASP395      0.2293
    184  O          3.4000   -0.6820   -0.1750 O.2   395  ASP395     -0.2864
    185  CB         1.7730   -1.9190    1.7130 C.3   395  ASP395      0.1436
    186  CG         1.4530   -2.9510    0.6290 C.2   395  ASP395      0.3671
    187  OD1        2.3600   -3.6490    0.1450 O.co2 395  ASP395     -0.2456
    188  OD2        0.2640   -3.0760    0.2750 O.co2 395  ASP395     -0.2456
    189  N          5.9350   -2.8990   -1.2960 N.3   397  SER397     -0.1217
    190  CA         6.3980   -4.1730   -1.8350 C.3   397  SER397      0.1889
    191  C          7.0470   -3.9960   -3.2050 C.2   397  SER397      0.2288
    192  O          6.6070   -3.1830   -4.0350 O.2   397  SER397     -0.2866
    193  CB         5.2440   -5.1700   -1.9570 C.3   397  SER397      0.2089
    194  OG         4.6920   -5.5040   -0.7000 O.3   397  SER397     -0.2183
@<TRIPOS>BOND
     1   151   152    1
     2   155   156    1
     3   155   152    1
     4   157   156   ar
     5   156   158   ar
     6   152   153    1
     7   192   191    2
     8   191   190    1
     9   128   127    1
    10   153   154    2
    11   127   126    1
    12    32    31    2
    13   193   190    1
    14   193   194    1
    15    30    31    1
    16    30    29    1
    17   190   189    1
    18   123   122    2
    19    31    33   am
    20   126   125    1
    21    37    34    1
    22   125   124    1
    23   122   121    1
    24    29    27   am
    25    33    34    1
    26    34    35    1
    27   184   183    2
    28   124   121    1
    29   187   186   ar
    30   121   120    1
    31    27    28    2
    32    27    26    1
    33   188   186   ar
    34    35    36    2
    35    35    38   am
    36   186   185    1
    37   183   182    1
    38    26    25    1
    39   159   160    1
    40    38    39    1
    41    45    43   am
    42   185   182    1
    43   182   181    1
    44   164   163    1
    45   160   163    1
    46   160   161    1
    47    70    68    1
    48   176   175    2
    49    25    18   am
    50    43    44    2
    51    43    42    1
    52    39    42    1
    53    39    40    1
    54    23    22   ar
    55   161   162    2
    56   181   175   am
    57   139   137    1
    58    69    68    1
    59   175   174    1
    60    68    67    2
    61    19    18    2
    62    18    17    1
    63    41    40    2
    64    22    21    1
    65    22    24   ar
    66    21    20    1
    67   138   137    1
    68   137   136    2
    69    67    66    1
    70    20    17    1
    71   118   117   ar
    72   173   174    1
    73    17    16    1
    74   174   177    1
    75   114   113    2
    76   178   177    1
    77   178   180    1
    78   136   135    1
    79   113   112    1
    80   117   116    1
    81   117   119   ar
    82   116   115    1
    83   177   179    1
    84    66    65    1
    85    16    14   am
    86   129   130    1
    87    65    64    1
    88   134   135    1
    89   134   133    1
    90   112   115    1
    91   112   111    1
    92   165   166    1
    93    14    15    2
    94    14    13    1
    95   130   133    1
    96   130   131    1
    97    64    61    1
    98    52    50    1
    99    63    62    2
   100    62    61    1
   101    46    47    1
   102    13    12    1
   103   170   169    1
   104   170   171    1
   105   166   169    1
   106   166   167    1
   107    61    60    1
   108   132   131    2
   109    77    76    1
   110    50    47    1
   111    50    51    1
   112   171   172    1
   113   167   168    2
   114    47    48    1
   115    78    76    1
   116    12     3   am
   117    76    75    1
   118   150   148   ar
   119   150   149   ar
   120   148   146   ar
   121     4     3    2
   122   104   102   ar
   123   104   103   ar
   124   102   100   ar
   125    48    49    2
   126     3     2    1
   127    75    72    1
   128   149   147   ar
   129   103   101   ar
   130   146   145   ar
   131   100   101   ar
   132   100    99    1
   133     2     1    1
   134     2     5    1
   135    59    57    1
   136     6     5    1
   137     6     7    1
   138    72    71    1
   139    72    73    1
   140    99    96    1
   141   147   145   ar
   142   145   144    1
   143   140   141    1
   144     7     8    1
   145    57    58    1
   146    57    54    1
   147    82    81    2
   148    56    55    2
   149    55    54    1
   150    73    79   am
   151    73    74    2
   152    79    80    1
   153    96    95    1
   154    96    97    1
   155    95    89   am
   156   144   141    1
   157   110   109    1
   158   141   142    1
   159    10     9    1
   160    54    53    1
   161    81    80    1
   162    81    87   am
   163    98    97    2
   164    97   105   am
   165     8     9    2
   166    80    83    1
   167    83    84    1
   168   105   106    1
   169     9    11    1
   170    86    84   am
   171    89    88    1
   172    89    90    2
   173    88    87    1
   174    88    91    1
   175    93    92   ar
   176   109   106    1
   177   142   143    2
   178   106   107    1
   179    84    85    2
   180    92    91    1
   181    92    94   ar
   182   107   108    2
