@<TRIPOS>MOLECULE
tmp/6fl3B02.pdb
 88 86 0 0 0
SMALL
GASTEIGER

@<TRIPOS>ATOM
      1  N        -31.5680  -16.9670   -9.4820 N.3   315  ASP315     -0.1239
      2  CA       -32.3970  -15.7690   -9.3340 C.3   315  ASP315      0.1674
      3  C        -33.1860  -15.4740  -10.6140 C.2   315  ASP315      0.2266
      4  O        -34.3590  -15.0930  -10.5510 O.2   315  ASP315     -0.2867
      5  CB       -31.5390  -14.5680   -8.9340 C.3   315  ASP315      0.1410
      6  CG       -30.9590  -14.6970   -7.5300 C.2   315  ASP315      0.3668
      7  OD1      -31.3880  -15.5980   -6.7790 O.co2 315  ASP315     -0.2456
      8  OD2      -30.0600  -13.9010   -7.1840 O.co2 315  ASP315     -0.2456
      9  N        -35.0790  -20.7990   -5.4130 N.3   320  PRO320     -0.2102
     10  CA       -34.1230  -20.6320   -4.3110 C.3   320  PRO320      0.1504
     11  C        -32.7980  -21.3050   -4.6350 C.2   320  PRO320      0.2576
     12  O        -32.7630  -22.4390   -5.1080 O.2   320  PRO320     -0.2718
     13  CB       -34.8260  -21.3080   -3.1290 C.3   320  PRO320      0.0282
     14  CG       -36.2700  -21.2410   -3.4640 C.3   320  PRO320      0.0208
     15  CD       -36.3610  -21.3610   -4.9550 C.3   320  PRO320      0.0893
     16  N        -31.7040  -20.6080   -4.3660 N.am  321  CYS321     -0.1971
     17  CA       -30.4090  -21.1110   -4.8120 C.3   321  CYS321      0.1712
     18  C        -29.9990  -22.3740   -4.0760 C.2   321  CYS321      0.2296
     19  O        -29.7120  -22.3030   -2.8790 O.2   321  CYS321     -0.2864
     20  CB       -29.3280  -20.0650   -4.6310 C.3   321  CYS321      0.0983
     21  SG       -27.7150  -20.6900   -5.1810 S.3   321  CYS321     -0.0798
     22  N        -26.1430  -21.9650   -2.6470 N.3   324  CYS324     -0.1221
     23  CA       -26.1220  -21.3020   -1.3450 C.3   324  CYS324      0.1808
     24  C        -26.9140  -22.0590   -0.2980 C.2   324  CYS324      0.2601
     25  O        -27.2070  -21.5170    0.7700 O.2   324  CYS324     -0.2717
     26  CB       -26.7140  -19.8980   -1.4380 C.3   324  CYS324      0.0970
     27  SG       -25.7550  -18.7970   -2.3770 S.3   324  CYS324     -0.0800
     28  N        -27.3090  -23.2760   -0.6060 N.am  325  LYS325     -0.1979
     29  CA       -28.1990  -24.0360    0.2550 C.3   325  LYS325      0.1596
     30  C        -27.3620  -25.0850    0.9710 C.2   325  LYS325      0.2287
     31  O        -26.8090  -25.9870    0.3320 O.2   325  LYS325     -0.2864
     32  CB       -29.3310  -24.6630   -0.5470 C.3   325  LYS325      0.0298
     33  CG       -30.3410  -25.3800    0.3200 C.3   325  LYS325      0.0038
     34  CD       -30.8410  -24.4710    1.4270 C.3   325  LYS325      0.0206
     35  CE       -32.0700  -23.7090    0.9780 C.3   325  LYS325      0.1093
     36  NZ       -31.8250  -23.0280   -0.3140 N.3   325  LYS325     -0.1314
     37  N        -23.6050  -11.6280   -5.1410 N.3   332  LEU332     -0.1231
     38  CA       -24.3720  -11.9090   -6.3500 C.3   332  LEU332      0.1693
     39  C        -25.8740  -11.8310   -6.0830 C.2   332  LEU332      0.2592
     40  O        -26.6040  -11.1580   -6.8110 O.2   332  LEU332     -0.2718
     41  CB       -23.9740  -13.2740   -6.9170 C.3   332  LEU332      0.0284
     42  CG       -22.5060  -13.3060   -7.3880 C.3   332  LEU332      0.0019
     43  CD1      -22.0690  -14.6840   -7.8250 C.3   332  LEU332      0.0001
     44  CD2      -22.2340  -12.2680   -8.4870 C.3   332  LEU332      0.0001
     45  N        -26.3440  -12.4900   -5.0260 N.am  333  HIS333     -0.1962
     46  CA       -27.7650  -12.6060   -4.7390 C.3   333  HIS333      0.1787
     47  C        -28.4070  -11.2970   -4.2880 C.2   333  HIS333      0.2620
     48  O        -29.6410  -11.2230   -4.2190 O.2   333  HIS333     -0.2715
     49  CB       -27.9800  -13.6810   -3.6710 C.3   333  HIS333      0.0785
     50  CG       -27.8830  -15.0830   -4.1960 C.ar  333  HIS333      0.0821
     51  ND1      -28.7010  -15.5630   -5.2000 N.ar  333  HIS333     -0.2267
     52  CD2      -27.0750  -16.1110   -3.8480 C.ar  333  HIS333      0.1154
     53  CE1      -28.4010  -16.8250   -5.4410 C.ar  333  HIS333      0.1986
     54  NE2      -27.4130  -17.1810   -4.6370 N.ar  333  HIS333     -0.2212
     55  N        -27.6220  -10.2700   -3.9720 N.am  334  ALA334     -0.1963
     56  CA       -28.1790   -8.9840   -3.5860 C.3   334  ALA334      0.1728
     57  C        -28.1600   -7.9570   -4.7190 C.2   334  ALA334      0.2616
     58  O        -28.5810   -6.8170   -4.5030 O.2   334  ALA334     -0.2715
     59  CB       -27.4320   -8.4390   -2.3610 C.3   334  ALA334      0.0334
     60  N        -27.7000   -8.3380   -5.9160 N.am  335  LEU335     -0.1964
     61  CA       -27.6340   -7.4260   -7.0540 C.3   335  LEU335      0.1713
     62  C        -29.0290   -7.0460   -7.5400 C.2   335  LEU335      0.2458
     63  O        -29.9790   -7.8150   -7.3840 O.2   335  LEU335     -0.2730
     64  CB       -26.8930   -8.0810   -8.2120 C.3   335  LEU335      0.0310
     65  CG       -25.4320   -8.4410   -7.9920 C.3   335  LEU335      0.0022
     66  CD1      -24.9660   -9.3660   -9.1100 C.3   335  LEU335      0.0001
     67  CD2      -24.6210   -7.1420   -7.9530 C.3   335  LEU335      0.0001
     68  N        -29.1620   -5.8960   -8.2040 N.am  336  PRO336     -0.2716
     69  CA       -30.4190   -5.6130   -8.9140 C.3   336  PRO336      0.1536
     70  C        -30.6460   -6.6220  -10.0360 C.2   336  PRO336      0.2598
     71  O        -29.7070   -7.0760  -10.6910 O.2   336  PRO336     -0.2715
     72  CB       -30.2190   -4.1910   -9.4520 C.3   336  PRO336      0.0310
     73  CG       -28.7540   -3.9970   -9.5140 C.3   336  PRO336      0.0237
     74  CD       -28.1190   -4.8900   -8.4840 C.3   336  PRO336      0.0939
     75  N        -31.9140   -6.9860  -10.2340 N.am  337  LEU337     -0.1978
     76  CA       -32.2800   -7.9610  -11.2540 C.3   337  LEU337      0.1596
     77  C        -31.6700   -7.6300  -12.6090 C.2   337  LEU337      0.2287
     78  O        -31.2560   -8.5330  -13.3430 O.2   337  LEU337     -0.2864
     79  CB       -33.7980   -8.0370  -11.3870 C.3   337  LEU337      0.0297
     80  CG       -34.2720   -9.2550  -12.1780 C.3   337  LEU337      0.0022
     81  CD1      -33.9490  -10.5310  -11.4250 C.3   337  LEU337      0.0001
     82  CD2      -35.7600   -9.1590  -12.5120 C.3   337  LEU337      0.0001
     83  N        -28.3210   -9.1570  -12.6060 N.3   340  SER340     -0.1217
     84  CA       -28.4130  -10.6070  -12.6830 C.3   340  SER340      0.1889
     85  C        -28.7300  -11.0530  -14.0980 C.2   340  SER340      0.2288
     86  O        -28.1000  -11.9770  -14.6330 O.2   340  SER340     -0.2866
     87  CB       -29.4880  -11.1160  -11.7320 C.3   340  SER340      0.2089
     88  OG       -29.1650  -10.8040  -10.4030 O.3   340  SER340     -0.2183
@<TRIPOS>BOND
     1    86    85    2
     2    85    84    1
     3    78    77    2
     4    84    83    1
     5    84    87    1
     6    77    76    1
     7    82    80    1
     8    80    81    1
     9    80    79    1
    10    87    88    1
    11    79    76    1
    12    76    75    1
    13    71    70    2
    14     3     4    2
    15     3     2    1
    16    75    70   am
    17    70    69    1
    18    73    72    1
    19    73    74    1
    20     1     2    1
    21    72    69    1
    22     2     5    1
    23    66    65    1
    24     5     6    1
    25    69    68    1
    26    44    42    1
    27    74    68    1
    28    64    65    1
    29    64    61    1
    30    68    62   am
    31    65    67    1
    32    43    42    1
    33    62    63    2
    34    62    61    1
    35     6     8   ar
    36     6     7   ar
    37    42    41    1
    38    61    60    1
    39    41    38    1
    40    40    39    2
    41    38    39    1
    42    38    37    1
    43    39    45   am
    44    60    57   am
    45    53    51   ar
    46    53    54   ar
    47     9    15    1
    48     9    10    1
    49    51    50   ar
    50    21    20    1
    51    12    11    2
    52    45    46    1
    53    15    14    1
    54    17    20    1
    55    17    16    1
    56    17    18    1
    57    46    47    1
    58    46    49    1
    59    57    58    2
    60    57    56    1
    61    54    52   ar
    62    11    16   am
    63    11    10    1
    64    10    13    1
    65    47    48    2
    66    47    55   am
    67    50    52   ar
    68    50    49    1
    69    18    19    2
    70    55    56    1
    71    56    59    1
    72    14    13    1
    73    22    23    1
    74    27    26    1
    75    26    23    1
    76    23    24    1
    77    28    24   am
    78    28    29    1
    79    32    29    1
    80    32    33    1
    81    36    35    1
    82    24    25    2
    83    29    30    1
    84    33    34    1
    85    31    30    2
    86    35    34    1
