@<TRIPOS>MOLECULE
tmp/6fl3A00.pdb
 174 162 0 0 0
SMALL
GASTEIGER

@<TRIPOS>ATOM
      1  N         -3.8780   -7.5960    2.5470 N.3    26  GLY26      -0.1210
      2  CA        -4.1660   -7.1520    1.1990 C.3    26  GLY26       0.1956
      3  C         -4.0220   -8.3350    0.2690 C.2    26  GLY26       0.2612
      4  O         -4.2790   -9.4690    0.6790 O.2    26  GLY26      -0.2717
      5  N         -3.5760   -8.1070   -0.9640 N.am   27  GLY27      -0.1942
      6  CA        -3.4170   -9.2140   -1.8880 C.3    27  GLY27       0.2014
      7  C         -2.2020  -10.0910   -1.6370 C.2    27  GLY27       0.2638
      8  O         -2.1930  -11.2540   -2.0540 O.2    27  GLY27      -0.2714
      9  N         -1.1790   -9.5720   -0.9630 N.am   28  ALA28      -0.1977
     10  CA         0.0680  -10.3100   -0.8340 C.3    28  ALA28       0.1597
     11  C          0.3980  -10.7480    0.5870 C.2    28  ALA28       0.2287
     12  O          1.0750  -11.7600    0.7620 O.2    28  ALA28      -0.2864
     13  CB         1.2250   -9.4740   -1.3810 C.3    28  ALA28       0.0319
     14  N          0.0560  -17.4200   -3.6220 N.3    52  ARG52      -0.1245
     15  CA        -1.0200  -17.6630   -4.5720 C.3    52  ARG52       0.1563
     16  C         -1.0350  -19.1470   -4.9160 C.2    52  ARG52       0.2260
     17  O         -0.0810  -19.6610   -5.5130 O.2    52  ARG52      -0.2867
     18  CB        -0.8320  -16.8050   -5.8190 C.3    52  ARG52       0.0307
     19  CG        -2.0680  -16.7330   -6.7100 C.3    52  ARG52       0.0489
     20  CD        -3.3240  -16.4100   -5.8870 C.3    52  ARG52       0.2205
     21  NE        -3.1520  -15.2620   -4.9860 N.pl3  52  ARG52      -0.0865
     22  CZ        -3.9510  -14.1940   -4.9580 C.cat  52  ARG52       0.5346
     23  NH1       -4.9920  -14.1140   -5.7770 N.pl3  52  ARG52       0.1354
     24  NH2       -3.7170  -13.2050   -4.1000 N.pl3  52  ARG52       0.1354
     25  N        -13.3500  -14.7950   -0.1520 N.3   134  TRP134     -0.1227
     26  CA       -12.6480  -14.7050   -1.4280 C.3   134  TRP134      0.1737
     27  C        -11.1340  -14.5870   -1.2290 C.2   134  TRP134      0.2595
     28  O        -10.3580  -15.1470   -2.0080 O.2   134  TRP134     -0.2718
     29  CB       -13.2190  -13.5550   -2.2570 C.3   134  TRP134      0.0564
     30  CG       -12.9290  -12.1970   -1.7360 C.ar  134  TRP134      0.0003
     31  CD1      -13.6420  -11.5140   -0.7990 C.ar  134  TRP134      0.0946
     32  CD2      -11.8600  -11.3360   -2.1360 C.ar  134  TRP134      0.0152
     33  NE1      -13.0710  -10.2820   -0.5700 N.ar  134  TRP134     -0.2442
     34  CE2      -11.9800  -10.1420   -1.3840 C.ar  134  TRP134      0.0810
     35  CE3      -10.8070  -11.4580   -3.0480 C.ar  134  TRP134      0.0012
     36  CZ2      -11.0860   -9.0750   -1.5140 C.ar  134  TRP134      0.0191
     37  CZ3       -9.9130  -10.3890   -3.1830 C.ar  134  TRP134      0.0001
     38  CH2      -10.0590   -9.2180   -2.4100 C.ar  134  TRP134      0.0015
     39  N        -10.6870  -13.9090   -0.1760 N.am  135  ARG135     -0.1980
     40  CA        -9.2610  -13.9100    0.1190 C.3   135  ARG135      0.1597
     41  C         -8.7730  -15.3220    0.4070 C.2   135  ARG135      0.2287
     42  O         -7.6860  -15.7070   -0.0250 O.2   135  ARG135     -0.2864
     43  CB        -8.9520  -12.9920    1.3050 C.3   135  ARG135      0.0334
     44  CG        -9.2290  -11.5320    1.0750 C.3   135  ARG135      0.0492
     45  CD        -8.1710  -10.9040    0.1640 C.3   135  ARG135      0.2205
     46  NE        -8.1340   -9.4590    0.3320 N.pl3 135  ARG135     -0.0865
     47  CZ        -7.4780   -8.6170   -0.4600 C.cat 135  ARG135      0.5346
     48  NH1       -6.7920   -9.0660   -1.5010 N.pl3 135  ARG135      0.1354
     49  NH2       -7.5220   -7.3170   -0.2140 N.pl3 135  ARG135      0.1354
     50  N         -5.3310    4.3060    1.3360 N.3   170  LYS170     -0.1245
     51  CA        -4.6960    3.6950    0.1660 C.3   170  LYS170      0.1561
     52  C         -4.9270    4.6240   -1.0160 C.2   170  LYS170      0.2260
     53  O         -5.9350    4.4950   -1.7220 O.2   170  LYS170     -0.2867
     54  CB        -5.2630    2.3000   -0.1230 C.3   170  LYS170      0.0271
     55  CG        -4.4920    1.5040   -1.1920 C.3   170  LYS170      0.0035
     56  CD        -5.0710    0.1090   -1.4670 C.3   170  LYS170      0.0206
     57  CE        -4.2740   -0.6020   -2.5960 C.3   170  LYS170      0.1093
     58  NZ        -4.7200   -2.0090   -2.8260 N.3   170  LYS170     -0.1314
     59  N         -3.6970    5.3170   -4.0480 N.3   172  LYS172     -0.1245
     60  CA        -3.5990    4.9730   -5.4630 C.3   172  LYS172      0.1561
     61  C         -2.9670    6.1190   -6.2330 C.2   172  LYS172      0.2260
     62  O         -2.3640    7.0120   -5.6320 O.2   172  LYS172     -0.2867
     63  CB        -4.9690    4.5920   -6.0300 C.3   172  LYS172      0.0271
     64  CG        -5.6170    3.4410   -5.2520 C.3   172  LYS172      0.0035
     65  CD        -4.7130    2.2170   -5.1780 C.3   172  LYS172      0.0206
     66  CE        -4.5050    1.5790   -6.5640 C.3   172  LYS172      0.1093
     67  NZ        -4.0800    0.1360   -6.4960 N.3   172  LYS172     -0.1314
     68  N         -6.9530    6.7900  -14.0000 N.3   194  ARG194     -0.1245
     69  CA        -7.0000    5.3370  -13.8860 C.3   194  ARG194      0.1563
     70  C         -7.9630    4.8820  -12.7980 C.2   194  ARG194      0.2260
     71  O         -8.7360    3.9410  -13.0040 O.2   194  ARG194     -0.2867
     72  CB        -5.6080    4.7820  -13.6040 C.3   194  ARG194      0.0307
     73  CG        -5.6150    3.4380  -12.9050 C.3   194  ARG194      0.0489
     74  CD        -6.3000    2.3610  -13.7480 C.3   194  ARG194      0.2205
     75  NE        -5.4960    1.8710  -14.8670 N.pl3 194  ARG194     -0.0865
     76  CZ        -4.6010    0.8820  -14.7720 C.cat 194  ARG194      0.5346
     77  NH1       -4.3850    0.3040  -13.5990 N.pl3 194  ARG194      0.1354
     78  NH2       -3.9030    0.4850  -15.8410 N.pl3 194  ARG194      0.1354
     79  N        -11.0080    2.4920  -13.6370 N.3   198  HIS198     -0.1241
     80  CA       -11.0230    1.1490  -13.0880 C.3   198  HIS198      0.1621
     81  C        -12.2840    0.9010  -12.2790 C.2   198  HIS198      0.2264
     82  O        -12.7730   -0.2290  -12.2290 O.2   198  HIS198     -0.2867
     83  CB        -9.7780    0.9070  -12.2360 C.3   198  HIS198      0.0745
     84  CG        -9.4490   -0.5370  -12.0690 C.ar  198  HIS198      0.0817
     85  ND1       -8.2170   -0.9780  -11.6220 N.ar  198  HIS198     -0.2268
     86  CD2      -10.1890   -1.6490  -12.3080 C.ar  198  HIS198      0.1154
     87  CE1       -8.2200   -2.3010  -11.5800 C.ar  198  HIS198      0.1986
     88  NE2       -9.4050   -2.7330  -11.9890 N.ar  198  HIS198     -0.2212
     89  N        -14.2790   -2.5440  -12.1550 N.3   202  LYS202     -0.1245
     90  CA       -14.4860   -3.2340  -10.8870 C.3   202  LYS202      0.1561
     91  C        -15.9580   -3.5640  -10.6740 C.2   202  LYS202      0.2260
     92  O        -16.2930   -4.6350  -10.1510 O.2   202  LYS202     -0.2867
     93  CB       -13.9580   -2.3800   -9.7330 C.3   202  LYS202      0.0271
     94  CG       -12.4290   -2.2980   -9.6510 C.3   202  LYS202      0.0035
     95  CD       -11.9760   -1.2760   -8.5930 C.3   202  LYS202      0.0206
     96  CE       -10.4720   -1.3420   -8.3340 C.3   202  LYS202      0.1093
     97  NZ       -10.0030   -2.6760   -7.8650 N.3   202  LYS202     -0.1314
     98  N        -11.7000   -0.1300   -0.5080 N.3   240  ASN240     -0.1225
     99  CA       -10.5060   -0.6110    0.1750 C.3   240  ASN240      0.1785
    100  C         -9.4630    0.4860    0.3190 C.2   240  ASN240      0.2597
    101  O         -8.2710    0.1980    0.4520 O.2   240  ASN240     -0.2718
    102  CB        -9.9140   -1.8140   -0.5590 C.3   240  ASN240      0.1169
    103  CG        -9.2800   -1.4280   -1.8660 C.2   240  ASN240      0.2627
    104  OD1       -9.6370   -0.4110   -2.4530 O.2   240  ASN240     -0.2716
    105  ND2       -8.3290   -2.2380   -2.3350 N.am  240  ASN240     -0.0877
    106  N         -9.8920    1.7420    0.2690 N.am  241  ASN241     -0.1974
    107  CA        -8.9960    2.8840    0.3250 C.3   241  ASN241      0.1688
    108  C         -8.9760    3.6030    1.6710 C.2   241  ASN241      0.2292
    109  O         -8.1150    4.4710    1.8560 O.2   241  ASN241     -0.2864
    110  CB        -9.3720    3.8820   -0.7690 C.3   241  ASN241      0.1181
    111  CG        -9.3560    3.2480   -2.1370 C.2   241  ASN241      0.2629
    112  OD1      -10.4010    2.8840   -2.6830 O.2   241  ASN241     -0.2716
    113  ND2       -8.1600    3.0800   -2.6840 N.am  241  ASN241     -0.0877
    114  N          5.1400    1.6310   -9.5160 N.3   361  ALA361     -0.1245
    115  CA         4.0400    0.7140   -9.2180 C.3   361  ALA361      0.1562
    116  C          3.9590    0.4010   -7.7290 C.2   361  ALA361      0.2260
    117  O          2.8640    0.1830   -7.1970 O.2   361  ALA361     -0.2867
    118  CB         4.1920   -0.5840  -10.0090 C.3   361  ALA361      0.0290
    119  N          0.5690    1.5060   -4.9090 N.3   365  ASP365     -0.1239
    120  CA        -0.2070    0.5170   -4.1690 C.3   365  ASP365      0.1674
    121  C          0.0970    0.5300   -2.6780 C.2   365  ASP365      0.2266
    122  O         -0.3890   -0.3470   -1.9460 O.2   365  ASP365     -0.2867
    123  CB         0.0160   -0.8920   -4.7450 C.3   365  ASP365      0.1410
    124  CG        -1.1660   -1.8170   -4.4830 C.2   365  ASP365      0.3668
    125  OD1       -2.3160   -1.3680   -4.6550 O.co2 365  ASP365     -0.2456
    126  OD2       -0.9560   -2.9830   -4.0950 O.co2 365  ASP365     -0.2456
    127  N          3.5130   -1.0070    3.2040 N.3   395  ASP395     -0.1239
    128  CA         3.2760   -1.7730    1.9810 C.3   395  ASP395      0.1674
    129  C          4.0020   -1.1400    0.7930 C.2   395  ASP395      0.2266
    130  O          3.4000   -0.6820   -0.1750 O.2   395  ASP395     -0.2867
    131  CB         1.7730   -1.9190    1.7130 C.3   395  ASP395      0.1410
    132  CG         1.4530   -2.9510    0.6290 C.2   395  ASP395      0.3668
    133  OD1        2.3600   -3.6490    0.1450 O.co2 395  ASP395     -0.2456
    134  OD2        0.2640   -3.0760    0.2750 O.co2 395  ASP395     -0.2456
    135  N          7.7130   -5.1190   -6.9360 N.3   399  LYS399     -0.1245
    136  CA         6.7560   -5.7450   -7.8320 C.3   399  LYS399      0.1561
    137  C          7.4630   -6.6650   -8.8220 C.2   399  LYS399      0.2260
    138  O          8.5210   -6.3120   -9.3520 O.2   399  LYS399     -0.2867
    139  CB         5.9390   -4.6800   -8.5860 C.3   399  LYS399      0.0271
    140  CG         5.0850   -3.7580   -7.6490 C.3   399  LYS399      0.0035
    141  CD         3.8510   -4.4600   -7.0770 C.3   399  LYS399      0.0206
    142  CE         3.0390   -3.5360   -6.1660 C.3   399  LYS399      0.1093
    143  NZ         1.7550   -4.1450   -5.6730 N.3   399  LYS399     -0.1314
    144  N          4.9240   -9.2110  -14.2080 N.3   403  ARG403     -0.1245
    145  CA         3.6270   -8.5570  -14.1230 C.3   403  ARG403      0.1563
    146  C          3.4650   -7.3970  -15.1110 C.2   403  ARG403      0.2260
    147  O          2.3320   -6.9550  -15.3180 O.2   403  ARG403     -0.2867
    148  CB         3.4100   -8.0730  -12.6800 C.3   403  ARG403      0.0307
    149  CG         1.9860   -7.8450  -12.3020 C.3   403  ARG403      0.0489
    150  CD         1.8440   -7.5160  -10.8290 C.3   403  ARG403      0.2205
    151  NE         2.0750   -8.6630   -9.9650 N.pl3 403  ARG403     -0.0865
    152  CZ         1.8160   -8.6730   -8.6590 C.cat 403  ARG403      0.5346
    153  NH1        1.3160   -7.5930   -8.0700 N.pl3 403  ARG403      0.1354
    154  NH2        2.0530   -9.7610   -7.9370 N.pl3 403  ARG403      0.1354
    155  N          0.0890   -5.9130  -16.2950 N.3   407  TYR407     -0.1241
    156  CA        -0.1980   -4.4830  -16.2580 C.3   407  TYR407      0.1605
    157  C         -0.7620   -4.0070  -17.5890 C.2   407  TYR407      0.2264
    158  O         -1.7650   -3.2810  -17.6280 O.2   407  TYR407     -0.2867
    159  CB         1.0710   -3.7090  -15.9040 C.3   407  TYR407      0.0534
    160  CG         1.4980   -3.8770  -14.4630 C.ar  407  TYR407     -0.0201
    161  CD1        0.5560   -4.0700  -13.4510 C.ar  407  TYR407     -0.0009
    162  CD2        2.8420   -3.8280  -14.1060 C.ar  407  TYR407     -0.0009
    163  CE1        0.9410   -4.2060  -12.1190 C.ar  407  TYR407      0.0417
    164  CE2        3.2390   -3.9560  -12.7750 C.ar  407  TYR407      0.0417
    165  CZ         2.2810   -4.1420  -11.7910 C.ar  407  TYR407      0.1957
    166  OH         2.6650   -4.2820  -10.4900 O.3   407  TYR407     -0.2866
    167  N         -4.4140   -5.4590  -18.2580 N.3   410  LEU410     -0.1245
    168  CA        -5.3870   -4.7540  -17.4330 C.3   410  LEU410      0.1561
    169  C         -5.6530   -3.3520  -17.9810 C.2   410  LEU410      0.2260
    170  O         -6.8140   -2.9450  -18.1380 O.2   410  LEU410     -0.2867
    171  CB        -4.8990   -4.6990  -15.9800 C.3   410  LEU410      0.0270
    172  CG        -5.7980   -3.9570  -14.9820 C.3   410  LEU410      0.0019
    173  CD1       -7.1880   -4.5670  -14.9430 C.3   410  LEU410      0.0001
    174  CD2       -5.1820   -3.9270  -13.5900 C.3   410  LEU410      0.0001
@<TRIPOS>BOND
     1   167   168    1
     2   170   169    2
     3   169   168    1
     4   158   157    2
     5   157   156    1
     6   168   171    1
     7   155   156    1
     8   156   159    1
     9   171   172    1
    10   159   160    1
    11    78    76    1
    12   147   146    2
    13   146   145    1
    14   172   173    1
    15   172   174    1
    16    75    76    2
    17    75    74    1
    18    76    77    1
    19   160   162   ar
    20   160   161   ar
    21   144   145    1
    22   145   148    1
    23   162   164   ar
    24    68    69    1
    25    69    72    1
    26    69    70    1
    27    74    73    1
    28    79    80    1
    29    72    73    1
    30   161   163   ar
    31    80    81    1
    32    80    83    1
    33    71    70    2
    34   164   165   ar
    35   148   149    1
    36    86    84   ar
    37    86    88   ar
    38   149   150    1
    39    81    82    2
    40    83    84    1
    41    89    90    1
    42   163   165   ar
    43    84    85   ar
    44    88    87   ar
    45   165   166    1
    46    85    87   ar
    47    90    91    1
    48    90    93    1
    49   150   151    1
    50    91    92    2
    51   118   115    1
    52   151   152    2
    53    93    94    1
    54    94    95    1
    55   114   115    1
    56   138   137    2
    57   115   116    1
    58   137   136    1
    59   152   153    1
    60   152   154    1
    61    95    96    1
    62   139   136    1
    63   139   140    1
    64    96    97    1
    65   136   135    1
    66   116   117    2
    67   140   141    1
    68   141   142    1
    69    19    20    1
    70    19    18    1
    71    66    67    1
    72    66    65    1
    73    61    62    2
    74    61    60    1
    75   142   143    1
    76    63    60    1
    77    63    64    1
    78    20    21    1
    79    18    15    1
    80    23    22    1
    81    17    16    2
    82    60    59    1
    83    64    65    1
    84    21    22    2
    85    22    24    1
    86    16    15    1
    87   119   120    1
    88   123   124    1
    89   123   120    1
    90   125   124   ar
    91    15    14    1
    92   124   126   ar
    93   120   121    1
    94    37    35   ar
    95    37    38   ar
    96    35    32   ar
    97    58    57    1
    98   113   111   am
    99   112   111    2
   100   121   122    2
   101    57    56    1
   102   104   103    2
   103    38    36   ar
   104   105   103   am
   105    29    30    1
   106    29    26    1
   107   111   110    1
   108    32    30   ar
   109    32    34   ar
   110     8     7    2
   111    28    27    2
   112     6     7    1
   113     6     5    1
   114   103   102    1
   115    30    31   ar
   116    53    52    2
   117     7     9   am
   118    36    34   ar
   119    48    47    1
   120    56    55    1
   121    26    27    1
   122    26    25    1
   123    34    33   ar
   124    13    10    1
   125    27    39   am
   126    55    54    1
   127    52    51    1
   128     5     3   am
   129     9    10    1
   130    10    11    1
   131    31    33   ar
   132   110   107    1
   133   102    99    1
   134    98    99    1
   135    47    49    1
   136    47    46    2
   137    39    40    1
   138   130   129    2
   139    54    51    1
   140    42    41    2
   141    40    41    1
   142    40    43    1
   143   133   132   ar
   144    45    46    1
   145    45    44    1
   146    51    50    1
   147    99   100    1
   148     3     4    2
   149     3     2    1
   150   106   100   am
   151   106   107    1
   152   134   132   ar
   153   100   101    2
   154   107   108    1
   155    11    12    2
   156   132   131    1
   157   129   128    1
   158    44    43    1
   159     2     1    1
   160   108   109    2
   161   131   128    1
   162   128   127    1
