@<TRIPOS>MOLECULE
tmp/6fl4A00.pdb
 217 207 0 0 0
SMALL
GASTEIGER

@<TRIPOS>ATOM
      1  N         16.3510   27.5530   84.2780 N.3     6  ALA6       -0.1245
      2  CA        16.1060   27.3490   82.8360 C.3     6  ALA6        0.1562
      3  C         16.0340   25.8690   82.5640 C.2     6  ALA6        0.2260
      4  O         16.6360   25.0680   83.2770 O.2     6  ALA6       -0.2867
      5  CB        17.2330   27.9280   82.0110 C.3     6  ALA6        0.0290
      6  N         16.8150   23.2900   79.3960 N.3     8  VAL8       -0.1245
      7  CA        17.4520   23.1820   78.0970 C.3     8  VAL8        0.1561
      8  C         17.2520   21.7780   77.5550 C.2     8  VAL8        0.2260
      9  O         17.1830   20.8200   78.3240 O.2     8  VAL8       -0.2867
     10  CB        18.9270   23.5900   78.1230 C.3     8  VAL8        0.0252
     11  CG1       19.0170   25.0180   78.6100 C.3     8  VAL8        0.0019
     12  CG2       19.7730   22.6920   79.0150 C.3     8  VAL8        0.0019
     13  N         23.0000   31.8220   69.2100 N.3    22  ARG22      -0.1245
     14  CA        22.2180   32.7770   69.9720 C.3    22  ARG22       0.1563
     15  C         22.3730   34.2040   69.4540 C.2    22  ARG22       0.2260
     16  O         23.4630   34.5880   68.9990 O.2    22  ARG22      -0.2867
     17  CB        22.6260   32.7610   71.4420 C.3    22  ARG22       0.0307
     18  CG        22.3910   31.4190   72.1120 C.3    22  ARG22       0.0489
     19  CD        22.9580   31.3440   73.5120 C.3    22  ARG22       0.2205
     20  NE        22.4400   32.3850   74.3950 N.pl3  22  ARG22      -0.0865
     21  CZ        21.3010   32.3370   75.0880 C.cat  22  ARG22       0.5346
     22  NH1       20.4530   31.3090   74.9890 N.pl3  22  ARG22       0.1354
     23  NH2       20.9740   33.3680   75.8720 N.pl3  22  ARG22       0.1354
     24  N         21.6760   37.3590   71.6830 N.3    24  SER24      -0.1217
     25  CA        21.4130   37.5760   73.0960 C.3    24  SER24       0.1889
     26  C         22.5310   38.3820   73.7550 C.2    24  SER24       0.2288
     27  O         23.6470   38.4370   73.2290 O.2    24  SER24      -0.2866
     28  CB        21.2870   36.2130   73.7950 C.3    24  SER24       0.2089
     29  OG        20.9170   36.3170   75.1500 O.3    24  SER24      -0.2183
     30  N         23.6880   37.2830   76.5180 N.3    26  ILE26      -0.1245
     31  CA        24.4650   36.1800   77.1010 C.3    26  ILE26       0.1561
     32  C         24.7050   35.1360   76.0100 C.2    26  ILE26       0.2260
     33  O         23.7710   34.6700   75.3460 O.2    26  ILE26      -0.2867
     34  CB        23.7280   35.5660   78.2930 C.3    26  ILE26       0.0252
     35  CG1       23.5880   36.6090   79.4350 C.3    26  ILE26       0.0019
     36  CG2       24.4590   34.3250   78.7670 C.3    26  ILE26       0.0019
     37  CD1       22.6090   36.2500   80.5240 C.3    26  ILE26       0.0001
     38  N         23.9770   26.9390   71.0260 N.3    32  ALA32      -0.1231
     39  CA        23.3180   26.5660   72.2730 C.3    32  ALA32       0.1694
     40  C         22.1110   25.6790   71.9660 C.2    32  ALA32       0.2592
     41  O         21.6190   25.6140   70.8330 O.2    32  ALA32      -0.2718
     42  CB        22.8890   27.8070   73.0320 C.3    32  ALA32       0.0304
     43  N         21.6260   25.0190   73.0000 N.am   33  LEU33      -0.1966
     44  CA        20.3980   24.2020   72.8960 C.3    33  LEU33       0.1713
     45  C         19.1570   25.1020   72.9330 C.2    33  LEU33       0.2458
     46  O         19.2030   26.2070   73.4900 O.2    33  LEU33      -0.2730
     47  CB        20.3160   23.2620   74.0890 C.3    33  LEU33       0.0310
     48  CG        21.4550   22.2850   74.3660 C.3    33  LEU33       0.0022
     49  CD1       21.3230   21.6560   75.7380 C.3    33  LEU33       0.0001
     50  CD2       21.4710   21.2170   73.3020 C.3    33  LEU33       0.0001
     51  N         18.0390   24.6120   72.3730 N.am   34  PRO34      -0.2716
     52  CA        16.7510   25.2360   72.6230 C.3    34  PRO34       0.1536
     53  C         16.3990   25.1320   74.0880 C.2    34  PRO34       0.2599
     54  O         16.8030   24.1950   74.7630 O.2    34  PRO34      -0.2715
     55  CB        15.7930   24.4560   71.7480 C.3    34  PRO34       0.0310
     56  CG        16.4240   23.1290   71.5270 C.3    34  PRO34       0.0237
     57  CD        17.9180   23.3570   71.6060 C.3    34  PRO34       0.0939
     58  N         15.6350   26.1060   74.5780 N.am   35  GLY35      -0.1941
     59  CA        15.2600   26.1260   75.9850 C.3    35  GLY35       0.2014
     60  C         15.0050   27.5230   76.4870 C.2    35  GLY35       0.2639
     61  O         15.1210   28.4830   75.7480 O.2    35  GLY35      -0.2714
     62  N         14.6870   27.6380   77.7630 N.am   36  GLY36      -0.1939
     63  CA        14.4110   28.9430   78.3340 C.3    36  GLY36       0.2014
     64  C         13.8810   28.8360   79.7290 C.2    36  GLY36       0.2638
     65  O         14.0000   27.7730   80.3700 O.2    36  GLY36      -0.2714
     66  N         13.2600   29.9120   80.1990 N.am   37  HIS37      -0.1973
     67  CA        12.8840   30.0060   81.5920 C.3    37  HIS37       0.1656
     68  C         11.7460   29.0470   81.9580 C.2    37  HIS37       0.2291
     69  O         10.7120   28.9870   81.2710 O.2    37  HIS37      -0.2864
     70  CB        12.3800   31.4270   81.9290 C.3    37  HIS37       0.0771
     71  CG        13.4370   32.4830   81.9370 C.ar   37  HIS37       0.0820
     72  ND1       13.8790   33.1100   80.7910 N.ar   37  HIS37      -0.2267
     73  CD2       14.1030   33.0630   82.9670 C.ar   37  HIS37       0.1154
     74  CE1       14.7930   34.0140   81.1180 C.ar   37  HIS37       0.1986
     75  NE2       14.9450   34.0040   82.4330 N.ar   37  HIS37      -0.2212
     76  N          8.5030   28.3580   83.8840 N.3    39  GLU39      -0.1245
     77  CA         7.4130   29.2130   84.3540 C.3    39  GLU39       0.1567
     78  C          6.8080   28.6660   85.6380 C.2    39  GLU39       0.2260
     79  O          6.8140   27.4510   85.8950 O.2    39  GLU39      -0.2867
     80  CB         6.3250   29.3410   83.3030 C.3    39  GLU39       0.0388
     81  CG         6.7340   30.1870   82.1230 C.3    39  GLU39       0.1160
     82  CD         5.7000   30.1550   80.9840 C.2    39  GLU39       0.3649
     83  OE1        5.9230   30.8190   79.9870 O.co2  39  GLU39      -0.2457
     84  OE2        4.6830   29.4300   81.0630 O.co2  39  GLU39      -0.2457
     85  N          7.1790   23.1380   75.6100 N.3    50  ARG50      -0.1231
     86  CA         6.7360   24.5050   75.3220 C.3    50  ARG50       0.1694
     87  C          7.8620   25.3240   74.6730 C.2    50  ARG50       0.2591
     88  O          7.6320   25.9770   73.6710 O.2    50  ARG50      -0.2718
     89  CB         6.2140   25.2230   76.5810 C.3    50  ARG50       0.0321
     90  CG         5.8020   26.6820   76.3140 C.3    50  ARG50       0.0489
     91  CD         5.3370   27.4150   77.5710 C.3    50  ARG50       0.2205
     92  NE         6.3410   27.4150   78.6100 N.pl3  50  ARG50      -0.0865
     93  CZ         7.4430   28.1700   78.6300 C.cat  50  ARG50       0.5346
     94  NH1        7.7040   29.0490   77.6590 N.pl3  50  ARG50       0.1354
     95  NH2        8.3030   28.0430   79.6460 N.pl3  50  ARG50       0.1354
     96  N          9.0440   25.3230   75.2910 N.am   51  GLU51      -0.1979
     97  CA        10.1770   26.1410   74.8100 C.3    51  GLU51       0.1602
     98  C         10.6280   25.6820   73.4200 C.2    51  GLU51       0.2287
     99  O         10.8400   26.4720   72.5120 O.2    51  GLU51      -0.2864
    100  CB        11.3300   26.0710   75.7940 C.3    51  GLU51       0.0415
    101  CG        11.0940   26.8840   77.0650 C.3    51  GLU51       0.1163
    102  CD        11.1820   28.3960   76.8540 C.2    51  GLU51       0.3649
    103  OE1       11.6730   28.8520   75.8030 O.co2  51  GLU51      -0.2457
    104  OE2       10.8000   29.1520   77.7510 O.co2  51  GLU51      -0.2457
    105  N          8.0150   26.9250   70.9720 N.3    54  GLU54      -0.1231
    106  CA         8.1140   28.3800   70.7820 C.3    54  GLU54       0.1699
    107  C          9.2940   28.7460   69.8920 C.2    54  GLU54       0.2592
    108  O          9.1780   29.6070   69.0400 O.2    54  GLU54      -0.2718
    109  CB         8.2270   29.1340   72.1260 C.3    54  GLU54       0.0402
    110  CG         7.0060   29.1200   73.0140 C.3    54  GLU54       0.1161
    111  CD         7.1500   29.9170   74.3280 C.2    54  GLU54       0.3649
    112  OE1        8.2370   30.5680   74.4910 O.co2  54  GLU54      -0.2457
    113  OE2        6.1950   29.8900   75.1900 O.co2  54  GLU54      -0.2457
    114  N         10.4310   28.1100   70.1450 N.am   55  GLU55      -0.1979
    115  CA        11.6790   28.4920   69.4740 C.3    55  GLU55       0.1602
    116  C         11.8900   27.8400   68.1140 C.2    55  GLU55       0.2287
    117  O         12.5000   28.4560   67.2330 O.2    55  GLU55      -0.2864
    118  CB        12.8790   28.1950   70.3800 C.3    55  GLU55       0.0415
    119  CG        12.7960   28.9880   71.6530 C.3    55  GLU55       0.1163
    120  CD        13.9570   28.8130   72.5920 C.2    55  GLU55       0.3649
    121  OE1       14.7840   27.8950   72.4190 O.co2  55  GLU55      -0.2457
    122  OE2       14.0000   29.6420   73.5550 O.co2  55  GLU55      -0.2457
    123  N         25.2490   27.6660   86.5340 N.3    71  ASN71      -0.1240
    124  CA        25.9630   28.5400   85.6080 C.3    71  ASN71       0.1653
    125  C         25.8260   30.0080   85.9880 C.2    71  ASN71       0.2266
    126  O         24.7780   30.6030   85.7850 O.2    71  ASN71      -0.2867
    127  CB        25.3880   28.3390   84.2030 C.3    71  ASN71       0.1155
    128  CG        25.5010   26.8960   83.7170 C.2    71  ASN71       0.2627
    129  OD1       26.5770   26.3160   83.7170 O.2    71  ASN71      -0.2716
    130  ND2       24.4060   26.3620   83.2250 N.am   71  ASN71      -0.0877
    131  N         27.0390   33.6410   85.1340 N.3    73  PHE73      -0.1241
    132  CA        27.5810   34.3490   83.9910 C.3    73  PHE73       0.1605
    133  C         28.2300   35.6430   84.4620 C.2    73  PHE73       0.2264
    134  O         27.6120   36.7060   84.4110 O.2    73  PHE73      -0.2867
    135  CB        26.4750   34.6070   82.9670 C.3    73  PHE73       0.0534
    136  CG        25.9310   33.3460   82.3630 C.ar   73  PHE73      -0.0203
    137  CD1       26.5350   32.7590   81.2740 C.ar   73  PHE73      -0.0042
    138  CD2       24.8230   32.7160   82.9240 C.ar   73  PHE73      -0.0042
    139  CE1       26.0620   31.5690   80.7410 C.ar   73  PHE73      -0.0003
    140  CE2       24.3390   31.5440   82.3860 C.ar   73  PHE73      -0.0003
    141  CZ        24.9670   30.9620   81.2980 C.ar   73  PHE73      -0.0000
    142  N         21.9960   31.0700   86.3200 N.3    82  TYR82      -0.1241
    143  CA        21.0090   30.1320   85.8640 C.3    82  TYR82       0.1605
    144  C         21.3320   28.7470   86.3730 C.2    82  TYR82       0.2264
    145  O         22.4880   28.3180   86.3140 O.2    82  TYR82      -0.2867
    146  CB        20.9230   30.1330   84.3270 C.3    82  TYR82       0.0534
    147  CG        20.2280   31.3610   83.8770 C.ar   82  TYR82      -0.0201
    148  CD1       18.8490   31.4150   83.8680 C.ar   82  TYR82      -0.0009
    149  CD2       20.9480   32.5140   83.5560 C.ar   82  TYR82      -0.0009
    150  CE1       18.1800   32.5910   83.5140 C.ar   82  TYR82       0.0417
    151  CE2       20.2930   33.6790   83.1900 C.ar   82  TYR82       0.0417
    152  CZ        18.9150   33.7050   83.1780 C.ar   82  TYR82       0.1957
    153  OH        18.2620   34.8610   82.8290 O.3    82  TYR82      -0.2866
    154  N         20.3660   25.2420   85.2810 N.3    84  SER84      -0.1217
    155  CA        19.9270   24.7800   83.9700 C.3    84  SER84       0.1889
    156  C         19.6440   23.2870   84.0460 C.2    84  SER84       0.2288
    157  O         20.5670   22.4810   84.2580 O.2    84  SER84      -0.2866
    158  CB        21.0090   25.0840   82.9450 C.3    84  SER84       0.2089
    159  OG        21.1890   26.5000   82.8760 O.3    84  SER84      -0.2183
    160  N         11.8620   32.6300   66.1490 N.3   102  GLU102     -0.1245
    161  CA        12.2300   33.8630   66.8230 C.3   102  GLU102      0.1567
    162  C         13.5790   34.3430   66.2620 C.2   102  GLU102      0.2260
    163  O         14.6210   34.2180   66.9050 O.2   102  GLU102     -0.2867
    164  CB        12.3520   33.6130   68.3110 C.3   102  GLU102      0.0388
    165  CG        11.0500   33.1780   68.9650 C.3   102  GLU102      0.1160
    166  CD        11.2290   32.6880   70.3790 C.2   102  GLU102      0.3649
    167  OE1       12.3560   32.3140   70.7920 O.co2 102  GLU102     -0.2457
    168  OE2       10.2090   32.7130   71.1030 O.co2 102  GLU102     -0.2457
    169  N         16.1710   36.2600   68.1960 N.3   105  LYS105     -0.1245
    170  CA        16.7930   35.5720   69.3350 C.3   105  LYS105      0.1561
    171  C         17.7090   34.4320   68.9270 C.2   105  LYS105      0.2260
    172  O         18.4720   33.9450   69.7510 O.2   105  LYS105     -0.2867
    173  CB        15.7090   35.0450   70.2800 C.3   105  LYS105      0.0271
    174  CG        14.8260   36.1650   70.8360 C.3   105  LYS105      0.0035
    175  CD        13.8140   35.6640   71.8490 C.3   105  LYS105      0.0206
    176  CE        14.4440   35.4170   73.2080 C.3   105  LYS105      0.1093
    177  NZ        13.3830   35.2520   74.2510 N.3   105  LYS105     -0.1314
    178  N         18.2410   27.1060   63.5080 N.3   109  TRP109     -0.1241
    179  CA        18.4240   25.8360   64.1940 C.3   109  TRP109      0.1605
    180  C         18.8340   24.7850   63.1930 C.2   109  TRP109      0.2264
    181  O         18.2480   24.6900   62.1210 O.2   109  TRP109     -0.2867
    182  CB        17.1200   25.4020   64.8990 C.3   109  TRP109      0.0550
    183  CG        16.6780   26.3230   65.9840 C.ar  109  TRP109      0.0003
    184  CD1       15.6610   27.2500   65.9270 C.ar  109  TRP109      0.0946
    185  CD2       17.2540   26.4580   67.2870 C.ar  109  TRP109      0.0152
    186  NE1       15.5820   27.9210   67.1030 N.ar  109  TRP109     -0.2442
    187  CE2       16.5290   27.4570   67.9670 C.ar  109  TRP109      0.0810
    188  CE3       18.2940   25.7990   67.9660 C.ar  109  TRP109      0.0012
    189  CZ2       16.8130   27.8280   69.2910 C.ar  109  TRP109      0.0191
    190  CZ3       18.5890   26.1810   69.2820 C.ar  109  TRP109      0.0001
    191  CH2       17.8560   27.2030   69.9250 C.ar  109  TRP109      0.0015
    192  N         28.3650   27.4700   73.2450 N.3   122  PHE122     -0.1241
    193  CA        28.0250   28.2370   74.4460 C.3   122  PHE122      0.1605
    194  C         28.7010   27.5880   75.6440 C.2   122  PHE122      0.2264
    195  O         28.6400   26.3680   75.8070 O.2   122  PHE122     -0.2867
    196  CB        26.4780   28.2410   74.5670 C.3   122  PHE122      0.0534
    197  CG        25.9110   29.1260   75.6340 C.ar  122  PHE122     -0.0203
    198  CD1       26.5230   30.3100   76.0250 C.ar  122  PHE122     -0.0042
    199  CD2       24.7020   28.7690   76.2460 C.ar  122  PHE122     -0.0042
    200  CE1       25.9590   31.1190   76.9910 C.ar  122  PHE122     -0.0003
    201  CE2       24.1410   29.5860   77.2160 C.ar  122  PHE122     -0.0003
    202  CZ        24.7670   30.7660   77.5900 C.ar  122  PHE122     -0.0000
    203  N         28.5170   27.0270   78.9420 N.3   124  PRO124     -0.2102
    204  CA        27.9590   26.0270   79.8580 C.3   124  PRO124      0.1504
    205  C         27.7680   24.6820   79.2140 C.2   124  PRO124      0.2575
    206  O         27.9160   23.6560   79.8640 O.2   124  PRO124     -0.2718
    207  CB        26.5980   26.5910   80.2040 C.3   124  PRO124      0.0282
    208  CG        26.7140   28.0400   79.9480 C.3   124  PRO124      0.0208
    209  CD        27.5720   28.1360   78.7390 C.3   124  PRO124      0.0893
    210  N         27.4040   24.7140   77.9370 N.am  125  LEU125     -0.1980
    211  CA        27.2540   23.4920   77.1600 C.3   125  LEU125      0.1596
    212  C         28.6150   22.8250   76.9540 C.2   125  LEU125      0.2287
    213  O         28.7860   21.6180   77.1980 O.2   125  LEU125     -0.2864
    214  CB        26.5420   23.8210   75.8350 C.3   125  LEU125      0.0297
    215  CG        26.1400   22.6690   74.9700 C.3   125  LEU125      0.0022
    216  CD1       25.1800   21.7360   75.7010 C.3   125  LEU125      0.0001
    217  CD2       25.5440   23.2340   73.6910 C.3   125  LEU125      0.0001
@<TRIPOS>BOND
     1   181   180    2
     2   180   179    1
     3   178   179    1
     4   179   182    1
     5   182   183    1
     6   184   183   ar
     7   184   186   ar
     8   183   185   ar
     9   160   161    1
    10   162   161    1
    11   162   163    2
    12   161   164    1
    13   186   187   ar
    14   117   116    2
    15   185   188   ar
    16   185   187   ar
    17   188   190   ar
    18   187   189   ar
    19   116   115    1
    20   169   170    1
    21   164   165    1
    22   171   170    1
    23   171   172    2
    24   165   166    1
    25    16    15    2
    26   108   107    2
    27    13    14    1
    28   190   191   ar
    29   189   191   ar
    30   170   173    1
    31    15    14    1
    32   115   114    1
    33   115   118    1
    34   107   114   am
    35   107   106    1
    36    14    17    1
    37   173   174    1
    38   166   167   ar
    39   166   168   ar
    40   118   119    1
    41   106   105    1
    42   106   109    1
    43    41    40    2
    44   174   175    1
    45    38    39    1
    46    17    18    1
    47    56    57    1
    48    56    55    1
    49    57    51    1
    50   119   120    1
    51    24    25    1
    52    55    52    1
    53   175   176    1
    54    40    39    1
    55    40    43   am
    56    18    19    1
    57   109   110    1
    58    39    42    1
    59    51    52    1
    60    51    45   am
    61   121   120   ar
    62    99    98    2
    63   120   122   ar
    64    52    53    1
    65    44    45    1
    66    44    43    1
    67    44    47    1
    68    45    46    2
    69   110   111    1
    70    25    26    1
    71    25    28    1
    72   176   177    1
    73    27    26    2
    74   192   193    1
    75    50    48    1
    76    98    97    1
    77    19    20    1
    78    88    87    2
    79   217   215    1
    80    28    29    1
    81    53    58   am
    82    53    54    2
    83    47    48    1
    84   111   112   ar
    85   111   113   ar
    86    48    49    1
    87    20    21    2
    88   193   196    1
    89   193   194    1
    90   196   197    1
    91    58    59    1
    92    87    96   am
    93    87    86    1
    94    97    96    1
    95    97   100    1
    96   215   216    1
    97   215   214    1
    98    22    21    1
    99    21    23    1
   100    86    85    1
   101    86    89    1
   102    33    32    2
   103   197   198   ar
   104   197   199   ar
   105   194   195    2
   106    61    60    2
   107   100   101    1
   108   103   102   ar
   109   214   211    1
   110    59    60    1
   111    32    31    1
   112   198   200   ar
   113   199   201   ar
   114    90    89    1
   115    90    91    1
   116    60    62   am
   117    30    31    1
   118   102   101    1
   119   102   104   ar
   120   212   211    1
   121   212   213    2
   122   200   202   ar
   123    31    34    1
   124   211   210    1
   125   201   202   ar
   126     8     7    1
   127     8     9    2
   128    91    92    1
   129    94    93    1
   130    62    63    1
   131   210   205   am
   132     7    10    1
   133     7     6    1
   134    10    11    1
   135    10    12    1
   136    34    36    1
   137    34    35    1
   138    63    64    1
   139    92    93    2
   140    93    95    1
   141   209   203    1
   142   209   208    1
   143   203   204    1
   144   205   204    1
   145   205   206    2
   146    35    37    1
   147    64    66   am
   148    64    65    2
   149   204   207    1
   150   208   207    1
   151    83    82   ar
   152    66    67    1
   153   139   137   ar
   154   139   141   ar
   155    72    74   ar
   156    72    71   ar
   157    82    84   ar
   158    82    81    1
   159    74    75   ar
   160    69    68    2
   161   137   136   ar
   162   141   140   ar
   163    67    70    1
   164    67    68    1
   165    70    71    1
   166    71    73   ar
   167     5     2    1
   168    81    80    1
   169   136   138   ar
   170   136   135    1
   171   140   138   ar
   172    75    73   ar
   173     3     2    1
   174     3     4    2
   175   153   152    1
   176     2     1    1
   177   159   158    1
   178   158   155    1
   179   135   132    1
   180   152   151   ar
   181   152   150   ar
   182   151   149   ar
   183   130   128   am
   184    80    77    1
   185   150   148   ar
   186   149   147   ar
   187   128   129    2
   188   128   127    1
   189   148   147   ar
   190   147   146    1
   191    76    77    1
   192   155   156    1
   193   155   154    1
   194   132   133    1
   195   132   131    1
   196   156   157    2
   197   127   124    1
   198   146   143    1
   199    77    78    1
   200   134   133    2
   201   124   125    1
   202   124   123    1
   203    78    79    2
   204   126   125    2
   205   143   142    1
   206   143   144    1
   207   145   144    2
