@<TRIPOS>MOLECULE
tmp/6fl5A00.pdb
 137 131 0 0 0
SMALL
GASTEIGER

@<TRIPOS>ATOM
      1  N         14.4940  -58.7310    6.0940 N.3    43  SER43      -0.1217
      2  CA        13.5580  -58.3990    7.1650 C.3    43  SER43       0.1889
      3  C         13.9260  -57.1070    7.9010 C.2    43  SER43       0.2288
      4  O         13.2290  -56.6980    8.8300 O.2    43  SER43      -0.2866
      5  CB        13.4590  -59.5640    8.1570 C.3    43  SER43       0.2089
      6  OG        14.7410  -60.0110    8.5680 O.3    43  SER43      -0.2183
      7  N          3.5500  -58.7150   18.1910 N.3   109  SER109     -0.1202
      8  CA         4.4620  -58.8700   17.0630 C.3   109  SER109      0.2020
      9  C          3.8290  -59.7700   16.0000 C.2   109  SER109      0.2619
     10  O          2.6510  -60.1220   16.0920 O.2   109  SER109     -0.2717
     11  CB         5.7980  -59.4550   17.5340 C.3   109  SER109      0.2103
     12  OG         6.7440  -59.5090   16.4770 O.3   109  SER109     -0.2182
     13  N          4.6130  -60.1410   14.9950 N.am  110  GLY110     -0.1942
     14  CA         4.1100  -60.9720   13.9090 C.3   110  GLY110      0.2014
     15  C          3.7730  -62.3870   14.3460 C.2   110  GLY110      0.2640
     16  O          2.6830  -62.8860   14.0650 O.2   110  GLY110     -0.2714
     17  N          4.7060  -63.0390   15.0330 N.am  111  SER111     -0.1936
     18  CA         4.5020  -64.4200   15.4610 C.3   111  SER111      0.2040
     19  C          3.2290  -64.5630   16.2960 C.2   111  SER111      0.2485
     20  O          2.3700  -65.3880   15.9810 O.2   111  SER111     -0.2729
     21  CB         5.7160  -64.9380   16.2400 C.3   111  SER111      0.2129
     22  OG         6.8460  -65.0690   15.3960 O.3   111  SER111     -0.2179
     23  N          3.0950  -63.7540   17.3590 N.am  112  PRO112     -0.2726
     24  CA         1.8800  -63.7960   18.1700 C.3   112  PRO112      0.1402
     25  C          0.6290  -63.5910   17.3280 C.2   112  PRO112      0.2269
     26  O         -0.4110  -64.1780   17.6170 O.2   112  PRO112     -0.2865
     27  CB         2.0580  -62.6260   19.1420 C.3   112  PRO112      0.0296
     28  CG         3.5280  -62.4100   19.2170 C.3   112  PRO112      0.0237
     29  CD         4.0600  -62.7600   17.8590 C.3   112  PRO112      0.0939
     30  N          0.1110  -64.5290   14.1840 N.3   114  ASN114     -0.1240
     31  CA        -0.1900  -65.7840   13.5040 C.3   114  ASN114      0.1653
     32  C         -0.8000  -66.7970   14.4640 C.2   114  ASN114      0.2266
     33  O         -1.8560  -67.3710   14.1910 O.2   114  ASN114     -0.2867
     34  CB         1.0750  -66.3690   12.8780 C.3   114  ASN114      0.1155
     35  CG         1.5650  -65.5630   11.6940 C.2   114  ASN114      0.2627
     36  OD1        0.9680  -64.5540   11.3210 O.2   114  ASN114     -0.2716
     37  ND2        2.6570  -66.0110   11.0930 N.am  114  ASN114     -0.0877
     38  N          8.2690  -69.7140    7.1990 N.3   138  HIS138     -0.1241
     39  CA         8.6180  -69.1130    8.4830 C.3   138  HIS138      0.1621
     40  C          8.2430  -70.0750    9.6030 C.2   138  HIS138      0.2264
     41  O          7.3150  -70.8680    9.4570 O.2   138  HIS138     -0.2867
     42  CB         7.8910  -67.7810    8.6700 C.3   138  HIS138      0.0745
     43  CG         8.3710  -66.9930    9.8480 C.ar  138  HIS138      0.0817
     44  ND1        7.7680  -67.0610   11.0840 N.ar  138  HIS138     -0.2268
     45  CD2        9.3990  -66.1210    9.9780 C.ar  138  HIS138      0.1154
     46  CE1        8.4020  -66.2640   11.9260 C.ar  138  HIS138      0.1986
     47  NE2        9.3950  -65.6810   11.2800 N.ar  138  HIS138     -0.2212
     48  N          6.6200  -69.8340   12.3000 N.3   140  THR140     -0.1203
     49  CA         5.2210  -69.7530   12.7220 C.3   140  THR140      0.1994
     50  C          4.2740  -70.4960   11.7780 C.2   140  THR140      0.2617
     51  O          3.1250  -70.7690   12.1300 O.2   140  THR140     -0.2717
     52  CB         4.7550  -68.2920   12.8250 C.3   140  THR140      0.1784
     53  OG1        4.9270  -67.6430   11.5600 O.3   140  THR140     -0.2211
     54  CG2        5.5510  -67.5510   13.8910 C.3   140  THR140      0.0376
     55  N          4.7530  -70.8170   10.5800 N.am  141  HIS141     -0.1975
     56  CA         3.9570  -71.5790    9.6260 C.3   141  HIS141      0.1656
     57  C          4.0090  -73.0670    9.9490 C.2   141  HIS141      0.2291
     58  O          3.3070  -73.8660    9.3320 O.2   141  HIS141     -0.2864
     59  CB         4.4370  -71.3350    8.1920 C.3   141  HIS141      0.0771
     60  CG         4.3820  -69.8990    7.7720 C.ar  141  HIS141      0.0820
     61  ND1        5.1950  -69.3790    6.7880 N.ar  141  HIS141     -0.2267
     62  CD2        3.6200  -68.8700    8.2130 C.ar  141  HIS141      0.1154
     63  CE1        4.9290  -68.0940    6.6330 C.ar  141  HIS141      0.1986
     64  NE2        3.9770  -67.7600    7.4860 N.ar  141  HIS141     -0.2212
     65  N          5.6290  -66.2310    3.1200 N.3   192  THR192     -0.1203
     66  CA         7.0180  -66.6450    2.9960 C.3   192  THR192      0.1994
     67  C          7.9550  -65.6770    3.7030 C.2   192  THR192      0.2618
     68  O          7.6910  -64.4760    3.7780 O.2   192  THR192     -0.2717
     69  CB         7.4440  -66.6970    1.5220 C.3   192  THR192      0.1784
     70  OG1        7.4100  -65.3740    0.9700 O.3   192  THR192     -0.2211
     71  CG2        6.5190  -67.6060    0.7230 C.3   192  THR192      0.0376
     72  N          9.0560  -66.2130    4.2170 N.am  193  SER193     -0.1951
     73  CA        10.1120  -65.3980    4.7980 C.3   193  SER193      0.1924
     74  C         11.2140  -65.1830    3.7600 C.2   193  SER193      0.2314
     75  O         11.7930  -64.0990    3.6690 O.2   193  SER193     -0.2863
     76  CB        10.6780  -66.0740    6.0520 C.3   193  SER193      0.2116
     77  OG        11.4680  -65.1770    6.8180 O.3   193  SER193     -0.2180
     78  N          0.2390  -64.5330    5.0400 N.3   218  ASP218     -0.1239
     79  CA         1.2300  -63.9110    5.9090 C.3   218  ASP218      0.1674
     80  C          2.1060  -62.9700    5.0870 C.2   218  ASP218      0.2266
     81  O          3.2020  -63.3280    4.6550 O.2   218  ASP218     -0.2867
     82  CB         2.0810  -64.9730    6.6070 C.3   218  ASP218      0.1410
     83  CG         2.7270  -64.4590    7.8840 C.2   218  ASP218      0.3668
     84  OD1        2.6490  -63.2410    8.1590 O.co2 218  ASP218     -0.2456
     85  OD2        3.3120  -65.2810    8.6170 O.co2 218  ASP218     -0.2456
     86  N          3.8740  -60.6380    5.8920 N.3   220  ALA220     -0.1231
     87  CA         4.8690  -59.9860    6.7460 C.3   220  ALA220      0.1694
     88  C          5.9660  -59.2950    5.9330 C.2   220  ALA220      0.2592
     89  O          6.2890  -58.1290    6.1710 O.2   220  ALA220     -0.2718
     90  CB         5.4800  -60.9940    7.7110 C.3   220  ALA220      0.0304
     91  N          6.5310  -60.0160    4.9710 N.am  221  HIS221     -0.1976
     92  CA         7.6420  -59.4950    4.1790 C.3   221  HIS221      0.1656
     93  C          7.2140  -58.4690    3.1330 C.2   221  HIS221      0.2291
     94  O          7.8850  -57.4560    2.9490 O.2   221  HIS221     -0.2864
     95  CB         8.4030  -60.6390    3.5040 C.3   221  HIS221      0.0771
     96  CG         9.7130  -60.9500    4.1540 C.ar  221  HIS221      0.0820
     97  ND1        9.8080  -61.5880    5.3730 N.ar  221  HIS221     -0.2267
     98  CD2       10.9830  -60.6990    3.7610 C.ar  221  HIS221      0.1154
     99  CE1       11.0810  -61.7190    5.7000 C.ar  221  HIS221      0.1986
    100  NE2       11.8150  -61.1880    4.7380 N.ar  221  HIS221     -0.2212
    101  N          3.2880  -58.2760    9.8870 N.3   244  THR244     -0.1218
    102  CA         4.1270  -57.5310   10.8000 C.3   244  THR244      0.1862
    103  C          4.0220  -56.0510   10.4340 C.2   244  THR244      0.2287
    104  O          3.7700  -55.7110    9.2780 O.2   244  THR244     -0.2866
    105  CB         5.5900  -58.0000   10.7080 C.3   244  THR244      0.1770
    106  OG1        6.2770  -57.6710   11.9200 O.3   244  THR244     -0.2211
    107  CG2        6.2970  -57.3550    9.5210 C.3   244  THR244      0.0375
    108  N          6.5160  -53.9330   10.9490 N.3   246  HIS246     -0.1226
    109  CA         7.8540  -53.4760   10.5910 C.3   246  HIS246      0.1752
    110  C          8.2840  -54.0730    9.2490 C.2   246  HIS246      0.2595
    111  O          7.4530  -54.2680    8.3600 O.2   246  HIS246     -0.2718
    112  CB         8.8680  -53.7700   11.7100 C.3   246  HIS246      0.0759
    113  CG         8.8420  -55.1800   12.2150 C.ar  246  HIS246      0.0818
    114  ND1        7.9320  -55.6180   13.1530 N.ar  246  HIS246     -0.2268
    115  CD2        9.6350  -56.2420   11.9380 C.ar  246  HIS246      0.1154
    116  CE1        8.1550  -56.8920   13.4210 C.ar  246  HIS246      0.1986
    117  NE2        9.1830  -57.2950   12.6970 N.ar  246  HIS246     -0.2212
    118  N          9.5770  -54.3500    9.0990 N.am  247  LYS247     -0.1980
    119  CA        10.1220  -54.7970    7.8220 C.3   247  LYS247      0.1596
    120  C          9.7810  -53.7790    6.7300 C.2   247  LYS247      0.2287
    121  O         10.0970  -52.5980    6.8690 O.2   247  LYS247     -0.2864
    122  CB         9.6170  -56.2030    7.4810 C.3   247  LYS247      0.0298
    123  CG        10.1250  -57.2650    8.4470 C.3   247  LYS247      0.0038
    124  CD         9.5030  -58.6360    8.2110 C.3   247  LYS247      0.0206
    125  CE        10.0710  -59.6670    9.1770 C.3   247  LYS247      0.1093
    126  NZ         9.2230  -60.8880    9.3110 N.3   247  LYS247     -0.1314
    127  N          7.9970  -52.5280   16.0280 N.3   253  ARG253     -0.1245
    128  CA         7.7440  -53.9570   16.2080 C.3   253  ARG253      0.1563
    129  C          6.3230  -54.2080   16.7070 C.2   253  ARG253      0.2260
    130  O          5.9910  -53.8780   17.8460 O.2   253  ARG253     -0.2867
    131  CB         8.7440  -54.5520   17.2000 C.3   253  ARG253      0.0307
    132  CG        10.2010  -54.3740   16.8060 C.3   253  ARG253      0.0489
    133  CD        10.7360  -55.5680   16.0380 C.3   253  ARG253      0.2205
    134  NE        12.1090  -55.3370   15.6010 N.pl3 253  ARG253     -0.0865
    135  CZ        12.8960  -56.2680   15.0740 C.cat 253  ARG253      0.5346
    136  NH1       12.4510  -57.5090   14.9180 N.pl3 253  ARG253      0.1354
    137  NH2       14.1310  -55.9590   14.7050 N.pl3 253  ARG253      0.1354
@<TRIPOS>BOND
     1    71    69    1
     2    70    69    1
     3    69    66    1
     4    94    93    2
     5    66    65    1
     6    66    67    1
     7    93    92    1
     8    95    96    1
     9    95    92    1
    10    75    74    2
    11    67    68    2
    12    67    72   am
    13    74    73    1
    14    98    96   ar
    15    98   100   ar
    16    96    97   ar
    17    92    91    1
    18    72    73    1
    19    81    80    2
    20   100    99   ar
    21    73    76    1
    22    91    88   am
    23    78    79    1
    24    80    79    1
    25    97    99   ar
    26    86    87    1
    27    79    82    1
    28    88    89    2
    29    88    87    1
    30    76    77    1
    31     1     2    1
    32    82    83    1
    33    63    61   ar
    34    63    64   ar
    35   120   121    2
    36   120   119    1
    37    87    90    1
    38    61    60   ar
    39     2     3    1
    40     2     5    1
    41    38    39    1
    42   122   119    1
    43   122   123    1
    44    64    62   ar
    45    60    59    1
    46    60    62   ar
    47   119   118    1
    48    83    84   ar
    49    83    85   ar
    50     3     4    2
    51     5     6    1
    52    59    56    1
    53   124   123    1
    54   124   125    1
    55   111   110    2
    56    39    42    1
    57    39    40    1
    58    42    43    1
    59   118   110   am
    60   125   126    1
    61   110   109    1
    62   104   103    2
    63    58    57    2
    64    41    40    2
    65   107   105    1
    66    56    57    1
    67    56    55    1
    68    43    45   ar
    69    43    44   ar
    70   101   102    1
    71    45    47   ar
    72   103   102    1
    73    55    50   am
    74   109   108    1
    75   109   112    1
    76   105   102    1
    77   105   106    1
    78    44    46   ar
    79    37    35   am
    80    47    46   ar
    81    36    35    2
    82    53    52    1
    83    35    34    1
    84   112   113    1
    85    50    51    2
    86    50    49    1
    87   115   113   ar
    88   115   117   ar
    89   113   114   ar
    90    48    49    1
    91   117   116   ar
    92    49    52    1
    93    52    54    1
    94    34    31    1
    95   114   116   ar
    96    31    30    1
    97    31    32    1
    98    14    15    1
    99    14    13    1
   100    16    15    2
   101    33    32    2
   102    15    17   am
   103   137   135    1
   104   136   135    1
   105    13     9   am
   106    17    18    1
   107   135   134    2
   108    22    21    1
   109    18    21    1
   110    18    19    1
   111   134   133    1
   112    20    19    2
   113     9    10    2
   114     9     8    1
   115   127   128    1
   116   133   132    1
   117   128   129    1
   118   128   131    1
   119    19    23   am
   120    12    11    1
   121   129   130    2
   122   132   131    1
   123     8    11    1
   124     8     7    1
   125    25    26    2
   126    25    24    1
   127    23    29    1
   128    23    24    1
   129    29    28    1
   130    24    27    1
   131    27    28    1
