@<TRIPOS>MOLECULE
tmp/6fl8A00.pdb
 97 91 0 0 0
SMALL
GASTEIGER

@<TRIPOS>ATOM
      1  N         -2.7260   -8.9170    2.9280 N.3    26  GLY26      -0.1210
      2  CA        -2.9150   -8.5380    1.5420 C.3    26  GLY26       0.1956
      3  C         -2.6690   -9.7260    0.6310 C.2    26  GLY26       0.2612
      4  O         -2.9470  -10.8690    1.0120 O.2    26  GLY26      -0.2717
      5  N         -2.1200   -9.4740   -0.5610 N.am   27  GLY27      -0.1956
      6  CA        -1.8460  -10.5580   -1.4880 C.3    27  GLY27       0.1869
      7  C         -0.6470  -11.4180   -1.1290 C.2    27  GLY27       0.2309
      8  O         -0.6090  -12.5950   -1.4960 O.2    27  GLY27      -0.2863
      9  N        -12.3670  -16.0310    0.4450 N.3   131  TRP131     -0.1227
     10  CA       -11.6440  -16.1210   -0.8210 C.3   131  TRP131      0.1737
     11  C        -10.1320  -15.9750   -0.6530 C.2   131  TRP131      0.2595
     12  O         -9.3930  -16.2990   -1.5930 O.2   131  TRP131     -0.2718
     13  CB       -12.1630  -15.0800   -1.8170 C.3   131  TRP131      0.0564
     14  CG       -11.9830  -13.6700   -1.3560 C.ar  131  TRP131      0.0003
     15  CD1      -12.8150  -12.9580   -0.5210 C.ar  131  TRP131      0.0946
     16  CD2      -10.9120  -12.7840   -1.7040 C.ar  131  TRP131      0.0152
     17  NE1      -12.3170  -11.6900   -0.3270 N.ar  131  TRP131     -0.2442
     18  CE2      -11.1550  -11.5540   -1.0430 C.ar  131  TRP131      0.0810
     19  CE3       -9.7750  -12.9060   -2.5100 C.ar  131  TRP131      0.0012
     20  CZ2      -10.2960  -10.4590   -1.1650 C.ar  131  TRP131      0.0191
     21  CZ3       -8.9250  -11.8170   -2.6280 C.ar  131  TRP131      0.0001
     22  CH2       -9.1900  -10.6110   -1.9570 C.ar  131  TRP131      0.0015
     23  N         -9.6620  -15.4860    0.5060 N.am  132  ARG132     -0.1980
     24  CA        -8.2390  -15.5280    0.8530 C.3   132  ARG132      0.1597
     25  C         -7.7990  -16.9470    1.2120 C.2   132  ARG132      0.2287
     26  O         -6.7380  -17.4110    0.7710 O.2   132  ARG132     -0.2864
     27  CB        -7.9430  -14.5800    2.0260 C.3   132  ARG132      0.0334
     28  CG        -8.2620  -13.1050    1.8050 C.3   132  ARG132      0.0492
     29  CD        -7.2590  -12.4490    0.8540 C.3   132  ARG132      0.2205
     30  NE        -7.2490  -10.9940    0.9850 N.pl3 132  ARG132     -0.0865
     31  CZ        -6.5640  -10.1690    0.1920 C.cat 132  ARG132      0.5346
     32  NH1       -5.8260  -10.6390   -0.8210 N.pl3 132  ARG132      0.1354
     33  NH2       -6.6220   -8.8620    0.4060 N.pl3 132  ARG132      0.1354
     34  N         -4.5560    3.7040    1.5630 N.3   167  LYS167     -0.1245
     35  CA        -3.8350    3.1800    0.4020 C.3   167  LYS167      0.1561
     36  C         -4.0970    4.1420   -0.7450 C.2   167  LYS167      0.2260
     37  O         -5.1830    4.1010   -1.3350 O.2   167  LYS167     -0.2867
     38  CB        -4.3160    1.7710    0.0540 C.3   167  LYS167      0.0271
     39  CG        -3.6470    1.1510   -1.1850 C.3   167  LYS167      0.0035
     40  CD        -4.1630   -0.2620   -1.4370 C.3   167  LYS167      0.0206
     41  CE        -3.2660   -1.0120   -2.4130 C.3   167  LYS167      0.1093
     42  NZ        -3.7830   -2.3710   -2.6670 N.3   167  LYS167     -0.1314
     43  N         -2.9250    5.0000   -3.9150 N.3   169  LYS169     -0.1245
     44  CA        -2.8540    4.7200   -5.3480 C.3   169  LYS169      0.1561
     45  C         -2.1060    5.8140   -6.0990 C.2   169  LYS169      0.2260
     46  O         -1.4970    6.6910   -5.4740 O.2   169  LYS169     -0.2867
     47  CB        -4.2480    4.5140   -5.9380 C.3   169  LYS169      0.0271
     48  CG        -5.0000    3.3180   -5.3440 C.3   169  LYS169      0.0035
     49  CD        -4.1000    2.0790   -5.2590 C.3   169  LYS169      0.0206
     50  CE        -3.8610    1.4550   -6.6460 C.3   169  LYS169      0.1093
     51  NZ        -3.1250    0.1560   -6.5500 N.3   169  LYS169     -0.1314
     52  N         -5.9710    6.5060  -13.7360 N.3   191  ARG191     -0.1245
     53  CA        -6.0380    5.0490  -13.7330 C.3   191  ARG191      0.1563
     54  C         -7.0200    4.5390  -12.6850 C.2   191  ARG191      0.2260
     55  O         -7.7430    3.5660  -12.9290 O.2   191  ARG191     -0.2867
     56  CB        -4.6450    4.4590  -13.4790 C.3   191  ARG191      0.0307
     57  CG        -4.6110    2.9390  -13.4680 C.3   191  ARG191      0.0489
     58  CD        -3.1790    2.4140  -13.2970 C.3   191  ARG191      0.2205
     59  NE        -3.0910    0.9690  -13.4890 N.pl3 191  ARG191     -0.0865
     60  CZ        -3.3880    0.0860  -12.5420 C.cat 191  ARG191      0.5346
     61  NH1       -3.8050    0.5090  -11.3430 N.pl3 191  ARG191      0.1354
     62  NH2       -3.2990   -1.2120  -12.7990 N.pl3 191  ARG191      0.1354
     63  N        -10.1470    2.1490  -13.5280 N.3   195  HIS195     -0.1241
     64  CA       -10.0860    0.8100  -12.9500 C.3   195  HIS195      0.1621
     65  C        -11.3940    0.4520  -12.2420 C.2   195  HIS195      0.2264
     66  O        -11.8930   -0.6710  -12.3740 O.2   195  HIS195     -0.2867
     67  CB        -8.8840    0.7150  -11.9820 C.3   195  HIS195      0.0745
     68  CG        -8.3720   -0.6820  -11.7620 C.ar  195  HIS195      0.0817
     69  ND1       -7.2660   -0.9610  -10.9800 N.ar  195  HIS195     -0.2268
     70  CD2       -8.8140   -1.8810  -12.2240 C.ar  195  HIS195      0.1154
     71  CE1       -7.0580   -2.2670  -10.9590 C.ar  195  HIS195      0.1986
     72  NE2       -7.9920   -2.8480  -11.6950 N.ar  195  HIS195     -0.2212
     73  N        -13.4570   -3.1580  -12.0570 N.3   199  LYS199     -0.1245
     74  CA       -13.7500   -3.8150  -10.7820 C.3   199  LYS199      0.1561
     75  C        -15.2470   -4.0980  -10.6190 C.2   199  LYS199      0.2260
     76  O        -15.6320   -5.1300  -10.0580 O.2   199  LYS199     -0.2867
     77  CB       -13.2440   -2.9580   -9.6180 C.3   199  LYS199      0.0271
     78  CG       -11.6890   -2.9220   -9.4350 C.3   199  LYS199      0.0035
     79  CD       -11.2640   -1.7780   -8.4620 C.3   199  LYS199      0.0206
     80  CE        -9.7290   -1.6870   -8.2870 C.3   199  LYS199      0.1093
     81  NZ        -9.1550   -2.7620   -7.4440 N.3   199  LYS199     -0.1314
     82  N        -11.0460   -0.6850   -0.1190 N.3   237  ASN237     -0.1240
     83  CA        -9.8390   -1.1380    0.5700 C.3   237  ASN237      0.1653
     84  C         -8.8050   -0.0210    0.7020 C.2   237  ASN237      0.2266
     85  O         -7.6190   -0.2820    0.9420 O.2   237  ASN237     -0.2867
     86  CB        -9.2340   -2.3580   -0.1430 C.3   237  ASN237      0.1155
     87  CG        -8.4870   -1.9960   -1.4090 C.2   237  ASN237      0.2627
     88  OD1       -8.8260   -1.0320   -2.0950 O.2   237  ASN237     -0.2716
     89  ND2       -7.4580   -2.7800   -1.7320 N.am  237  ASN237     -0.0877
     90  N          1.8000    1.3180   -4.8230 N.3   360  ASP360     -0.1239
     91  CA         1.1240    0.1800   -4.2220 C.3   360  ASP360      0.1674
     92  C          1.1580    0.2150   -2.7040 C.2   360  ASP360      0.2266
     93  O          0.6060   -0.6840   -2.0660 O.2   360  ASP360     -0.2867
     94  CB         1.7860   -1.1290   -4.7040 C.3   360  ASP360      0.1410
     95  CG         0.8090   -2.0800   -5.3810 C.2   360  ASP360      0.3668
     96  OD1       -0.4150   -1.9560   -5.1360 O.co2 360  ASP360     -0.2456
     97  OD2        1.2810   -2.9760   -6.1390 O.co2 360  ASP360     -0.2456
@<TRIPOS>BOND
     1    52    53    1
     2    53    56    1
     3    53    54    1
     4    63    64    1
     5    59    58    1
     6    59    60    2
     7    56    57    1
     8    57    58    1
     9    64    65    1
    10    64    67    1
    11    55    54    2
    12    62    60    1
    13    60    61    1
    14    66    65    2
    15    70    68   ar
    16    70    72   ar
    17    73    74    1
    18    67    68    1
    19    68    69   ar
    20    72    71   ar
    21    69    71   ar
    22    74    75    1
    23    74    77    1
    24    75    76    2
    25    77    78    1
    26    78    79    1
    27    79    80    1
    28    80    81    1
    29    50    51    1
    30    50    49    1
    31    97    95   ar
    32    45    46    2
    33    45    44    1
    34    47    44    1
    35    47    48    1
    36    95    96   ar
    37    95    94    1
    38    44    43    1
    39    48    49    1
    40    90    91    1
    41    94    91    1
    42    91    92    1
    43    92    93    2
    44    42    41    1
    45    21    19   ar
    46    21    22   ar
    47    19    16   ar
    48    41    40    1
    49    88    87    2
    50    22    20   ar
    51    13    14    1
    52    13    10    1
    53    89    87   am
    54    16    14   ar
    55    16    18   ar
    56    12    11    2
    57     8     7    2
    58     6     7    1
    59     6     5    1
    60    40    39    1
    61    87    86    1
    62    14    15   ar
    63    37    36    2
    64    39    38    1
    65    20    18   ar
    66    18    17   ar
    67    32    31    1
    68    10    11    1
    69    10     9    1
    70    36    35    1
    71    11    23   am
    72     5     3   am
    73    15    17   ar
    74    86    83    1
    75    82    83    1
    76    38    35    1
    77    31    33    1
    78    31    30    2
    79    35    34    1
    80    23    24    1
    81    83    84    1
    82     3     4    2
    83     3     2    1
    84    84    85    2
    85    26    25    2
    86    24    25    1
    87    24    27    1
    88    29    30    1
    89    29    28    1
    90     2     1    1
    91    28    27    1
