@<TRIPOS>MOLECULE
tmp/6fldA01.pdb
 168 164 0 0 0
SMALL
GASTEIGER

@<TRIPOS>ATOM
      1  N         -5.5790  130.3820  162.1080 N.3    69  ASP69      -0.1239
      2  CA        -5.0470  131.2320  163.1670 C.3    69  ASP69       0.1674
      3  C         -6.1370  131.5250  164.1980 C.2    69  ASP69       0.2266
      4  O         -7.1700  132.1140  163.8650 O.2    69  ASP69      -0.2867
      5  CB        -4.5050  132.5190  162.5400 C.3    69  ASP69       0.1410
      6  CG        -4.0780  133.5640  163.5630 C.2    69  ASP69       0.3668
      7  OD1       -3.8420  133.2320  164.7420 O.co2  69  ASP69      -0.2456
      8  OD2       -3.9690  134.7470  163.1740 O.co2  69  ASP69      -0.2456
      9  N         -6.8200  139.5260  162.4730 N.3    78  SER78      -0.1217
     10  CA        -6.3240  138.1860  162.1890 C.3    78  SER78       0.1889
     11  C         -7.3340  137.3570  161.4110 C.2    78  SER78       0.2288
     12  O         -6.9520  136.5950  160.5100 O.2    78  SER78      -0.2866
     13  CB        -5.9290  137.4600  163.4880 C.3    78  SER78       0.2089
     14  OG        -6.9660  137.4300  164.4680 O.3    78  SER78      -0.2183
     15  N         -7.9430  137.0350  157.4830 N.3    81  TRP81      -0.1241
     16  CA        -7.0360  136.2050  156.7050 C.3    81  TRP81       0.1605
     17  C         -7.3950  134.7230  156.7290 C.2    81  TRP81       0.2264
     18  O         -6.8720  133.9650  155.9060 O.2    81  TRP81      -0.2867
     19  CB        -5.6030  136.4050  157.2080 C.3    81  TRP81       0.0550
     20  CG        -5.1960  137.8400  157.1350 C.ar   81  TRP81       0.0003
     21  CD1       -4.9630  138.6830  158.1750 C.ar   81  TRP81       0.0946
     22  CD2       -5.0010  138.6110  155.9420 C.ar   81  TRP81       0.0152
     23  NE1       -4.6270  139.9360  157.7060 N.ar   81  TRP81      -0.2442
     24  CE2       -4.6400  139.9140  156.3390 C.ar   81  TRP81       0.0810
     25  CE3       -5.0900  138.3220  154.5790 C.ar   81  TRP81       0.0012
     26  CZ2       -4.3680  140.9270  155.4210 C.ar   81  TRP81       0.0191
     27  CZ3       -4.8180  139.3330  153.6680 C.ar   81  TRP81       0.0001
     28  CH2       -4.4610  140.6170  154.0940 C.ar   81  TRP81       0.0015
     29  N         -1.0860  134.7660  149.1310 N.3   114  GLY114     -0.1210
     30  CA        -0.0160  134.3960  150.0360 C.3   114  GLY114      0.1956
     31  C         -0.5210  133.6460  151.2530 C.2   114  GLY114      0.2612
     32  O         -1.6550  133.1610  151.2940 O.2   114  GLY114     -0.2717
     33  N          0.3400  133.5660  152.2720 N.am  115  GLY115     -0.1942
     34  CA         0.0610  132.7760  153.4610 C.3   115  GLY115      0.2014
     35  C          1.0940  131.6960  153.7350 C.2   115  GLY115      0.2639
     36  O          0.7740  130.6380  154.2870 O.2   115  GLY115     -0.2714
     37  N          2.3350  131.9460  153.3210 N.am  116  GLY116     -0.1954
     38  CA         3.4920  131.1640  153.7080 C.3   116  GLY116      0.1869
     39  C          3.4790  129.7390  153.2350 C.2   116  GLY116      0.2309
     40  O          4.1860  128.9000  153.7960 O.2   116  GLY116     -0.2863
     41  N          1.4570  127.6170  153.8410 N.3   118  TYR118     -0.1241
     42  CA         0.6980  126.8020  154.7820 C.3   118  TYR118      0.1605
     43  C         -0.7610  127.2220  154.9010 C.2   118  TYR118      0.2264
     44  O         -1.5370  126.5130  155.5530 O.2   118  TYR118     -0.2867
     45  CB         1.3380  126.8300  156.1870 C.3   118  TYR118      0.0534
     46  CG         1.1970  128.1600  156.9100 C.ar  118  TYR118     -0.0201
     47  CD1        0.0650  128.4470  157.6860 C.ar  118  TYR118     -0.0009
     48  CD2        2.1900  129.1340  156.8100 C.ar  118  TYR118     -0.0009
     49  CE1       -0.0670  129.6630  158.3370 C.ar  118  TYR118      0.0417
     50  CE2        2.0640  130.3460  157.4530 C.ar  118  TYR118      0.0417
     51  CZ         0.9360  130.6080  158.2190 C.ar  118  TYR118      0.1957
     52  OH         0.8230  131.8200  158.8620 O.3   118  TYR118     -0.2866
     53  N         -9.6220  140.1320  148.7140 N.3   127  TYR127     -0.1241
     54  CA        -9.2520  139.6300  147.3950 C.3   127  TYR127      0.1605
     55  C        -10.4110  139.6900  146.4060 C.2   127  TYR127      0.2264
     56  O        -10.3310  139.0730  145.3400 O.2   127  TYR127     -0.2867
     57  CB        -8.7330  138.1870  147.4760 C.3   127  TYR127      0.0534
     58  CG        -7.5080  137.9520  148.3350 C.ar  127  TYR127     -0.0201
     59  CD1       -6.6250  138.9820  148.6510 C.ar  127  TYR127     -0.0009
     60  CD2       -7.2440  136.6830  148.8380 C.ar  127  TYR127     -0.0009
     61  CE1       -5.5080  138.7450  149.4490 C.ar  127  TYR127      0.0417
     62  CE2       -6.1460  136.4320  149.6230 C.ar  127  TYR127      0.0417
     63  CZ        -5.2760  137.4580  149.9320 C.ar  127  TYR127      0.1957
     64  OH        -4.1790  137.1730  150.7260 O.3   127  TYR127     -0.2866
     65  N          0.9440  138.2240  146.5290 N.3   196  GLU196     -0.1245
     66  CA         1.5680  138.8600  147.6740 C.3   196  GLU196      0.1567
     67  C          2.2790  137.8530  148.5610 C.2   196  GLU196      0.2260
     68  O          1.7240  136.8200  148.9420 O.2   196  GLU196     -0.2867
     69  CB         0.5340  139.6390  148.4800 C.3   196  GLU196      0.0388
     70  CG         1.1380  140.5800  149.4960 C.3   196  GLU196      0.1160
     71  CD         1.2130  139.9780  150.8910 C.2   196  GLU196      0.3649
     72  OE1        0.5630  138.9380  151.1540 O.co2 196  GLU196     -0.2457
     73  OE2        1.9430  140.5500  151.7240 O.co2 196  GLU196     -0.2457
     74  N          3.8340  134.9330  149.8490 N.3   197  ALA197     -0.1245
     75  CA         4.0390  133.5780  149.3280 C.3   197  ALA197      0.1562
     76  C          3.6080  133.5490  147.8650 C.2   197  ALA197      0.2260
     77  O          4.2090  132.8580  147.0500 O.2   197  ALA197     -0.2867
     78  CB         3.2750  132.5470  150.1020 C.3   197  ALA197      0.0290
     79  N          8.2930  127.8610  157.7370 N.3   286  PHE286     -0.1241
     80  CA         7.0380  127.1690  157.4850 C.3   286  PHE286      0.1605
     81  C          7.3590  125.7580  157.0130 C.2   286  PHE286      0.2264
     82  O          8.3710  125.5220  156.3450 O.2   286  PHE286     -0.2867
     83  CB         6.1880  127.9470  156.4610 C.3   286  PHE286      0.0534
     84  CG         6.2210  129.4400  156.6800 C.ar  286  PHE286     -0.0203
     85  CD1        5.6690  130.0000  157.8360 C.ar  286  PHE286     -0.0042
     86  CD2        6.8360  130.2800  155.7640 C.ar  286  PHE286     -0.0042
     87  CE1        5.7130  131.3680  158.0630 C.ar  286  PHE286     -0.0003
     88  CE2        6.8820  131.6560  155.9800 C.ar  286  PHE286     -0.0003
     89  CZ         6.3250  132.1970  157.1410 C.ar  286  PHE286     -0.0000
     90  N          8.1800  144.8300  157.2010 N.3   323  GLU323     -0.1245
     91  CA         7.9120  143.4610  156.7750 C.3   323  GLU323      0.1567
     92  C          8.1190  142.4320  157.8750 C.2   323  GLU323      0.2260
     93  O          7.6840  141.2910  157.7150 O.2   323  GLU323     -0.2867
     94  CB         8.7980  143.0920  155.5700 C.3   323  GLU323      0.0388
     95  CG         8.4970  143.8740  154.2970 C.3   323  GLU323      0.1160
     96  CD         7.2270  143.3990  153.5690 C.2   323  GLU323      0.3649
     97  OE1        6.7820  144.0950  152.6240 O.co2 323  GLU323     -0.2457
     98  OE2        6.6650  142.3380  153.9300 O.co2 323  GLU323     -0.2457
     99  N          4.8050  140.8600  161.7800 N.3   326  PHE326     -0.1227
    100  CA         3.9950  139.6990  162.1210 C.3   326  PHE326      0.1736
    101  C          4.8640  138.5590  162.6420 C.2   326  PHE326      0.2595
    102  O          4.4640  137.8470  163.5700 O.2   326  PHE326     -0.2718
    103  CB         3.1620  139.2620  160.9080 C.3   326  PHE326      0.0547
    104  CG         1.8450  139.9890  160.7760 C.ar  326  PHE326     -0.0202
    105  CD1        0.9600  140.0530  161.8440 C.ar  326  PHE326     -0.0042
    106  CD2        1.4900  140.5990  159.5860 C.ar  326  PHE326     -0.0042
    107  CE1       -0.2490  140.7240  161.7290 C.ar  326  PHE326     -0.0003
    108  CE2        0.2790  141.2590  159.4520 C.ar  326  PHE326     -0.0003
    109  CZ        -0.5910  141.3290  160.5210 C.ar  326  PHE326     -0.0000
    110  N          6.0570  138.3770  162.0640 N.am  327  PHE327     -0.1976
    111  CA         6.9920  137.3680  162.5590 C.3   327  PHE327      0.1639
    112  C          7.2610  137.5580  164.0520 C.2   327  PHE327      0.2290
    113  O          7.2770  136.5950  164.8290 O.2   327  PHE327     -0.2864
    114  CB         8.3210  137.4500  161.8010 C.3   327  PHE327      0.0560
    115  CG         8.3630  136.7080  160.4770 C.ar  327  PHE327     -0.0200
    116  CD1        8.2570  135.3240  160.4250 C.ar  327  PHE327     -0.0042
    117  CD2        8.5890  137.4010  159.2930 C.ar  327  PHE327     -0.0042
    118  CE1        8.3510  134.6480  159.2050 C.ar  327  PHE327     -0.0003
    119  CE2        8.6810  136.7350  158.0750 C.ar  327  PHE327     -0.0003
    120  CZ         8.5610  135.3590  158.0300 C.ar  327  PHE327     -0.0000
    121  N          4.0320  137.1360  166.4160 N.3   330  TYR330     -0.1241
    122  CA         3.5200  135.7810  166.6080 C.3   330  TYR330      0.1605
    123  C          4.5540  134.8500  167.2260 C.2   330  TYR330      0.2264
    124  O          4.1810  133.8880  167.9140 O.2   330  TYR330     -0.2867
    125  CB         3.0020  135.2020  165.2890 C.3   330  TYR330      0.0534
    126  CG         1.5700  135.5950  164.9870 C.ar  330  TYR330     -0.0201
    127  CD1        1.2640  136.8790  164.5460 C.ar  330  TYR330     -0.0009
    128  CD2        0.5260  134.6910  165.1480 C.ar  330  TYR330     -0.0009
    129  CE1       -0.0340  137.2540  164.2780 C.ar  330  TYR330      0.0417
    130  CE2       -0.7830  135.0580  164.8690 C.ar  330  TYR330      0.0417
    131  CZ        -1.0480  136.3430  164.4330 C.ar  330  TYR330      0.1957
    132  OH        -2.3300  136.7330  164.1510 O.3   330  TYR330     -0.2866
    133  N         -4.5640  146.5480  163.8210 N.3   428  TRP428     -0.1241
    134  CA        -3.3470  146.0700  164.4550 C.3   428  TRP428      0.1605
    135  C         -2.6300  147.2300  165.1500 C.2   428  TRP428      0.2264
    136  O         -2.7610  148.3830  164.7310 O.2   428  TRP428     -0.2867
    137  CB        -2.4300  145.4270  163.4140 C.3   428  TRP428      0.0550
    138  CG        -2.9280  144.1130  162.8710 C.ar  428  TRP428      0.0003
    139  CD1       -3.5220  143.8930  161.6530 C.ar  428  TRP428      0.0946
    140  CD2       -2.8660  142.8330  163.5240 C.ar  428  TRP428      0.0152
    141  NE1       -3.8340  142.5580  161.5160 N.ar  428  TRP428     -0.2442
    142  CE2       -3.4430  141.8900  162.6500 C.ar  428  TRP428      0.0810
    143  CE3       -2.3850  142.3970  164.7690 C.ar  428  TRP428      0.0012
    144  CZ2       -3.5460  140.5400  162.9780 C.ar  428  TRP428      0.0191
    145  CZ3       -2.4930  141.0550  165.0920 C.ar  428  TRP428      0.0001
    146  CH2       -3.0670  140.1430  164.2000 C.ar  428  TRP428      0.0015
    147  N          3.2210  144.3440  156.6050 N.3   436  HIS436     -0.1226
    148  CA         3.1310  143.3720  155.5400 C.3   436  HIS436      0.1752
    149  C          1.6840  142.9260  155.3360 C.2   436  HIS436      0.2596
    150  O          0.9660  142.6390  156.3000 O.2   436  HIS436     -0.2718
    151  CB         4.0390  142.1980  155.9030 C.3   436  HIS436      0.0759
    152  CG         3.6380  140.9160  155.2710 C.ar  436  HIS436      0.0818
    153  ND1        2.8690  139.9780  155.9250 N.ar  436  HIS436     -0.2268
    154  CD2        3.8870  140.4180  154.0410 C.ar  436  HIS436      0.1154
    155  CE1        2.6530  138.9550  155.1200 C.ar  436  HIS436      0.1986
    156  NE2        3.2500  139.2030  153.9680 N.ar  436  HIS436     -0.2212
    157  N          1.2440  142.9210  154.0740 N.am  437  GLY437     -0.1957
    158  CA        -0.0950  142.5010  153.7210 C.3   437  GLY437      0.1869
    159  C         -1.1330  143.6040  153.6570 C.2   437  GLY437      0.2309
    160  O         -2.2330  143.3770  153.1150 O.2   437  GLY437     -0.2863
    161  N         -2.5370  145.2290  150.1940 N.3   440  ILE440     -0.1245
    162  CA        -3.4380  144.4730  149.3290 C.3   440  ILE440      0.1561
    163  C         -4.7830  145.1730  149.2080 C.2   440  ILE440      0.2260
    164  O         -5.3520  145.2730  148.1120 O.2   440  ILE440     -0.2867
    165  CB        -3.5960  143.0330  149.8470 C.3   440  ILE440      0.0252
    166  CG1       -2.2460  142.3080  149.8570 C.3   440  ILE440      0.0019
    167  CG2       -4.6210  142.2810  149.0080 C.3   440  ILE440      0.0019
    168  CD1       -2.3270  140.9220  150.4510 C.3   440  ILE440      0.0001
@<TRIPOS>BOND
     1    56    55    2
     2    55    54    1
     3    65    66    1
     4    77    76    2
     5    54    57    1
     6    54    53    1
     7    57    58    1
     8    66    69    1
     9    66    67    1
    10    76    75    1
    11   164   163    2
    12    58    59   ar
    13    58    60   ar
    14    69    70    1
    15    67    68    2
    16    59    61   ar
    17    60    62   ar
    18   167   165    1
    19    29    30    1
    20   163   162    1
    21    75    74    1
    22    75    78    1
    23   162   165    1
    24   162   161    1
    25    61    63   ar
    26    70    71    1
    27    62    63   ar
    28   165   166    1
    29   166   168    1
    30    63    64    1
    31    30    31    1
    32    71    72   ar
    33    71    73   ar
    34    31    32    2
    35    31    33   am
    36    33    34    1
    37    97    96   ar
    38   160   159    2
    39    39    38    1
    40    39    40    2
    41    37    38    1
    42    37    35   am
    43    34    35    1
    44    96    98   ar
    45    96    95    1
    46   159   158    1
    47    27    28   ar
    48    27    25   ar
    49   158   157    1
    50    35    36    2
    51    41    42    1
    52   156   154   ar
    53   156   155   ar
    54   154   152   ar
    55   157   149   am
    56    28    26   ar
    57    95    94    1
    58    25    22   ar
    59    42    43    1
    60    42    45    1
    61    43    44    2
    62   155   153   ar
    63   152   151    1
    64   152   153   ar
    65   149   148    1
    66   149   150    2
    67    26    24   ar
    68   148   151    1
    69   148   147    1
    70    94    91    1
    71    86    88   ar
    72    86    84   ar
    73    18    17    2
    74    22    24   ar
    75    22    20   ar
    76    88    89   ar
    77    45    46    1
    78    24    23   ar
    79    82    81    2
    80    83    84    1
    81    83    80    1
    82    84    85   ar
    83    16    17    1
    84    16    19    1
    85    16    15    1
    86    91    90    1
    87    91    92    1
    88    48    46   ar
    89    48    50   ar
    90    46    47   ar
    91    81    80    1
    92    20    19    1
    93    20    21   ar
    94    89    87   ar
    95    50    51   ar
    96    80    79    1
    97    47    49   ar
    98    23    21   ar
    99    93    92    2
   100    85    87   ar
   101   120   119   ar
   102   120   118   ar
   103   119   117   ar
   104    51    49   ar
   105    51    52    1
   106   118   116   ar
   107   117   115   ar
   108   108   106   ar
   109   108   109   ar
   110   106   104   ar
   111   116   115   ar
   112   115   114    1
   113    12    11    2
   114   109   107   ar
   115   104   103    1
   116   104   105   ar
   117   103   100    1
   118    11    10    1
   119   141   139   ar
   120   141   142   ar
   121   139   138   ar
   122   107   105   ar
   123    99   100    1
   124   114   111    1
   125   110   111    1
   126   110   101   am
   127     1     2    1
   128   100   101    1
   129    10     9    1
   130    10    13    1
   131     5     2    1
   132     5     6    1
   133   111   112    1
   134   101   102    2
   135   142   144   ar
   136   142   140   ar
   137   138   137    1
   138   138   140   ar
   139   144   146   ar
   140     2     3    1
   141     8     6   ar
   142   137   134    1
   143    13    14    1
   144   140   143   ar
   145     6     7   ar
   146   133   134    1
   147     4     3    2
   148   112   113    2
   149   132   131    1
   150   146   145   ar
   151   129   131   ar
   152   129   127   ar
   153   131   130   ar
   154   134   135    1
   155   127   126   ar
   156   136   135    2
   157   143   145   ar
   158   130   128   ar
   159   126   128   ar
   160   126   125    1
   161   125   122    1
   162   121   122    1
   163   122   123    1
   164   123   124    2
