@<TRIPOS>MOLECULE
tmp/6fleA00.pdb
 168 154 0 0 0
SMALL
GASTEIGER

@<TRIPOS>ATOM
      1  N        -18.9880   20.5070   38.3220 N.3    22  ILE22      -0.1231
      2  CA       -18.6280   19.9780   39.6350 C.3    22  ILE22       0.1692
      3  C        -17.3780   20.6500   40.1980 C.2    22  ILE22       0.2593
      4  O        -17.3640   21.0880   41.3510 O.2    22  ILE22      -0.2718
      5  CB       -18.4610   18.4410   39.6130 C.3    22  ILE22       0.0266
      6  CG1      -19.8020   17.7420   39.4050 C.3    22  ILE22       0.0019
      7  CG2      -17.8030   17.9530   40.9200 C.3    22  ILE22       0.0020
      8  CD1      -19.7060   16.2300   39.4760 C.3    22  ILE22       0.0001
      9  N        -16.3150   20.7160   39.4130 N.am   23  GLY23      -0.1942
     10  CA       -15.0770   21.2690   39.9180 C.3    23  GLY23       0.2014
     11  C        -14.0220   21.3840   38.8420 C.2    23  GLY23       0.2639
     12  O        -14.3140   21.2960   37.6480 O.2    23  GLY23      -0.2714
     13  N        -12.7830   21.5870   39.2860 N.am   24  GLU24      -0.1963
     14  CA       -11.6590   21.7280   38.3720 C.3    24  GLU24       0.1733
     15  C        -10.3800   21.2920   39.0730 C.2    24  GLU24       0.2616
     16  O        -10.3330   21.1610   40.3000 O.2    24  GLU24      -0.2715
     17  CB       -11.5370   23.1630   37.8560 C.3    24  GLU24       0.0429
     18  CG       -10.7720   23.2760   36.5600 C.3    24  GLU24       0.1163
     19  CD       -11.2510   24.4290   35.7190 C.2    24  GLU24       0.3649
     20  OE1      -11.4060   25.5410   36.2680 O.co2  24  GLU24      -0.2457
     21  OE2      -11.4880   24.2160   34.5100 O.co2  24  GLU24      -0.2457
     22  N         -9.3390   21.0600   38.2730 N.am   25  GLY25      -0.1955
     23  CA        -8.0460   20.6680   38.7990 C.3    25  GLY25       0.1869
     24  C         -6.9070   21.4950   38.2410 C.2    25  GLY25       0.2309
     25  O         -6.7020   22.6440   38.6450 O.2    25  GLY25      -0.2863
     26  N         -8.2610   20.6250   33.2360 N.3    28  GLY28      -0.1225
     27  CA        -9.5390   20.0300   32.9120 C.3    28  GLY28       0.1811
     28  C        -10.5470   20.0710   34.0370 C.2    28  GLY28       0.2280
     29  O        -10.1810   20.1010   35.2170 O.2    28  GLY28      -0.2866
     30  N        -14.3810   18.7740   35.8880 N.3    30  VAL30      -0.1245
     31  CA       -15.2430   17.6380   36.1740 C.3    30  VAL30       0.1561
     32  C        -16.6890   18.1070   36.1330 C.2    30  VAL30       0.2260
     33  O        -17.0240   19.1750   36.6560 O.2    30  VAL30      -0.2867
     34  CB       -14.8990   16.9910   37.5270 C.3    30  VAL30       0.0252
     35  CG1      -15.7980   15.8030   37.7770 C.3    30  VAL30       0.0019
     36  CG2      -13.4350   16.5850   37.5530 C.3    30  VAL30       0.0019
     37  N        -20.0690   10.8130   36.7310 N.3    43  ALA43      -0.1245
     38  CA       -19.0710   11.8690   36.7290 C.3    43  ALA43       0.1562
     39  C        -18.2610   11.7650   35.4420 C.2    43  ALA43       0.2260
     40  O        -17.9360   10.6640   34.9820 O.2    43  ALA43      -0.2867
     41  CB       -18.1300   11.7330   37.9280 C.3    43  ALA43       0.0290
     42  N        -14.7400   13.5960   33.7060 N.3    45  LYS45      -0.1245
     43  CA       -13.5680   14.4400   33.9030 C.3    45  LYS45       0.1561
     44  C        -12.9230   14.7020   32.5440 C.2    45  LYS45       0.2260
     45  O        -12.5130   13.7640   31.8570 O.2    45  LYS45      -0.2867
     46  CB       -12.5640   13.7480   34.8190 C.3    45  LYS45       0.0271
     47  CG       -13.1900   13.1790   36.0690 C.3    45  LYS45       0.0035
     48  CD       -12.1520   12.4330   36.9090 C.3    45  LYS45       0.0206
     49  CE       -11.2080   13.3880   37.6170 C.3    45  LYS45       0.1093
     50  NZ       -10.2990   12.6450   38.5330 N.3    45  LYS45      -0.1314
     51  N        -11.7550    3.5050   42.3810 N.3    75  ILE75      -0.1245
     52  CA       -12.6550    4.0340   41.3620 C.3    75  ILE75       0.1561
     53  C        -12.3740    3.3370   40.0300 C.2    75  ILE75       0.2260
     54  O        -11.2140    3.0690   39.6630 O.2    75  ILE75      -0.2867
     55  CB       -12.5500    5.5620   41.2520 C.3    75  ILE75       0.0252
     56  CG1      -13.7420    6.1130   40.4490 C.3    75  ILE75       0.0019
     57  CG2      -11.1740    5.9750   40.6390 C.3    75  ILE75       0.0019
     58  CD1      -15.0280    6.0810   41.2150 C.3    75  ILE75       0.0001
     59  N        -16.7030    8.0750   35.1630 N.3    96  GLN96      -0.1231
     60  CA       -16.6010    7.2920   36.3840 C.3    96  GLN96       0.1698
     61  C        -17.9440    7.3160   37.0950 C.2    96  GLN96       0.2592
     62  O        -18.7910    8.1740   36.8310 O.2    96  GLN96      -0.2718
     63  CB       -15.5270    7.9030   37.2820 C.3    96  GLN96       0.0381
     64  CG       -14.1350    7.8340   36.7310 C.3    96  GLN96       0.0905
     65  CD       -13.1320    8.4440   37.6840 C.2    96  GLN96       0.2608
     66  OE1      -13.4890    9.2630   38.5420 O.2    96  GLN96      -0.2717
     67  NE2      -11.8930    7.9850   37.6070 N.am   96  GLN96      -0.0878
     68  N        -18.1240    6.3680   38.0110 N.am   97  ASP97      -0.1960
     69  CA       -19.2490    6.4310   38.9320 C.3    97  ASP97       0.1840
     70  C        -19.3340    7.8280   39.5520 C.2    97  ASP97       0.2622
     71  O        -18.3190    8.4210   39.9360 O.2    97  ASP97      -0.2715
     72  CB       -19.0450    5.3990   40.0420 C.3    97  ASP97       0.1450
     73  CG       -19.1970    3.9600   39.5620 C.2    97  ASP97       0.3671
     74  OD1      -19.6230    3.7200   38.4050 O.co2  97  ASP97      -0.2456
     75  OD2      -18.8990    3.0490   40.3650 O.co2  97  ASP97      -0.2456
     76  N        -20.5560    8.3490   39.6730 N.am   98  LEU98      -0.1963
     77  CA       -20.7520    9.6330   40.3400 C.3    98  LEU98       0.1728
     78  C        -20.6660    9.4380   41.8520 C.2    98  LEU98       0.2616
     79  O        -21.4220    8.6500   42.4360 O.2    98  LEU98      -0.2715
     80  CB       -22.1070   10.2270   39.9710 C.3    98  LEU98       0.0311
     81  CG       -22.4350   11.5900   40.5890 C.3    98  LEU98       0.0022
     82  CD1      -21.4790   12.6700   40.1230 C.3    98  LEU98       0.0001
     83  CD2      -23.8920   11.9980   40.2620 C.3    98  LEU98       0.0001
     84  N        -19.7660   10.1640   42.4960 N.am   99  MET99      -0.1977
     85  CA       -19.6140   10.0550   43.9320 C.3    99  MET99       0.1605
     86  C        -20.0450   11.3570   44.6040 C.2    99  MET99       0.2287
     87  O        -19.5220   12.4260   44.2870 O.2    99  MET99      -0.2864
     88  CB       -18.1620    9.6800   44.2740 C.3    99  MET99       0.0413
     89  CG       -17.6650    8.3880   43.5480 C.3    99  MET99       0.0598
     90  SD       -18.4600    6.8440   44.1240 S.3    99  MET99      -0.1393
     91  CE       -17.5410    6.5510   45.6330 C.3    99  MET99       0.0692
     92  N        -19.4010   12.8690   47.3300 N.3   101  THR101     -0.1203
     93  CA       -18.4950   13.7440   48.0550 C.3   101  THR101      0.1994
     94  C        -17.1070   13.0870   48.0790 C.2   101  THR101      0.2617
     95  O        -16.8590   12.0800   47.4120 O.2   101  THR101     -0.2717
     96  CB       -19.1080   14.0960   49.4270 C.3   101  THR101      0.1784
     97  OG1      -18.3540   15.1400   50.0400 O.3   101  THR101     -0.2211
     98  CG2      -19.1110   12.8990   50.3320 C.3   101  THR101      0.0376
     99  N        -16.1760   13.7100   48.7830 N.am  102  ASP102     -0.1973
    100  CA       -14.8940   13.0860   49.0710 C.3   102  ASP102      0.1709
    101  C        -14.6020   13.3450   50.5420 C.2   102  ASP102      0.2293
    102  O        -15.3000   14.1440   51.1850 O.2   102  ASP102     -0.2864
    103  CB       -13.7950   13.5610   48.1020 C.3   102  ASP102      0.1436
    104  CG       -13.5250   15.0500   48.2000 C.2   102  ASP102      0.3671
    105  OD1      -13.2040   15.5130   49.2920 O.co2 102  ASP102     -0.2456
    106  OD2      -13.6240   15.7480   47.1720 O.co2 102  ASP102     -0.2456
    107  N        -13.9390   17.0910   51.5890 N.3   105  LYS105     -0.1245
    108  CA       -15.1720   17.8650   51.7350 C.3   105  LYS105      0.1561
    109  C        -15.9420   17.4430   52.9720 C.2   105  LYS105      0.2260
    110  O        -16.4480   18.2910   53.7240 O.2   105  LYS105     -0.2867
    111  CB       -16.0360   17.6650   50.4960 C.3   105  LYS105      0.0271
    112  CG       -15.3980   18.2660   49.2450 C.3   105  LYS105      0.0035
    113  CD       -16.3800   18.3460   48.0860 C.3   105  LYS105      0.0206
    114  CE       -16.5890   16.9910   47.4280 C.3   105  LYS105      0.1093
    115  NZ       -17.2360   17.1450   46.0890 N.3   105  LYS105     -0.1314
    116  N         -0.0300    9.2130   46.7180 N.3   140  ASP140     -0.1239
    117  CA        -0.6250   10.5110   47.0070 C.3   140  ASP140      0.1674
    118  C         -1.9390   10.3280   47.7450 C.2   140  ASP140      0.2266
    119  O         -2.9350   10.9870   47.4530 O.2   140  ASP140     -0.2867
    120  CB        -0.7950   11.3480   45.7310 C.3   140  ASP140      0.1410
    121  CG        -1.0110   12.8190   46.0210 C.2   140  ASP140      0.3668
    122  OD1       -0.6560   13.2860   47.1280 O.co2 140  ASP140     -0.2456
    123  OD2       -1.5620   13.5120   45.1450 O.co2 140  ASP140     -0.2456
    124  N         -4.6600   10.9140   50.3540 N.3   142  LYS142     -0.1245
    125  CA        -5.0520   12.0510   51.1620 C.3   142  LYS142      0.1561
    126  C         -6.5760   12.1400   51.0730 C.2   142  LYS142      0.2260
    127  O         -7.1810   11.4810   50.2130 O.2   142  LYS142     -0.2867
    128  CB        -4.3970   13.3490   50.6590 C.3   142  LYS142      0.0271
    129  CG        -4.6380   13.6380   49.2000 C.3   142  LYS142      0.0035
    130  CD        -4.0270   14.9630   48.7920 C.3   142  LYS142      0.0206
    131  CE        -4.0390   15.1030   47.2750 C.3   142  LYS142      0.1093
    132  NZ        -3.5310   16.4440   46.8780 N.3   142  LYS142     -0.1314
    133  N         -8.7450   14.1320   49.8640 N.3   144  SER144     -0.1202
    134  CA        -9.3750   14.5490   48.6150 C.3   144  SER144      0.2020
    135  C         -9.2830   13.4830   47.5450 C.2   144  SER144      0.2618
    136  O         -9.9780   13.5960   46.5350 O.2   144  SER144     -0.2717
    137  CB        -8.8170   15.8960   48.1190 C.3   144  SER144      0.2103
    138  OG        -7.4730   15.7470   47.7440 O.3   144  SER144     -0.2182
    139  N         -8.4660   12.4440   47.7520 N.am  145  ASN145     -0.1974
    140  CA        -8.3810   11.3150   46.8290 C.3   145  ASN145      0.1688
    141  C         -9.1740   10.1140   47.3040 C.2   145  ASN145      0.2292
    142  O         -8.9730    9.0090   46.7940 O.2   145  ASN145     -0.2864
    143  CB        -6.9260   10.9400   46.5280 C.3   145  ASN145      0.1181
    144  CG        -6.2840   11.9550   45.6180 C.2   145  ASN145      0.2629
    145  OD1       -7.0070   12.6110   44.8350 O.2   145  ASN145     -0.2716
    146  ND2       -4.9580   12.1060   45.6890 N.am  145  ASN145     -0.0877
    147  N        -13.0450    9.0920   47.4810 N.3   147  LEU147     -0.1245
    148  CA       -14.3970    9.4650   47.1110 C.3   147  LEU147      0.1561
    149  C        -15.4090    8.6510   47.8960 C.2   147  LEU147      0.2260
    150  O        -15.1640    7.4940   48.2330 O.2   147  LEU147     -0.2867
    151  CB       -14.6290    9.1940   45.6260 C.3   147  LEU147      0.0270
    152  CG       -13.5700    9.8490   44.7330 C.3   147  LEU147      0.0019
    153  CD1      -13.8470    9.4810   43.2630 C.3   147  LEU147      0.0001
    154  CD2      -13.4670   11.3710   44.9270 C.3   147  LEU147      0.0001
    155  N         -9.0460    7.1980   44.5130 N.3   156  CYS156     -0.1221
    156  CA        -8.9020    7.6930   43.1460 C.3   156  CYS156      0.1808
    157  C         -7.5470    8.3750   42.9710 C.2   156  CYS156      0.2601
    158  O         -6.7120    8.4180   43.8780 O.2   156  CYS156     -0.2717
    159  CB       -10.0260    8.6710   42.8130 C.3   156  CYS156      0.0970
    160  SG        -9.9930   10.2080   43.6700 S.3   156  CYS156     -0.0800
    161  N         -7.3360    8.8610   41.7400 N.am  157  ASP157     -0.1973
    162  CA        -6.1800    9.6580   41.3240 C.3   157  ASP157      0.1709
    163  C         -4.8490    8.9360   41.4710 C.2   157  ASP157      0.2293
    164  O         -4.0930    9.1660   42.4290 O.2   157  ASP157     -0.2864
    165  CB        -6.1130   11.0180   42.0060 C.3   157  ASP157      0.1436
    166  CG        -4.9430   11.8420   41.5120 C.2   157  ASP157      0.3671
    167  OD1       -4.3450   11.4860   40.4590 O.co2 157  ASP157     -0.2456
    168  OD2       -4.6160   12.8420   42.1910 O.co2 157  ASP157     -0.2456
@<TRIPOS>BOND
     1    45    44    2
     2    44    43    1
     3    27    26    1
     4    27    28    1
     5    42    43    1
     6    43    46    1
     7    28    29    2
     8    21    19   ar
     9    46    47    1
    10    40    39    2
    11    59    60    1
    12    39    38    1
    13    19    20   ar
    14    19    18    1
    15    30    31    1
    16    47    48    1
    17    32    31    1
    18    32    33    2
    19    31    34    1
    20    60    61    1
    21    60    63    1
    22    18    17    1
    23    38    37    1
    24    38    41    1
    25    64    63    1
    26    64    65    1
    27    62    61    2
    28    48    49    1
    29    61    68   am
    30    34    36    1
    31    34    35    1
    32    67    65   am
    33    49    50    1
    34    12    11    2
    35    65    66    2
    36    17    14    1
    37    68    69    1
    38    24    25    2
    39    24    23    1
    40    22    23    1
    41    22    15   am
    42     1     2    1
    43    14    15    1
    44    14    13    1
    45    74    73   ar
    46    11    13   am
    47    11    10    1
    48    69    70    1
    49    69    72    1
    50    15    16    2
    51     6     8    1
    52     6     5    1
    53     9    10    1
    54     9     3   am
    55    70    76   am
    56    70    71    2
    57    73    72    1
    58    73    75   ar
    59     5     2    1
    60     5     7    1
    61     2     3    1
    62    54    53    2
    63    76    77    1
    64    80    77    1
    65    80    81    1
    66    53    52    1
    67    82    81    1
    68     3     4    2
    69    83    81    1
    70    77    78    1
    71    56    58    1
    72    56    55    1
    73   167   166   ar
    74    57    55    1
    75    55    52    1
    76   162   163    1
    77   162   161    1
    78   162   165    1
    79    52    51    1
    80   163   164    2
    81   166   165    1
    82   166   168   ar
    83   161   157   am
    84    78    79    2
    85    78    84   am
    86    84    85    1
    87   159   156    1
    88   159   160    1
    89   157   156    1
    90   157   158    2
    91   156   155    1
    92   153   152    1
    93    89    90    1
    94    89    88    1
    95    85    88    1
    96    85    86    1
    97    90    91    1
    98    87    86    2
    99   152   154    1
   100   152   151    1
   101   145   144    2
   102   123   121   ar
   103   144   146   am
   104   144   143    1
   105   151   148    1
   106   120   121    1
   107   120   117    1
   108   121   122   ar
   109   115   114    1
   110   143   140    1
   111   136   135    2
   112   116   117    1
   113   142   141    2
   114   140   141    1
   115   140   139    1
   116   132   131    1
   117   117   118    1
   118   148   147    1
   119   148   149    1
   120   106   104   ar
   121   131   130    1
   122    92    93    1
   123    95    94    2
   124   114   113    1
   125   119   118    2
   126   135   139   am
   127   135   134    1
   128   138   137    1
   129   149   150    2
   130    93    94    1
   131    93    96    1
   132    94    99   am
   133   113   112    1
   134   103   104    1
   135   103   100    1
   136   137   134    1
   137   104   105   ar
   138   134   133    1
   139    99   100    1
   140   130   129    1
   141   100   101    1
   142   129   128    1
   143   112   111    1
   144    96    97    1
   145    96    98    1
   146   127   126    2
   147   124   125    1
   148   111   108    1
   149   101   102    2
   150   128   125    1
   151   126   125    1
   152   107   108    1
   153   108   109    1
   154   109   110    2
