@<TRIPOS>MOLECULE
tmp/6fliB02.pdb
 124 123 0 0 0
SMALL
GASTEIGER

@<TRIPOS>ATOM
      1  N        -57.2640    5.8840   66.9590 N.3    32  ILE32      -0.1245
      2  CA       -57.9360    7.0390   67.5470 C.3    32  ILE32       0.1561
      3  C        -58.5500    6.6650   68.8720 C.2    32  ILE32       0.2260
      4  O        -59.1990    5.6240   68.9700 O.2    32  ILE32      -0.2867
      5  CB       -58.9800    7.7170   66.6030 C.3    32  ILE32       0.0252
      6  CG1      -58.3500    8.1600   65.2660 C.3    32  ILE32       0.0019
      7  CG2      -59.6450    8.9200   67.3050 C.3    32  ILE32       0.0019
      8  CD1      -59.3110    8.6640   64.2350 C.3    32  ILE32       0.0001
      9  N        -60.9810    8.7010   71.5160 N.3    34  TRP34      -0.1241
     10  CA       -61.7850    9.9000   71.7000 C.3    34  TRP34       0.1605
     11  C        -62.8830    9.5800   72.6750 C.2    34  TRP34       0.2264
     12  O        -63.6290    8.6210   72.4470 O.2    34  TRP34      -0.2867
     13  CB       -62.3570   10.3710   70.3500 C.3    34  TRP34       0.0550
     14  CG       -63.4970   11.3560   70.4200 C.ar   34  TRP34       0.0003
     15  CD1      -63.4690   12.6090   70.9630 C.ar   34  TRP34       0.0946
     16  CD2      -64.7910   11.2140   69.8060 C.ar   34  TRP34       0.0152
     17  NE1      -64.6740   13.2420   70.7550 N.ar   34  TRP34      -0.2442
     18  CE2      -65.5010   12.4100   70.0420 C.ar   34  TRP34       0.0810
     19  CE3      -65.4310   10.1760   69.0960 C.ar   34  TRP34       0.0012
     20  CZ2      -66.8170   12.5950   69.5980 C.ar   34  TRP34       0.0191
     21  CZ3      -66.7300   10.3650   68.6510 C.ar   34  TRP34       0.0001
     22  CH2      -67.4060   11.5630   68.8950 C.ar   34  TRP34       0.0015
     23  N        -67.5420    0.0370   61.4750 N.3    55  LEU55      -0.1245
     24  CA       -67.5980    1.5000   61.3400 C.3    55  LEU55       0.1561
     25  C        -68.9900    2.0090   60.9020 C.2    55  LEU55       0.2260
     26  O        -69.4860    3.0270   61.4140 O.2    55  LEU55      -0.2867
     27  CB       -66.5080    2.0220   60.3840 C.3    55  LEU55       0.0270
     28  CG       -66.4940    3.5320   60.1220 C.3    55  LEU55       0.0019
     29  CD1      -66.1650    4.3150   61.3710 C.3    55  LEU55       0.0001
     30  CD2      -65.5780    3.8760   58.9920 C.3    55  LEU55       0.0001
     31  N        -71.4920    2.0590   63.5760 N.3    58  PHE58      -0.1227
     32  CA       -71.0880    3.0280   64.6000 C.3    58  PHE58       0.1736
     33  C        -71.4800    4.4370   64.1780 C.2    58  PHE58       0.2595
     34  O        -72.0520    5.1630   64.9750 O.2    58  PHE58      -0.2718
     35  CB       -69.5930    2.9520   64.9590 C.3    58  PHE58       0.0547
     36  CG       -69.1260    4.0250   65.9270 C.ar   58  PHE58      -0.0202
     37  CD1      -69.5650    4.0330   67.2540 C.ar   58  PHE58      -0.0042
     38  CD2      -68.2390    5.0170   65.5130 C.ar   58  PHE58      -0.0042
     39  CE1      -69.1430    5.0230   68.1430 C.ar   58  PHE58      -0.0003
     40  CE2      -67.7810    5.9870   66.4040 C.ar   58  PHE58      -0.0003
     41  CZ       -68.2560    6.0030   67.7040 C.ar   58  PHE58      -0.0000
     42  N        -71.1780    4.8270   62.9220 N.am   59  LEU59      -0.1980
     43  CA       -71.5500    6.1390   62.4050 C.3    59  LEU59       0.1596
     44  C        -73.0720    6.3180   62.4430 C.2    59  LEU59       0.2287
     45  O        -73.5450    7.3790   62.8560 O.2    59  LEU59      -0.2864
     46  CB       -71.0170    6.3260   60.9980 C.3    59  LEU59       0.0297
     47  CG       -69.5220    6.5930   60.8560 C.3    59  LEU59       0.0022
     48  CD1      -69.2060    6.9660   59.4570 C.3    59  LEU59       0.0001
     49  CD2      -69.0830    7.7450   61.7120 C.3    59  LEU59       0.0001
     50  N        -68.7890   13.4640   65.0000 N.3    69  TRP69      -0.1228
     51  CA       -67.5580   12.7140   65.1530 C.3    69  TRP69       0.1722
     52  C        -66.3900   13.5610   64.6530 C.2    69  TRP69       0.2437
     53  O        -66.6090   14.4440   63.8140 O.2    69  TRP69      -0.2733
     54  CB       -67.6480   11.3880   64.3850 C.3    69  TRP69       0.0563
     55  CG       -68.0270   11.4990   62.9230 C.ar   69  TRP69       0.0003
     56  CD1      -67.1770   11.5330   61.8500 C.ar   69  TRP69       0.0946
     57  CD2      -69.3580   11.4720   62.3770 C.ar   69  TRP69       0.0152
     58  NE1      -67.8950   11.5370   60.6710 N.ar   69  TRP69      -0.2442
     59  CE2      -69.2340   11.4930   60.9650 C.ar   69  TRP69       0.0810
     60  CE3      -70.6400   11.4000   62.9430 C.ar   69  TRP69       0.0012
     61  CZ2      -70.3490   11.4920   60.1170 C.ar   69  TRP69       0.0191
     62  CZ3      -71.7410   11.3930   62.1010 C.ar   69  TRP69       0.0001
     63  CH2      -71.5940   11.4550   60.7090 C.ar   69  TRP69       0.0015
     64  N        -65.1510   13.3440   65.1440 N.am   70  PRO70      -0.2718
     65  CA       -64.0370   14.1620   64.6670 C.3    70  PRO70       0.1535
     66  C        -63.6120   13.7550   63.2530 C.2    70  PRO70       0.2598
     67  O        -62.5910   13.0890   63.0680 O.2    70  PRO70      -0.2715
     68  CB       -62.9540   13.9210   65.7150 C.3    70  PRO70       0.0310
     69  CG       -63.2280   12.5900   66.2350 C.3    70  PRO70       0.0237
     70  CD       -64.7100   12.3880   66.1780 C.3    70  PRO70       0.0939
     71  N        -64.4160   14.1500   62.2470 N.am   71  ALA71      -0.1964
     72  CA       -64.1630   13.8380   60.8470 C.3    71  ALA71       0.1728
     73  C        -62.7710   14.3320   60.4760 C.2    71  ALA71       0.2616
     74  O        -62.4440   15.4850   60.7500 O.2    71  ALA71      -0.2715
     75  CB       -65.2300   14.4730   59.9680 C.3    71  ALA71       0.0334
     76  N        -61.9290   13.4220   59.9690 N.am   72  PHE72      -0.1974
     77  CA       -60.5300   13.6750   59.6100 C.3    72  PHE72       0.1639
     78  C        -60.1860   13.2930   58.1520 C.2    72  PHE72       0.2290
     79  O        -60.8760   12.4720   57.5380 O.2    72  PHE72      -0.2864
     80  CB       -59.5920   12.9210   60.5820 C.3    72  PHE72       0.0560
     81  CG       -59.7090   11.4130   60.5040 C.ar   72  PHE72      -0.0200
     82  CD1      -58.9220   10.6800   59.6090 C.ar   72  PHE72      -0.0042
     83  CD2      -60.6370   10.7250   61.2910 C.ar   72  PHE72      -0.0042
     84  CE1      -59.0690    9.2940   59.4880 C.ar   72  PHE72      -0.0003
     85  CE2      -60.7730    9.3410   61.1810 C.ar   72  PHE72      -0.0003
     86  CZ       -59.9730    8.6330   60.2890 C.ar   72  PHE72      -0.0000
     87  N        -61.5990   -1.4330   59.8560 N.3    86  ARG86      -0.1245
     88  CA       -62.2020   -0.1710   60.2850 C.3    86  ARG86       0.1563
     89  C        -63.1520   -0.6190   61.4020 C.2    86  ARG86       0.2260
     90  O        -64.3060   -0.9650   61.1250 O.2    86  ARG86      -0.2867
     91  CB       -62.9650    0.5340   59.1380 C.3    86  ARG86       0.0307
     92  CG       -62.2490    0.6300   57.7940 C.3    86  ARG86       0.0489
     93  CD       -63.0290    1.4880   56.8290 C.3    86  ARG86       0.2205
     94  NE       -62.6480    2.8930   56.9700 N.pl3  86  ARG86      -0.0865
     95  CZ       -63.1880    3.8910   56.2770 C.cat  86  ARG86       0.5346
     96  NH1      -64.1480    3.6490   55.3910 N.pl3  86  ARG86       0.1354
     97  NH2      -62.7700    5.1390   56.4620 N.pl3  86  ARG86       0.1354
     98  N        -64.4550   -0.3380   65.7450 N.3    88  ILE88      -0.1245
     99  CA       -64.7110    0.5340   66.8910 C.3    88  ILE88       0.1561
    100  C        -64.9830   -0.2990   68.1510 C.2    88  ILE88       0.2260
    101  O        -65.8210   -1.2080   68.0970 O.2    88  ILE88      -0.2867
    102  CB       -65.9660    1.4200   66.5910 C.3    88  ILE88       0.0252
    103  CG1      -65.7710    2.3160   65.3480 C.3    88  ILE88       0.0019
    104  CG2      -66.4280    2.2220   67.8220 C.3    88  ILE88       0.0019
    105  CD1      -65.0500    3.5860   65.5640 C.3    88  ILE88       0.0001
    106  N        -64.2610    5.7680   72.8640 N.3    96  VAL96      -0.1245
    107  CA       -64.3110    5.1390   71.5470 C.3    96  VAL96       0.1561
    108  C        -62.8780    4.9270   71.1240 C.2    96  VAL96       0.2260
    109  O        -62.0740    5.8570   71.2020 O.2    96  VAL96      -0.2867
    110  CB       -65.1690    5.8970   70.4970 C.3    96  VAL96       0.0252
    111  CG1      -65.0690    5.2420   69.1220 C.3    96  VAL96       0.0019
    112  CG2      -66.6220    5.9560   70.9350 C.3    96  VAL96       0.0019
    113  N        -60.8210    3.5800   67.9440 N.3    98  TYR98      -0.1241
    114  CA       -60.9450    3.2940   66.5290 C.3    98  TYR98       0.1605
    115  C        -59.6200    2.8070   65.9890 C.2    98  TYR98       0.2264
    116  O        -58.5750    3.2860   66.4370 O.2    98  TYR98      -0.2867
    117  CB       -61.4360    4.5460   65.7890 C.3    98  TYR98       0.0534
    118  CG       -61.5960    4.3880   64.2910 C.ar   98  TYR98      -0.0201
    119  CD1      -62.3440    3.3420   63.7550 C.ar   98  TYR98      -0.0009
    120  CD2      -61.0210    5.2990   63.4090 C.ar   98  TYR98      -0.0009
    121  CE1      -62.4970    3.1950   62.3780 C.ar   98  TYR98       0.0417
    122  CE2      -61.1610    5.1560   62.0290 C.ar   98  TYR98       0.0417
    123  CZ       -61.9020    4.1060   61.5190 C.ar   98  TYR98       0.1957
    124  OH       -62.0460    3.9760   60.1600 O.3    98  TYR98      -0.2866
@<TRIPOS>BOND
     1    96    95    1
     2    95    97    1
     3    95    94    2
     4    93    94    1
     5    93    92    1
     6    79    78    2
     7    92    91    1
     8    78    77    1
     9    30    28    1
    10    91    88    1
    11    48    47    1
    12    84    82   ar
    13    84    86   ar
    14    82    81   ar
    15    77    76    1
    16    77    80    1
    17    87    88    1
    18    75    72    1
    19    76    73   am
    20    61    63   ar
    21    61    59   ar
    22    28    27    1
    23    28    29    1
    24   124   123    1
    25    88    89    1
    26    86    85   ar
    27    27    24    1
    28    73    74    2
    29    73    72    1
    30    81    80    1
    31    81    83   ar
    32    58    59   ar
    33    58    56   ar
    34    63    62   ar
    35    72    71    1
    36    47    46    1
    37    47    49    1
    38    25    24    1
    39    25    26    2
    40    59    57   ar
    41    46    43    1
    42    90    89    2
    43    85    83   ar
    44    24    23    1
    45   123   122   ar
    46   123   121   ar
    47    56    55   ar
    48   122   120   ar
    49    62    60   ar
    50    71    66   am
    51    57    55   ar
    52    57    60   ar
    53   121   119   ar
    54    43    44    1
    55    43    42    1
    56    44    45    2
    57    42    33   am
    58    55    54    1
    59    67    66    2
    60    66    65    1
    61   120   118   ar
    62    31    32    1
    63   119   118   ar
    64    53    52    2
    65    33    32    1
    66    33    34    2
    67     8     6    1
    68   118   117    1
    69    54    51    1
    70    32    35    1
    71    52    64   am
    72    52    51    1
    73    65    64    1
    74    65    68    1
    75    35    36    1
    76    50    51    1
    77    64    70    1
    78     6     5    1
    79   103   105    1
    80   103   102    1
    81    38    36   ar
    82    38    40   ar
    83    68    69    1
    84    98    99    1
    85   117   114    1
    86    36    37   ar
    87   115   116    2
    88   115   114    1
    89    70    69    1
    90    40    41   ar
    91   114   113    1
    92   102    99    1
    93   102   104    1
    94     5     7    1
    95     5     2    1
    96    99   100    1
    97     1     2    1
    98    37    39   ar
    99     2     3    1
   100    41    39   ar
   101   101   100    2
   102    21    22   ar
   103    21    19   ar
   104     3     4    2
   105    22    20   ar
   106    19    16   ar
   107   111   110    1
   108    20    18   ar
   109    16    18   ar
   110    16    14   ar
   111    18    17   ar
   112    13    14    1
   113    13    10    1
   114    14    15   ar
   115   110   112    1
   116   110   107    1
   117    17    15   ar
   118   108   109    2
   119   108   107    1
   120     9    10    1
   121   107   106    1
   122    10    11    1
   123    12    11    2
