@<TRIPOS>MOLECULE
tmp/6fluA03.pdb
 80 80 0 0 0
SMALL
GASTEIGER

@<TRIPOS>ATOM
      1  N         60.0560  -28.1170   -6.5620 N.3   244  ASN244     -0.1225
      2  CA        60.8550  -28.5640   -5.4060 C.3   244  ASN244      0.1785
      3  C         60.7310  -27.6220   -4.2340 C.2   244  ASN244      0.2598
      4  O         59.7210  -26.8570   -4.1230 O.2   244  ASN244     -0.2718
      5  CB        62.2930  -28.8080   -5.8380 C.3   244  ASN244      0.1169
      6  CG        62.3570  -29.7090   -7.0430 C.2   244  ASN244      0.2627
      7  OD1       61.8910  -30.8520   -6.9940 O.2   244  ASN244     -0.2716
      8  ND2       62.8680  -29.1860   -8.1410 N.am  244  ASN244     -0.0877
      9  N         61.6770  -27.6930   -3.3000 N.am  245  GLY245     -0.1942
     10  CA        61.5910  -26.8580   -2.1370 C.3   245  GLY245      0.2014
     11  C         60.8090  -27.5310   -1.0830 C.2   245  GLY245      0.2639
     12  O         60.0980  -28.5250   -1.3360 O.2   245  GLY245     -0.2714
     13  N         60.9280  -26.9850    0.1210 N.am  246  VAL246     -0.1963
     14  CA        60.1030  -27.4140    1.2440 C.3   246  VAL246      0.1727
     15  C         59.5390  -26.1360    1.8570 C.2   246  VAL246      0.2616
     16  O         60.2960  -25.3300    2.4390 O.2   246  VAL246     -0.2715
     17  CB        60.8640  -28.1990    2.3290 C.3   246  VAL246      0.0290
     18  CG1       59.8800  -28.6720    3.3990 C.3   246  VAL246      0.0023
     19  CG2       61.6210  -29.3390    1.6750 C.3   246  VAL246      0.0023
     20  N         58.2130  -25.9600    1.7260 N.am  247  ILE247     -0.1977
     21  CA        57.5870  -24.7240    2.1140 C.3   247  ILE247      0.1596
     22  C         56.5140  -24.8870    3.2110 C.2   247  ILE247      0.2287
     23  O         55.8440  -25.8970    3.3260 O.2   247  ILE247     -0.2864
     24  CB        57.0650  -23.9670    0.8720 C.3   247  ILE247      0.0276
     25  CG1       55.9590  -24.7370    0.1830 C.3   247  ILE247      0.0022
     26  CG2       58.1800  -23.6980   -0.0910 C.3   247  ILE247      0.0022
     27  CD1       55.1640  -23.9270   -0.8340 C.3   247  ILE247      0.0001
     28  N         60.1350  -20.9310    4.3330 N.3   267  GLY267     -0.1210
     29  CA        60.9000  -22.2150    4.4020 C.3   267  GLY267      0.1956
     30  C         60.7660  -22.9060    5.7500 C.2   267  GLY267      0.2613
     31  O         60.0620  -22.4180    6.6660 O.2   267  GLY267     -0.2717
     32  N         61.4130  -24.0620    5.8860 N.am  268  THR268     -0.1938
     33  CA        61.4040  -24.8190    7.1260 C.3   268  THR268      0.2028
     34  C         62.0640  -24.0890    8.2820 C.2   268  THR268      0.2642
     35  O         61.8110  -24.4450    9.4400 O.2   268  THR268     -0.2714
     36  CB        62.0920  -26.2130    6.9230 C.3   268  THR268      0.1808
     37  OG1       63.3840  -26.0130    6.3610 O.3   268  THR268     -0.2208
     38  CG2       61.3000  -27.0360    5.9870 C.3   268  THR268      0.0379
     39  N         62.9920  -23.1890    7.9900 N.am  269  ASP269     -0.1971
     40  CA        63.6410  -22.2940    8.9530 C.3   269  ASP269      0.1709
     41  C         62.8920  -20.9460    9.2260 C.2   269  ASP269      0.2293
     42  O         63.3920  -20.0980    9.9310 O.2   269  ASP269     -0.2864
     43  CB        65.0440  -21.9440    8.4460 C.3   269  ASP269      0.1436
     44  CG        65.0500  -21.2910    7.0310 C.2   269  ASP269      0.3671
     45  OD1       63.9510  -21.0930    6.4040 O.co2 269  ASP269     -0.2456
     46  OD2       66.1560  -20.9990    6.5580 O.co2 269  ASP269     -0.2456
     47  N         62.0150  -17.6550    1.1890 N.3   273  TRP273     -0.1241
     48  CA        62.8290  -18.2060    0.1480 C.3   273  TRP273      0.1605
     49  C         62.1750  -17.8530   -1.1770 C.2   273  TRP273      0.2264
     50  O         60.9860  -17.6470   -1.2050 O.2   273  TRP273     -0.2867
     51  CB        62.8780  -19.7320    0.2930 C.3   273  TRP273      0.0550
     52  CG        63.6660  -20.2440    1.4520 C.ar  273  TRP273      0.0003
     53  CD1       63.3390  -20.1720    2.7710 C.ar  273  TRP273      0.0946
     54  CD2       64.9550  -20.8920    1.3790 C.ar  273  TRP273      0.0152
     55  NE1       64.3710  -20.7680    3.5520 N.ar  273  TRP273     -0.2442
     56  CE2       65.3500  -21.2190    2.6980 C.ar  273  TRP273      0.0810
     57  CE3       65.7920  -21.2400    0.3210 C.ar  273  TRP273      0.0012
     58  CZ2       66.5470  -21.8870    2.9780 C.ar  273  TRP273      0.0191
     59  CZ3       66.9970  -21.9280    0.6000 C.ar  273  TRP273      0.0001
     60  CH2       67.3390  -22.2500    1.9220 C.ar  273  TRP273      0.0015
     61  N         67.0200  -22.7360   -8.8110 N.3   287  SER287     -0.1202
     62  CA        66.9800  -23.3930   -7.5290 C.3   287  SER287      0.2020
     63  C         66.5030  -22.3770   -6.5440 C.2   287  SER287      0.2618
     64  O         66.4440  -21.1910   -6.8300 O.2   287  SER287     -0.2717
     65  CB        68.3820  -23.9320   -7.1750 C.3   287  SER287      0.2103
     66  OG        69.2960  -22.8420   -7.2170 O.3   287  SER287     -0.2182
     67  N         66.1140  -22.8630   -5.3880 N.am  288  TRP288     -0.1975
     68  CA        65.6180  -21.9960   -4.3250 C.3   288  TRP288      0.1640
     69  C         66.7820  -21.2090   -3.7050 C.2   288  TRP288      0.2290
     70  O         67.9190  -21.7140   -3.6580 O.2   288  TRP288     -0.2864
     71  CB        64.9430  -22.8330   -3.2690 C.3   288  TRP288      0.0576
     72  CG        63.4580  -23.2750   -3.6880 C.ar  288  TRP288      0.0006
     73  CD1       63.1020  -24.4390   -4.3430 C.ar  288  TRP288      0.0946
     74  CD2       62.2460  -22.5310   -3.5300 C.ar  288  TRP288      0.0152
     75  NE1       61.7580  -24.4660   -4.5440 N.ar  288  TRP288     -0.2442
     76  CE2       61.2020  -23.3240   -4.0500 C.ar  288  TRP288      0.0810
     77  CE3       61.9120  -21.2820   -2.9290 C.ar  288  TRP288      0.0012
     78  CZ2       59.8450  -22.9460   -3.9560 C.ar  288  TRP288      0.0191
     79  CZ3       60.5550  -20.8990   -2.8590 C.ar  288  TRP288      0.0001
     80  CH2       59.5520  -21.7210   -3.3960 C.ar  288  TRP288      0.0015
@<TRIPOS>BOND
     1    61    62    1
     2     8     6   am
     3    62    65    1
     4    62    63    1
     5    66    65    1
     6     6     7    2
     7     6     5    1
     8    64    63    2
     9     1     2    1
    10    63    67   am
    11     5     2    1
    12     2     3    1
    13    67    68    1
    14    75    73   ar
    15    75    76   ar
    16    73    72   ar
    17    68    69    1
    18    68    71    1
    19     3     4    2
    20     3     9   am
    21    76    78   ar
    22    76    74   ar
    23    78    80   ar
    24    69    70    2
    25    72    74   ar
    26    72    71    1
    27    74    77   ar
    28    80    79   ar
    29     9    10    1
    30    77    79   ar
    31    10    11    1
    32    12    11    2
    33    50    49    2
    34    49    48    1
    35    11    13   am
    36    27    25    1
    37    26    24    1
    38    13    14    1
    39    48    51    1
    40    48    47    1
    41    25    24    1
    42    51    52    1
    43    57    59   ar
    44    57    54   ar
    45    59    60   ar
    46    24    21    1
    47    14    15    1
    48    14    17    1
    49    54    52   ar
    50    54    56   ar
    51    52    53   ar
    52    19    17    1
    53    20    15   am
    54    20    21    1
    55    15    16    2
    56    60    58   ar
    57    21    22    1
    58    17    18    1
    59    56    58   ar
    60    56    55   ar
    61    53    55   ar
    62    22    23    2
    63    28    29    1
    64    29    30    1
    65    30    32   am
    66    30    31    2
    67    32    33    1
    68    38    36    1
    69    37    36    1
    70    45    44   ar
    71    46    44   ar
    72    36    33    1
    73    44    43    1
    74    33    34    1
    75    39    34   am
    76    39    40    1
    77    34    35    2
    78    43    40    1
    79    40    41    1
    80    41    42    2
