@<TRIPOS>MOLECULE
tmp/6fluA00.pdb
 95 95 0 0 0
SMALL
GASTEIGER

@<TRIPOS>ATOM
      1  N         37.8890    0.9220    9.9250 N.3    53  LYS53      -0.1231
      2  CA        36.9300    0.3880   10.8720 C.3    53  LYS53       0.1693
      3  C         36.3970   -0.9540   10.3630 C.2    53  LYS53       0.2593
      4  O         37.1060   -1.7040    9.7360 O.2    53  LYS53      -0.2718
      5  CB        35.8570    1.4250   11.2090 C.3    53  LYS53       0.0285
      6  CG        36.4220    2.7310   11.7110 C.3    53  LYS53       0.0035
      7  CD        37.2160    2.4670   12.9680 C.3    53  LYS53       0.0206
      8  CE        38.2660    3.5280   13.2120 C.3    53  LYS53       0.1093
      9  NZ        39.1410    3.1070   14.3460 N.3    53  LYS53      -0.1314
     10  N         35.1540   -1.2690   10.6340 N.am   54  GLY54      -0.1942
     11  CA        34.6560   -2.6060   10.3370 C.3    54  GLY54       0.2014
     12  C         35.0220   -3.5900   11.4420 C.2    54  GLY54       0.2639
     13  O         35.8500   -3.3090   12.3360 O.2    54  GLY54      -0.2714
     14  N         34.3320   -4.7180   11.3980 N.am   55  GLN55      -0.1963
     15  CA        34.6680   -5.8750   12.1760 C.3    55  GLN55       0.1733
     16  C         34.5720   -7.0790   11.2340 C.2    55  GLN55       0.2616
     17  O         33.5050   -7.3600   10.7320 O.2    55  GLN55      -0.2715
     18  CB        33.6780   -6.0110   13.3500 C.3    55  GLN55       0.0408
     19  CG        33.7500   -4.8940   14.3430 C.3    55  GLN55       0.0908
     20  CD        34.9800   -4.9800   15.2240 C.2    55  GLN55       0.2608
     21  OE1       34.9560   -5.7140   16.2310 O.2    55  GLN55      -0.2717
     22  NE2       36.0730   -4.1870   14.8910 N.am   55  GLN55      -0.0878
     23  N         35.6980   -7.7160   10.9290 N.am   56  VAL56      -0.1977
     24  CA        35.7310   -8.6950    9.8620 C.3    56  VAL56       0.1596
     25  C         36.0240  -10.1050   10.4120 C.2    56  VAL56       0.2287
     26  O         36.6420  -10.2730   11.4390 O.2    56  VAL56      -0.2864
     27  CB        36.7160   -8.3150    8.7120 C.3    56  VAL56       0.0276
     28  CG1       36.2930   -7.0460    8.0480 C.3    56  VAL56       0.0022
     29  CG2       38.1340   -8.2580    9.1810 C.3    56  VAL56       0.0022
     30  N         34.2060  -10.7400    4.8020 N.3    75  ARG75      -0.1231
     31  CA        33.0860  -11.3280    5.5200 C.3    75  ARG75       0.1694
     32  C         32.8970  -10.5790    6.8240 C.2    75  ARG75       0.2593
     33  O         33.8610  -10.2140    7.4880 O.2    75  ARG75      -0.2718
     34  CB        33.3220  -12.8190    5.7950 C.3    75  ARG75       0.0321
     35  CG        32.0790  -13.4860    6.3760 C.3    75  ARG75       0.0489
     36  CD        32.3210  -14.9800    6.5810 C.3    75  ARG75       0.2205
     37  NE        33.3370  -15.2520    7.5970 N.pl3  75  ARG75      -0.0865
     38  CZ        33.4890  -16.4110    8.2130 C.cat  75  ARG75       0.5346
     39  NH1       32.6920  -17.4610    7.9010 N.pl3  75  ARG75       0.1354
     40  NH2       34.4110  -16.5330    9.1450 N.pl3  75  ARG75       0.1354
     41  N         31.6340  -10.3360    7.1820 N.am   76  GLY76      -0.1942
     42  CA        31.2730   -9.6300    8.4060 C.3    76  GLY76       0.2014
     43  C         30.9660  -10.5420    9.5930 C.2    76  GLY76       0.2640
     44  O         31.0290  -11.7360    9.4820 O.2    76  GLY76      -0.2714
     45  N         30.5890   -9.9260   10.6970 N.am   77  THR77      -0.1936
     46  CA        30.2980  -10.6160   11.9310 C.3    77  THR77       0.2028
     47  C         29.0130  -11.4140   11.8540 C.2    77  THR77       0.2642
     48  O         28.8000  -12.3230   12.6970 O.2    77  THR77      -0.2714
     49  CB        30.1520   -9.6470   13.1420 C.3    77  THR77       0.1808
     50  OG1       29.2500   -8.5960   12.8260 O.3    77  THR77      -0.2208
     51  CG2       31.4800   -9.0420   13.5120 C.3    77  THR77       0.0379
     52  N         28.1760  -11.0560   10.8850 N.am   78  ASP78      -0.1971
     53  CA        26.9290  -11.7330   10.5820 C.3    78  ASP78       0.1709
     54  C         27.0500  -12.7120    9.4090 C.2    78  ASP78       0.2293
     55  O         26.0270  -13.2100    8.9110 O.2    78  ASP78      -0.2864
     56  CB        25.8130  -10.6880   10.2740 C.3    78  ASP78       0.1436
     57  CG        26.1530   -9.7690    9.0900 C.2    78  ASP78       0.3671
     58  OD1       27.2340   -9.9170    8.4340 O.co2  78  ASP78      -0.2456
     59  OD2       25.3820   -8.8130    8.8270 O.co2  78  ASP78      -0.2456
     60  N         30.3870   -8.0300    3.1340 N.3    82  TRP82      -0.1241
     61  CA        30.4300   -6.5880    3.2720 C.3    82  TRP82       0.1605
     62  C         31.5120   -5.9670    2.3760 C.2    82  TRP82       0.2264
     63  O         32.4420   -6.6200    1.9390 O.2    82  TRP82      -0.2867
     64  CB        30.7070   -6.1860    4.7050 C.3    82  TRP82       0.0550
     65  CG        29.5730   -6.5130    5.6400 C.ar   82  TRP82       0.0003
     66  CD1       29.1790   -7.7390    6.0720 C.ar   82  TRP82       0.0946
     67  CD2       28.6780   -5.5580    6.2780 C.ar   82  TRP82       0.0152
     68  NE1       28.1110   -7.6040    6.9140 N.ar   82  TRP82      -0.2442
     69  CE2       27.7820   -6.2990    7.0710 C.ar   82  TRP82       0.0810
     70  CE3       28.5990   -4.1610    6.2980 C.ar   82  TRP82       0.0012
     71  CZ2       26.7890   -5.6850    7.8650 C.ar   82  TRP82       0.0191
     72  CZ3       27.6220   -3.5530    7.0510 C.ar   82  TRP82       0.0001
     73  CH2       26.7160   -4.3120    7.8250 C.ar   82  TRP82       0.0015
     74  N         31.0180    4.4380    3.7740 N.3    95  ASN95      -0.1225
     75  CA        30.8280    3.5240    4.9240 C.3    95  ASN95       0.1785
     76  C         30.7650    2.0310    4.4850 C.2    95  ASN95       0.2597
     77  O         30.4950    1.7130    3.3140 O.2    95  ASN95      -0.2718
     78  CB        29.5800    3.9300    5.7220 C.3    95  ASN95       0.1169
     79  CG        29.7090    5.3180    6.2490 C.2    95  ASN95       0.2627
     80  OD1       30.6920    5.6400    6.9130 O.2    95  ASN95      -0.2716
     81  ND2       28.7480    6.1730    5.9000 N.am   95  ASN95      -0.0877
     82  N         30.9570    1.1530    5.4540 N.am   96  TRP96      -0.1976
     83  CA        30.8140   -0.2800    5.2240 C.3    96  TRP96       0.1640
     84  C         29.3720   -0.5360    4.9000 C.2    96  TRP96       0.2290
     85  O         28.4890    0.0250    5.5400 O.2    96  TRP96      -0.2864
     86  CB        31.1830   -1.0620    6.4740 C.3    96  TRP96       0.0576
     87  CG        32.6630   -1.3000    6.6310 C.ar   96  TRP96       0.0006
     88  CD1       33.5150   -0.6100    7.4290 C.ar   96  TRP96       0.0946
     89  CD2       33.4600   -2.3110    5.9800 C.ar   96  TRP96       0.0152
     90  NE1       34.7990   -1.0970    7.3060 N.ar   96  TRP96      -0.2442
     91  CE2       34.8030   -2.1350    6.4240 C.ar   96  TRP96       0.0810
     92  CE3       33.1760   -3.3500    5.0670 C.ar   96  TRP96       0.0012
     93  CZ2       35.8290   -2.9870    6.0170 C.ar   96  TRP96       0.0191
     94  CZ3       34.1650   -4.1550    4.6230 C.ar   96  TRP96       0.0001
     95  CH2       35.4940   -4.0210    5.1070 C.ar   96  TRP96       0.0015
@<TRIPOS>BOND
     1    63    62    2
     2    62    61    1
     3    60    61    1
     4    61    64    1
     5    77    76    2
     6    74    75    1
     7    76    75    1
     8    76    82   am
     9    94    92   ar
    10    94    95   ar
    11    64    65    1
    12    30    31    1
    13    84    83    1
    14    84    85    2
    15    75    78    1
    16    92    89   ar
    17    95    93   ar
    18    83    82    1
    19    83    86    1
    20    31    34    1
    21    31    32    1
    22    65    66   ar
    23    65    67   ar
    24    78    79    1
    25    34    35    1
    26    81    79   am
    27    89    91   ar
    28    89    87   ar
    29    93    91   ar
    30    66    68   ar
    31    79    80    2
    32    67    70   ar
    33    67    69   ar
    34    70    72   ar
    35    35    36    1
    36    91    90   ar
    37    86    87    1
    38    36    37    1
    39    87    88   ar
    40    32    41   am
    41    32    33    2
    42    68    69   ar
    43    72    73   ar
    44    69    71   ar
    45    41    42    1
    46    90    88   ar
    47    37    38    2
    48    73    71   ar
    49    39    38    1
    50    28    27    1
    51    38    40    1
    52    42    43    1
    53    58    57   ar
    54    27    29    1
    55    27    24    1
    56    59    57   ar
    57    55    54    2
    58    57    56    1
    59    54    53    1
    60    44    43    2
    61    43    45   am
    62     4     3    2
    63    24    25    1
    64    24    23    1
    65     1     2    1
    66    56    53    1
    67    11    10    1
    68    11    12    1
    69     3    10   am
    70     3     2    1
    71    25    26    2
    72    53    52    1
    73    45    46    1
    74    17    16    2
    75     2     5    1
    76    52    47   am
    77    23    16   am
    78     5     6    1
    79    16    15    1
    80    14    12   am
    81    14    15    1
    82    12    13    2
    83     6     7    1
    84    47    46    1
    85    47    48    2
    86    46    49    1
    87    15    18    1
    88    50    49    1
    89     7     8    1
    90    49    51    1
    91     8     9    1
    92    18    19    1
    93    19    20    1
    94    22    20   am
    95    20    21    2
