@<TRIPOS>MOLECULE
tmp/6fluB05.pdb
 78 78 0 0 0
SMALL
GASTEIGER

@<TRIPOS>ATOM
      1  N         49.4120   -0.8530  -47.9160 N.3    24  GLY24      -0.1210
      2  CA        50.2400   -1.2340  -49.0830 C.3    24  GLY24       0.1956
      3  C         49.9840   -0.2770  -50.2500 C.2    24  GLY24       0.2613
      4  O         49.0520    0.5150  -50.2530 O.2    24  GLY24      -0.2717
      5  N         50.7450   -0.5020  -51.3080 N.am   25  THR25      -0.1938
      6  CA        50.6600    0.2620  -52.5700 C.3    25  THR25       0.2028
      7  C         49.2960    0.0790  -53.2500 C.2    25  THR25       0.2642
      8  O         48.8540    0.9230  -54.0250 O.2    25  THR25      -0.2714
      9  CB        51.8220   -0.1660  -53.5230 C.3    25  THR25       0.1808
     10  OG1       51.8170   -1.5780  -53.6880 O.3    25  THR25      -0.2208
     11  CG2       53.1480    0.1480  -52.9310 C.3    25  THR25       0.0379
     12  N         48.6550   -1.0230  -52.9570 N.am   26  ASP26      -0.1971
     13  CA        47.2980   -1.3260  -53.3950 C.3    26  ASP26       0.1709
     14  C         46.1340   -0.6970  -52.5270 C.2    26  ASP26       0.2293
     15  O         44.9800   -0.9270  -52.8030 O.2    26  ASP26      -0.2864
     16  CB        47.1650   -2.8690  -53.5430 C.3    26  ASP26       0.1436
     17  CG        47.3090   -3.6420  -52.2270 C.2    26  ASP26       0.3671
     18  OD1       47.6700   -3.0180  -51.1910 O.co2  26  ASP26      -0.2456
     19  OD2       47.1060   -4.8900  -52.2530 O.co2  26  ASP26      -0.2456
     20  N         47.5410   -4.2780  -44.6730 N.3    30  TRP30      -0.1241
     21  CA        48.3680   -5.4580  -44.5060 C.3    30  TRP30       0.1605
     22  C         48.8520   -5.4890  -43.0530 C.2    30  TRP30       0.2264
     23  O         49.0680   -4.4360  -42.3870 O.2    30  TRP30      -0.2867
     24  CB        49.6040   -5.4290  -45.4360 C.3    30  TRP30       0.0550
     25  CG        49.3190   -5.4090  -46.9110 C.ar   30  TRP30       0.0003
     26  CD1       48.7570   -4.4180  -47.6020 C.ar   30  TRP30       0.0946
     27  CD2       49.5960   -6.4510  -47.8530 C.ar   30  TRP30       0.0152
     28  NE1       48.6190   -4.7690  -48.9330 N.ar   30  TRP30      -0.2442
     29  CE2       49.1580   -6.0030  -49.1170 C.ar   30  TRP30       0.0810
     30  CE3       50.1800   -7.7120  -47.7530 C.ar   30  TRP30       0.0012
     31  CZ2       49.2640   -6.7950  -50.2880 C.ar   30  TRP30       0.0191
     32  CZ3       50.2500   -8.5240  -48.8980 C.ar   30  TRP30       0.0001
     33  CH2       49.7980   -8.0600  -50.1400 C.ar   30  TRP30       0.0015
     34  N         54.1940  -10.2480  -44.4890 N.3    46  TRP46      -0.1241
     35  CA        53.0220   -9.3990  -44.7530 C.3    46  TRP46       0.1605
     36  C         51.9030  -10.1700  -45.4200 C.2    46  TRP46       0.2264
     37  O         52.1100  -10.9030  -46.3660 O.2    46  TRP46      -0.2867
     38  CB        53.4370   -8.1990  -45.6370 C.3    46  TRP46       0.0550
     39  CG        54.3790   -7.2370  -44.9140 C.ar   46  TRP46       0.0003
     40  CD1       55.7260   -7.1910  -45.0330 C.ar   46  TRP46       0.0946
     41  CD2       54.0290   -6.2850  -43.9400 C.ar   46  TRP46       0.0152
     42  NE1       56.2400   -6.2080  -44.2230 N.ar   46  TRP46      -0.2442
     43  CE2       55.2070   -5.6210  -43.5640 C.ar   46  TRP46       0.0810
     44  CE3       52.8110   -5.8360  -43.4110 C.ar   46  TRP46       0.0012
     45  CZ2       55.2140   -4.5880  -42.6050 C.ar   46  TRP46       0.0191
     46  CZ3       52.8220   -4.8180  -42.4620 C.ar   46  TRP46       0.0001
     47  CH2       53.9960   -4.2010  -42.0900 C.ar   46  TRP46       0.0015
     48  N         61.8830   -5.9760  -42.3420 N.3   333  LEU333     -0.1231
     49  CA        60.6700   -6.8320  -42.4030 C.3   333  LEU333      0.1693
     50  C         60.0280   -6.8050  -43.7840 C.2   333  LEU333      0.2593
     51  O         58.9000   -7.3200  -43.9460 O.2   333  LEU333     -0.2718
     52  CB        59.5960   -6.4250  -41.3450 C.3   333  LEU333      0.0284
     53  CG        60.1400   -6.3350  -39.9130 C.3   333  LEU333      0.0019
     54  CD1       59.0030   -6.0180  -38.9360 C.3   333  LEU333      0.0001
     55  CD2       60.8290   -7.6220  -39.5340 C.3   333  LEU333      0.0001
     56  N         60.7370   -6.2570  -44.7930 N.am  334  GLY334     -0.1942
     57  CA        60.2180   -6.2030  -46.1480 C.3   334  GLY334      0.2014
     58  C         58.9020   -5.4330  -46.2320 C.2   334  GLY334      0.2639
     59  O         58.6320   -4.5670  -45.3780 O.2   334  GLY334     -0.2714
     60  N         58.1190   -5.7340  -47.2580 N.am  335  GLY335     -0.1939
     61  CA        56.9050   -4.9770  -47.5680 C.3   335  GLY335      0.2014
     62  C         57.1900   -3.6890  -48.3200 C.2   335  GLY335      0.2639
     63  O         58.3300   -3.2500  -48.4290 O.2   335  GLY335     -0.2714
     64  N         56.1340   -3.1020  -48.8680 N.am  336  VAL336     -0.1963
     65  CA        56.2040   -1.8100  -49.4710 C.3   336  VAL336      0.1727
     66  C         55.0660   -0.9740  -48.8600 C.2   336  VAL336      0.2616
     67  O         53.9100   -1.2420  -49.1240 O.2   336  VAL336     -0.2715
     68  CB        56.0620   -1.8510  -50.9910 C.3   336  VAL336      0.0290
     69  CG1       56.2340   -0.4450  -51.5490 C.3   336  VAL336      0.0023
     70  CG2       57.0990   -2.7900  -51.5780 C.3   336  VAL336      0.0023
     71  N         55.3950    0.0000  -48.0260 N.am  337  LEU337     -0.1977
     72  CA        54.3270    0.7110  -47.2870 C.3   337  LEU337      0.1596
     73  C         54.1720    2.1490  -47.7410 C.2   337  LEU337      0.2287
     74  O         55.1400    2.8160  -48.0990 O.2   337  LEU337     -0.2864
     75  CB        54.6040    0.6820  -45.7930 C.3   337  LEU337      0.0297
     76  CG        54.7170   -0.7190  -45.1570 C.3   337  LEU337      0.0022
     77  CD1       55.1220   -0.6630  -43.6710 C.3   337  LEU337      0.0001
     78  CD2       53.4580   -1.5140  -45.2880 C.3   337  LEU337      0.0001
@<TRIPOS>BOND
     1     8     7    2
     2    10     9    1
     3    16    13    1
     4    16    17    1
     5     9    11    1
     6     9     6    1
     7    13    12    1
     8    13    14    1
     9     7    12   am
    10     7     6    1
    11    15    14    2
    12     6     5    1
    13    19    17   ar
    14    17    18   ar
    15    70    68    1
    16    69    68    1
    17     5     3   am
    18    68    65    1
    19    31    33   ar
    20    31    29   ar
    21     4     3    2
    22     3     2    1
    23    33    32   ar
    24    65    64    1
    25    65    66    1
    26    67    66    2
    27    29    28   ar
    28    29    27   ar
    29     2     1    1
    30    28    26   ar
    31    32    30   ar
    32    64    62   am
    33    66    71   am
    34    63    62    2
    35    62    61    1
    36    74    73    2
    37    71    72    1
    38    27    30   ar
    39    27    25   ar
    40    73    72    1
    41    26    25   ar
    42    61    60    1
    43    72    75    1
    44    60    58   am
    45    25    24    1
    46    37    36    2
    47    58    57    1
    48    58    59    2
    49    57    56    1
    50    75    76    1
    51    38    39    1
    52    38    35    1
    53    24    21    1
    54    36    35    1
    55    78    76    1
    56    76    77    1
    57    40    39   ar
    58    40    42   ar
    59    39    41   ar
    60    56    50   am
    61    35    34    1
    62    20    21    1
    63    21    22    1
    64    42    43   ar
    65    51    50    2
    66    41    43   ar
    67    41    44   ar
    68    50    49    1
    69    43    45   ar
    70    44    46   ar
    71    22    23    2
    72    45    47   ar
    73    46    47   ar
    74    49    48    1
    75    49    52    1
    76    52    53    1
    77    53    55    1
    78    53    54    1
