@<TRIPOS>MOLECULE
tmp/6flvA00.pdb
 156 146 0 0 0
SMALL
GASTEIGER

@<TRIPOS>ATOM
      1  N        -19.5520   21.2770   37.9460 N.3    21  ILE21      -0.1231
      2  CA       -19.2300   20.8140   39.2930 C.3    21  ILE21       0.1692
      3  C        -17.9330   21.4520   39.7790 C.2    21  ILE21       0.2593
      4  O        -17.9160   22.1420   40.8050 O.2    21  ILE21      -0.2718
      5  CB       -19.1320   19.2780   39.3550 C.3    21  ILE21       0.0266
      6  CG1      -20.5150   18.6470   39.1950 C.3    21  ILE21       0.0019
      7  CG2      -18.4950   18.8380   40.6700 C.3    21  ILE21       0.0020
      8  CD1      -20.5160   17.1370   39.3120 C.3    21  ILE21       0.0001
      9  N        -16.8380   21.2300   39.0520 N.am   22  GLY22      -0.1942
     10  CA       -15.5410   21.7030   39.4890 C.3    22  GLY22       0.2014
     11  C        -14.6240   22.0180   38.3250 C.2    22  GLY22       0.2639
     12  O        -15.0130   21.9500   37.1560 O.2    22  GLY22      -0.2714
     13  N        -13.3820   22.3650   38.6620 N.am   23  GLU23      -0.1963
     14  CA       -12.3960   22.7470   37.6640 C.3    23  GLU23       0.1733
     15  C        -11.0040   22.4760   38.2160 C.2    23  GLU23       0.2616
     16  O        -10.7850   22.4980   39.4300 O.2    23  GLU23      -0.2715
     17  CB       -12.5460   24.2220   37.2730 C.3    23  GLU23       0.0429
     18  CG       -11.7070   24.6490   36.0800 C.3    23  GLU23       0.1163
     19  CD       -11.9910   26.0750   35.6540 C.2    23  GLU23       0.3649
     20  OE1      -12.9440   26.6770   36.1920 O.co2  23  GLU23      -0.2457
     21  OE2      -11.2640   26.5940   34.7810 O.co2  23  GLU23      -0.2457
     22  N        -10.0700   22.2030   37.3090 N.am   24  GLY24      -0.1955
     23  CA        -8.6800   22.0160   37.6750 C.3    24  GLY24       0.1869
     24  C         -7.7580   22.9090   36.8720 C.2    24  GLY24       0.2309
     25  O         -8.2090   23.8830   36.2620 O.2    24  GLY24      -0.2863
     26  N        -14.8600   19.2260   35.5700 N.3    29  VAL29      -0.1245
     27  CA       -15.7480   18.1280   35.9300 C.3    29  VAL29       0.1561
     28  C        -17.1900   18.5970   35.8150 C.2    29  VAL29       0.2260
     29  O        -17.5320   19.7040   36.2460 O.2    29  VAL29      -0.2867
     30  CB       -15.4570   17.6020   37.3480 C.3    29  VAL29       0.0252
     31  CG1      -16.3670   16.4290   37.6670 C.3    29  VAL29       0.0019
     32  CG2      -13.9980   17.1990   37.4710 C.3    29  VAL29       0.0019
     33  N        -20.5780   11.1730   36.3970 N.3    42  ALA42      -0.1245
     34  CA       -19.5650   12.2170   36.4050 C.3    42  ALA42       0.1562
     35  C        -18.7310   12.1120   35.1370 C.2    42  ALA42       0.2260
     36  O        -18.4060   11.0080   34.6900 O.2    42  ALA42      -0.2867
     37  CB       -18.6600   12.1000   37.6330 C.3    42  ALA42       0.0290
     38  N        -15.2080   13.9010   33.4610 N.3    44  LYS44      -0.1245
     39  CA       -14.0470   14.7560   33.6580 C.3    44  LYS44       0.1561
     40  C        -13.3900   15.0080   32.3070 C.2    44  LYS44       0.2260
     41  O        -12.9240   14.0660   31.6560 O.2    44  LYS44      -0.2867
     42  CB       -13.0640   14.1130   34.6370 C.3    44  LYS44       0.0271
     43  CG       -11.7150   14.7950   34.7210 C.3    44  LYS44       0.0035
     44  CD       -10.8250   14.1260   35.7680 C.3    44  LYS44       0.0206
     45  CE       -10.7570   12.6150   35.5650 C.3    44  LYS44       0.1093
     46  NZ        -9.8200   11.9420   36.5090 N.3    44  LYS44      -0.1314
     47  N        -12.3660    4.1370   42.2720 N.3    74  ILE74      -0.1245
     48  CA       -13.2650    4.6750   41.2530 C.3    74  ILE74       0.1561
     49  C        -12.9420    4.0360   39.9100 C.2    74  ILE74       0.2260
     50  O        -11.7770    3.9250   39.5070 O.2    74  ILE74      -0.2867
     51  CB       -13.1780    6.2110   41.1960 C.3    74  ILE74       0.0252
     52  CG1      -14.3240    6.7840   40.3530 C.3    74  ILE74       0.0019
     53  CG2      -11.8450    6.6780   40.6080 C.3    74  ILE74       0.0019
     54  CD1      -15.6640    6.8480   41.0700 C.3    74  ILE74       0.0001
     55  N        -17.1430    8.5040   34.8660 N.3    95  GLN95      -0.1231
     56  CA       -17.0100    7.7370   36.0940 C.3    95  GLN95       0.1698
     57  C        -18.3310    7.7770   36.8530 C.2    95  GLN95       0.2592
     58  O        -19.2300    8.5660   36.5420 O.2    95  GLN95      -0.2718
     59  CB       -15.8560    8.2790   36.9490 C.3    95  GLN95       0.0381
     60  CG       -14.4870    8.2350   36.2490 C.3    95  GLN95       0.0905
     61  CD       -13.3700    8.8470   37.0830 C.2    95  GLN95       0.2608
     62  OE1      -13.5130    9.9470   37.6150 O.2    95  GLN95      -0.2717
     63  NE2      -12.2540    8.1300   37.2050 N.am   95  GLN95      -0.0878
     64  N        -18.4490    6.9000   37.8500 N.am   96  ASP96      -0.1960
     65  CA       -19.6280    6.9050   38.7070 C.3    96  ASP96       0.1840
     66  C        -19.7980    8.2680   39.3640 C.2    96  ASP96       0.2622
     67  O        -18.8240    8.9000   39.7810 O.2    96  ASP96      -0.2715
     68  CB       -19.5190    5.8220   39.7830 C.3    96  ASP96       0.1450
     69  CG       -19.6700    4.4210   39.2240 C.2    96  ASP96       0.3671
     70  OD1      -20.2080    4.2810   38.1060 O.co2  96  ASP96      -0.2456
     71  OD2      -19.2570    3.4600   39.9080 O.co2  96  ASP96      -0.2456
     72  N        -21.0450    8.7250   39.4500 N.am   97  LEU97      -0.1963
     73  CA       -21.3430   10.0040   40.0810 C.3    97  LEU97       0.1728
     74  C        -21.3190    9.8370   41.5970 C.2    97  LEU97       0.2616
     75  O        -22.0550    9.0130   42.1510 O.2    97  LEU97      -0.2715
     76  CB       -22.6960   10.5340   39.6140 C.3    97  LEU97       0.0311
     77  CG       -23.1150   11.8940   40.1800 C.3    97  LEU97       0.0022
     78  CD1      -22.0870   12.9570   39.8360 C.3    97  LEU97       0.0001
     79  CD2      -24.5050   12.3010   39.6800 C.3    97  LEU97       0.0001
     80  N        -20.4720   10.6170   42.2630 N.am   98  MET98      -0.1963
     81  CA       -20.3090   10.5620   43.7080 C.3    98  MET98       0.1736
     82  C        -20.8170   11.8560   44.3340 C.2    98  MET98       0.2616
     83  O        -20.6560   12.9360   43.7610 O.2    98  MET98      -0.2715
     84  CB       -18.8390   10.3230   44.0680 C.3    98  MET98       0.0427
     85  CG       -18.2420    9.0810   43.4010 C.3    98  MET98       0.0599
     86  SD       -18.9890    7.5390   43.9850 S.3    98  MET98      -0.1393
     87  CE       -18.0240    7.2500   45.4650 C.3    98  MET98       0.0692
     88  N        -21.4290   11.7440   45.5170 N.am   99  GLU99      -0.1963
     89  CA       -22.0670   12.9090   46.1270 C.3    99  GLU99       0.1733
     90  C        -21.0450   13.9420   46.5880 C.2    99  GLU99       0.2617
     91  O        -21.2420   15.1470   46.3880 O.2    99  GLU99      -0.2715
     92  CB       -22.9450   12.4890   47.3070 C.3    99  GLU99       0.0429
     93  CG       -23.6680   13.6680   47.9530 C.3    99  GLU99       0.1163
     94  CD       -24.3700   13.3010   49.2470 C.2    99  GLU99       0.3649
     95  OE1      -24.1630   12.1780   49.7460 O.co2  99  GLU99      -0.2457
     96  OE2      -25.1300   14.1430   49.7700 O.co2  99  GLU99      -0.2457
     97  N        -19.9590   13.4990   47.2170 N.am  100  THR100     -0.1937
     98  CA       -19.0150   14.4160   47.8420 C.3   100  THR100      0.2028
     99  C        -17.6590   13.7260   47.9450 C.2   100  THR100      0.2642
    100  O        -17.4610   12.6130   47.4490 O.2   100  THR100     -0.2714
    101  CB       -19.5140   14.8680   49.2200 C.3   100  THR100      0.1808
    102  OG1      -18.6450   15.8800   49.7460 O.3   100  THR100     -0.2208
    103  CG2      -19.5540   13.6910   50.1990 C.3   100  THR100      0.0379
    104  N        -16.7130   14.4070   48.5800 N.am  101  ASP101     -0.1971
    105  CA       -15.4430   13.7940   48.9320 C.3   101  ASP101      0.1709
    106  C        -15.1670   14.0620   50.4050 C.2   101  ASP101      0.2293
    107  O        -15.8600   14.8480   51.0560 O.2   101  ASP101     -0.2864
    108  CB       -14.2930   14.3050   48.0460 C.3   101  ASP101      0.1436
    109  CG       -14.1040   15.8080   48.1350 C.2   101  ASP101      0.3671
    110  OD1      -13.7580   16.3170   49.2230 O.co2 101  ASP101     -0.2456
    111  OD2      -14.2860   16.4850   47.1070 O.co2 101  ASP101     -0.2456
    112  N        -14.4740   17.8440   51.4530 N.3   104  LYS104     -0.1245
    113  CA       -15.6620   18.6720   51.6210 C.3   104  LYS104      0.1561
    114  C        -16.4730   18.2300   52.8320 C.2   104  LYS104      0.2260
    115  O        -17.0630   19.0670   53.5260 O.2   104  LYS104     -0.2867
    116  CB       -16.5180   18.6350   50.3510 C.3   104  LYS104      0.0271
    117  CG       -15.8050   19.1870   49.1210 C.3   104  LYS104      0.0035
    118  CD       -16.7010   19.2420   47.8870 C.3   104  LYS104      0.0206
    119  CE       -17.0550   17.8520   47.3810 C.3   104  LYS104      0.1093
    120  NZ       -17.4130   17.8560   45.9310 N.3   104  LYS104     -0.1314
    121  N         -9.3520   14.8910   49.7460 N.3   143  SER143     -0.1202
    122  CA       -10.0140   15.2760   48.5060 C.3   143  SER143      0.2020
    123  C         -9.9360   14.1930   47.4380 C.2   143  SER143      0.2618
    124  O        -10.6770   14.2700   46.4520 O.2   143  SER143     -0.2717
    125  CB        -9.4330   16.5830   47.9630 C.3   143  SER143      0.2103
    126  OG        -8.0610   16.4340   47.6660 O.3   143  SER143     -0.2182
    127  N         -9.0800   13.1840   47.6090 N.am  144  ASN144     -0.1974
    128  CA        -8.9940   12.0690   46.6740 C.3   144  ASN144      0.1688
    129  C         -9.7680   10.8480   47.1500 C.2   144  ASN144      0.2292
    130  O         -9.5620    9.7450   46.6290 O.2   144  ASN144     -0.2864
    131  CB        -7.5330   11.7000   46.4120 C.3   144  ASN144      0.1181
    132  CG        -6.8600   12.6620   45.4530 C.2   144  ASN144      0.2629
    133  OD1       -7.5200   13.2540   44.5960 O.2   144  ASN144     -0.2716
    134  ND2       -5.5430   12.8220   45.5890 N.am  144  ASN144     -0.0877
    135  N        -13.6170    9.8180   47.3520 N.3   146  LEU146     -0.1245
    136  CA       -14.9800   10.1730   46.9820 C.3   146  LEU146      0.1561
    137  C        -15.9840    9.3390   47.7650 C.2   146  LEU146      0.2260
    138  O        -15.7240    8.1860   48.1100 O.2   146  LEU146     -0.2867
    139  CB       -15.2110    9.9610   45.4860 C.3   146  LEU146      0.0270
    140  CG       -14.1620   10.5580   44.5510 C.3   146  LEU146      0.0019
    141  CD1      -14.5590   10.3400   43.0950 C.3   146  LEU146      0.0001
    142  CD2      -13.9760   12.0300   44.8470 C.3   146  LEU146      0.0001
    143  N         -9.6020    7.8020   44.3210 N.3   155  CYS155     -0.1221
    144  CA        -9.4570    8.3400   42.9760 C.3   155  CYS155      0.1808
    145  C         -8.0900    9.0050   42.8120 C.2   155  CYS155      0.2601
    146  O         -7.2870    9.0830   43.7460 O.2   155  CYS155     -0.2717
    147  CB       -10.5970    9.3180   42.6530 C.3   155  CYS155      0.0970
    148  SG       -10.5710   10.8910   43.5550 S.3   155  CYS155     -0.0800
    149  N         -7.8400    9.4620   41.5840 N.am  156  ASP156     -0.1973
    150  CA        -6.6480   10.1900   41.1510 C.3   156  ASP156      0.1709
    151  C         -5.3580    9.3880   41.3010 C.2   156  ASP156      0.2293
    152  O         -4.6430    9.5180   42.2990 O.2   156  ASP156     -0.2864
    153  CB        -6.5210   11.5200   41.8940 C.3   156  ASP156      0.1436
    154  CG        -5.4760   12.4310   41.2730 C.2   156  ASP156      0.3671
    155  OD1       -4.9170   12.0740   40.2120 O.co2 156  ASP156     -0.2456
    156  OD2       -5.2060   13.5060   41.8500 O.co2 156  ASP156     -0.2456
@<TRIPOS>BOND
     1    41    40    2
     2    40    39    1
     3    38    39    1
     4    39    42    1
     5    42    43    1
     6    36    35    2
     7    43    44    1
     8    21    19   ar
     9    55    56    1
    10    35    34    1
    11    45    44    1
    12    45    46    1
    13    26    27    1
    14    19    18    1
    15    19    20   ar
    16    28    27    1
    17    28    29    2
    18    27    30    1
    19    18    17    1
    20    56    57    1
    21    56    59    1
    22    60    59    1
    23    60    61    1
    24    25    24    2
    25    33    34    1
    26    34    37    1
    27    58    57    2
    28    57    64   am
    29    24    23    1
    30    61    63   am
    31    61    62    2
    32    12    11    2
    33    17    14    1
    34    22    23    1
    35    22    15   am
    36    30    32    1
    37    30    31    1
    38    14    15    1
    39    14    13    1
    40    64    65    1
    41     1     2    1
    42    70    69   ar
    43    15    16    2
    44    11    13   am
    45    11    10    1
    46    65    66    1
    47    65    68    1
    48     9    10    1
    49     9     3   am
    50     6     8    1
    51     6     5    1
    52    69    68    1
    53    69    71   ar
    54     2     5    1
    55     2     3    1
    56     5     7    1
    57    66    72   am
    58    66    67    2
    59    72    73    1
    60    50    49    2
    61    76    73    1
    62    76    77    1
    63    79    77    1
    64     3     4    2
    65    78    77    1
    66    49    48    1
    67    73    74    1
    68   155   154   ar
    69    52    54    1
    70    52    51    1
    71    53    51    1
    72   150   151    1
    73   150   149    1
    74   150   153    1
    75    51    48    1
    76    48    47    1
    77   154   156   ar
    78   154   153    1
    79   151   152    2
    80   149   145   am
    81    74    75    2
    82    74    80   am
    83    80    81    1
    84   147   144    1
    85   147   148    1
    86   145   144    1
    87   145   146    2
    88   144   143    1
    89   141   140    1
    90    85    86    1
    91    85    84    1
    92    81    84    1
    93    81    82    1
    94    83    82    2
    95    86    87    1
    96    82    88   am
    97   140   142    1
    98   140   139    1
    99   133   132    2
   100   132   134   am
   101   132   131    1
   102   139   136    1
   103    88    89    1
   104   120   119    1
   105    89    90    1
   106    89    92    1
   107    91    90    2
   108   131   128    1
   109   124   123    2
   110    90    97   am
   111   130   129    2
   112   128   129    1
   113   128   127    1
   114   136   135    1
   115   136   137    1
   116   111   109   ar
   117    97    98    1
   118    92    93    1
   119   119   118    1
   120   123   127   am
   121   123   122    1
   122   100    99    2
   123   126   125    1
   124   137   138    2
   125    98    99    1
   126    98   101    1
   127   118   117    1
   128    99   104   am
   129    93    94    1
   130   125   122    1
   131   108   109    1
   132   108   105    1
   133   109   110   ar
   134   122   121    1
   135   104   105    1
   136   105   106    1
   137   117   116    1
   138   101   102    1
   139   101   103    1
   140    94    95   ar
   141    94    96   ar
   142   116   113    1
   143   106   107    2
   144   112   113    1
   145   113   114    1
   146   114   115    2
