@<TRIPOS>MOLECULE
tmp/6flyB00.pdb
 72 68 0 0 0
SMALL
GASTEIGER

@<TRIPOS>ATOM
      1  N         71.0690   20.6420    4.1220 N.3    13  GLU13      -0.1231
      2  CA        71.7860   21.6800    3.4010 C.3    13  GLU13       0.1699
      3  C         70.8170   22.8260    3.0970 C.2    13  GLU13       0.2593
      4  O         69.7470   22.9310    3.7090 O.2    13  GLU13      -0.2718
      5  CB        72.4220   21.0880    2.1350 C.3    13  GLU13       0.0402
      6  CG        73.4490   19.9950    2.3960 C.3    13  GLU13       0.1161
      7  CD        74.5910   20.4630    3.2820 C.2    13  GLU13       0.3649
      8  OE1       75.0390   21.6160    3.1120 O.co2  13  GLU13      -0.2457
      9  OE2       75.0370   19.6770    4.1460 O.co2  13  GLU13      -0.2457
     10  N         71.1770   23.6850    2.1530 N.am   14  GLY14      -0.1942
     11  CA        70.4440   24.9180    1.9830 C.3    14  GLY14       0.2014
     12  C         70.4820   25.7790    3.2450 C.2    14  GLY14       0.2639
     13  O         71.3460   25.6430    4.1170 O.2    14  GLY14      -0.2714
     14  N         69.5130   26.6880    3.3220 N.am   15  THR15      -0.1950
     15  CA        69.3980   27.6540    4.4070 C.3    15  THR15       0.1897
     16  C         67.9910   27.6480    4.9820 C.2    15  THR15       0.2313
     17  O         67.0050   27.6150    4.2390 O.2    15  THR15      -0.2863
     18  CB        69.7400   29.0670    3.9200 C.3    15  THR15       0.1794
     19  OG1       71.0900   29.0950    3.4430 O.3    15  THR15      -0.2208
     20  CG2       69.5570   30.1000    5.0360 C.3    15  THR15       0.0378
     21  N         72.8170   16.6000   -4.6890 N.3    87  VAL87      -0.1245
     22  CA        72.2080   16.8660   -3.3880 C.3    87  VAL87       0.1561
     23  C         71.8380   15.5340   -2.7450 C.2    87  VAL87       0.2260
     24  O         71.1010   14.7310   -3.3280 O.2    87  VAL87      -0.2867
     25  CB        70.9760   17.7720   -3.5330 C.3    87  VAL87       0.0252
     26  CG1       70.3600   18.0700   -2.1710 C.3    87  VAL87       0.0019
     27  CG2       71.3370   19.0580   -4.2750 C.3    87  VAL87       0.0019
     28  N         66.7910   15.8930   -0.5260 N.3    90  LEU90      -0.1245
     29  CA        65.9350   17.0590   -0.6730 C.3    90  LEU90       0.1561
     30  C         64.5050   16.5820   -0.8790 C.2    90  LEU90       0.2260
     31  O         64.2240   15.3790   -0.8870 O.2    90  LEU90      -0.2867
     32  CB        66.4080   17.9450   -1.8340 C.3    90  LEU90       0.0270
     33  CG        66.6450   17.3110   -3.2120 C.3    90  LEU90       0.0019
     34  CD1       65.4220   16.5970   -3.7860 C.3    90  LEU90       0.0001
     35  CD2       67.1250   18.3810   -4.1770 C.3    90  LEU90       0.0001
     36  N         66.2080   25.8260    2.1240 N.3   130  PHE130     -0.1227
     37  CA        66.1540   26.2150    0.7210 C.3   130  PHE130      0.1736
     38  C         67.5020   26.7010    0.2150 C.2   130  PHE130      0.2596
     39  O         68.2070   27.4480    0.8990 O.2   130  PHE130     -0.2718
     40  CB        65.1340   27.3320    0.4880 C.3   130  PHE130      0.0547
     41  CG        63.7700   27.0170    1.0030 C.ar  130  PHE130     -0.0202
     42  CD1       63.4390   27.2690    2.3230 C.ar  130  PHE130     -0.0042
     43  CD2       62.8140   26.4690    0.1660 C.ar  130  PHE130     -0.0042
     44  CE1       62.1770   26.9810    2.7960 C.ar  130  PHE130     -0.0003
     45  CE2       61.5500   26.1820    0.6350 C.ar  130  PHE130     -0.0003
     46  CZ        61.2320   26.4380    1.9520 C.ar  130  PHE130     -0.0000
     47  N         67.8290   26.2980   -1.0070 N.am  131  GLY131     -0.1942
     48  CA        68.9340   26.8710   -1.7440 C.3   131  GLY131      0.2014
     49  C         68.4280   27.1580   -3.1380 C.2   131  GLY131      0.2640
     50  O         67.4770   27.9310   -3.2950 O.2   131  GLY131     -0.2714
     51  N         69.0350   26.5630   -4.1620 N.am  132  SER132     -0.1935
     52  CA        68.4170   26.6080   -5.4780 C.3   132  SER132      0.2055
     53  C         67.2130   25.6740   -5.5630 C.2   132  SER132      0.2642
     54  O         66.4150   25.8020   -6.4980 O.2   132  SER132     -0.2714
     55  CB        69.4480   26.2920   -6.5630 C.3   132  SER132      0.2130
     56  OG        70.0970   25.0580   -6.3300 O.3   132  SER132     -0.2179
     57  N         67.0640   24.7470   -4.6120 N.am  133  LEU133     -0.1977
     58  CA        65.9070   23.8610   -4.5260 C.3   133  LEU133      0.1596
     59  C         65.3760   23.8550   -3.0930 C.2   133  LEU133      0.2287
     60  O         65.8850   24.5580   -2.2150 O.2   133  LEU133     -0.2864
     61  CB        66.2710   22.4390   -4.9670 C.3   133  LEU133      0.0297
     62  CG        66.8920   22.2930   -6.3550 C.3   133  LEU133      0.0022
     63  CD1       67.4020   20.8770   -6.5320 C.3   133  LEU133      0.0001
     64  CD2       65.8770   22.6310   -7.4260 C.3   133  LEU133      0.0001
     65  N         65.4680   22.0530    0.0450 N.3   135  ASP135     -0.1239
     66  CA        66.1950   21.0190    0.7750 C.3   135  ASP135      0.1674
     67  C         65.3140   20.3270    1.8140 C.2   135  ASP135      0.2266
     68  O         65.4210   19.1090    2.0070 O.2   135  ASP135     -0.2867
     69  CB        67.4420   21.6170    1.4190 C.3   135  ASP135      0.1410
     70  CG        68.4890   22.0060    0.3920 C.2   135  ASP135      0.3668
     71  OD1       68.4280   23.1400   -0.1260 O.co2 135  ASP135     -0.2456
     72  OD2       69.3610   21.1640    0.0860 O.co2 135  ASP135     -0.2456
@<TRIPOS>BOND
     1    64    62    1
     2    55    56    1
     3    55    52    1
     4    63    62    1
     5    54    53    2
     6    62    61    1
     7    53    52    1
     8    53    57   am
     9    52    51    1
    10    61    58    1
    11    21    22    1
    12    57    58    1
    13    58    59    1
    14    27    25    1
    15    35    33    1
    16    51    49   am
    17    34    33    1
    18    25    22    1
    19    25    26    1
    20    22    23    1
    21    24    23    2
    22    50    49    2
    23    33    32    1
    24    49    48    1
    25    59    60    2
    26    32    29    1
    27    48    47    1
    28    47    38   am
    29    31    30    2
    30    30    29    1
    31    29    28    1
    32    71    70   ar
    33    65    66    1
    34    72    70   ar
    35    43    45   ar
    36    43    41   ar
    37    38    37    1
    38    38    39    2
    39    70    69    1
    40    40    37    1
    41    40    41    1
    42    45    46   ar
    43    37    36    1
    44    66    69    1
    45    66    67    1
    46    41    42   ar
    47    67    68    2
    48    46    44   ar
    49    11    10    1
    50    11    12    1
    51     5     6    1
    52     5     2    1
    53    10     3   am
    54    42    44   ar
    55     6     7    1
    56     3     2    1
    57     3     4    2
    58     8     7   ar
    59    12    14   am
    60    12    13    2
    61     7     9   ar
    62    14    15    1
    63     2     1    1
    64    19    18    1
    65    18    15    1
    66    18    20    1
    67    17    16    2
    68    15    16    1
