@<TRIPOS>MOLECULE
tmp/6fm7A00.pdb
 113 108 0 0 0
SMALL
GASTEIGER

@<TRIPOS>ATOM
      1  N          4.0170   -4.9980   12.4090 N.3    59  SER59      -0.1217
      2  CA         3.7330   -3.5760   12.5050 C.3    59  SER59       0.1889
      3  C          4.9480   -2.7030   12.7790 C.2    59  SER59       0.2288
      4  O          4.8270   -1.4870   12.6610 O.2    59  SER59      -0.2866
      5  CB         2.7010   -3.3020   13.5720 C.3    59  SER59       0.2089
      6  OG         1.4230   -3.8190   13.1700 O.3    59  SER59      -0.2183
      7  N         -8.9070   -1.2880   13.1580 N.3   114  LEU114     -0.1231
      8  CA        -7.6180   -1.9740   13.1830 C.3   114  LEU114      0.1693
      9  C         -7.2950   -2.6340   11.8460 C.2   114  LEU114      0.2591
     10  O         -6.1680   -2.5020   11.3520 O.2   114  LEU114     -0.2718
     11  CB        -7.6180   -2.9960   14.3120 C.3   114  LEU114      0.0284
     12  CG        -6.3290   -3.7780   14.4650 C.3   114  LEU114      0.0019
     13  CD1       -5.1610   -2.8620   14.7690 C.3   114  LEU114      0.0001
     14  CD2       -6.4930   -4.8330   15.5430 C.3   114  LEU114      0.0001
     15  N         -8.2630   -3.3650   11.2930 N.am  115  GLN115     -0.1979
     16  CA        -8.0900   -4.0940   10.0350 C.3   115  GLN115      0.1601
     17  C         -9.1690   -3.7140    9.0610 C.2   115  GLN115      0.2287
     18  O        -10.2800   -3.3420    9.4530 O.2   115  GLN115     -0.2864
     19  CB        -8.1780   -5.6060   10.2540 C.3   115  GLN115      0.0394
     20  CG        -7.2440   -6.1690   11.3140 C.3   115  GLN115      0.0908
     21  CD        -5.7690   -6.1320   10.9410 C.2   115  GLN115      0.2608
     22  OE1       -5.3690   -5.7020    9.8430 O.2   115  GLN115     -0.2717
     23  NE2       -4.9330   -6.5750   11.8780 N.am  115  GLN115     -0.0878
     24  N         -5.6260    2.8110   16.6820 N.3   145  TYR145     -0.1241
     25  CA        -4.5390    2.2190   15.9030 C.3   145  TYR145      0.1605
     26  C         -5.1440    1.4230   14.7510 C.2   145  TYR145      0.2264
     27  O         -6.0760    0.6360   14.9430 O.2   145  TYR145     -0.2867
     28  CB        -3.6890    1.3710   16.8130 C.3   145  TYR145      0.0534
     29  CG        -2.4660    0.7720   16.1620 C.ar  145  TYR145     -0.0201
     30  CD1       -2.5650   -0.3590   15.3850 C.ar  145  TYR145     -0.0009
     31  CD2       -1.2120    1.3720   16.2750 C.ar  145  TYR145     -0.0009
     32  CE1       -1.4510   -0.9220   14.8050 C.ar  145  TYR145      0.0417
     33  CE2       -0.0840    0.7950   15.7010 C.ar  145  TYR145      0.0417
     34  CZ        -0.2060   -0.3720   14.9860 C.ar  145  TYR145      0.1957
     35  OH         0.8930   -0.9910   14.4460 O.3   145  TYR145     -0.2866
     36  N         -4.4340   -0.3030   10.6640 N.3   147  ASN147     -0.1240
     37  CA        -3.7220   -0.6640    9.4540 C.3   147  ASN147      0.1653
     38  C         -4.2630    0.0830    8.2280 C.2   147  ASN147      0.2266
     39  O         -3.4720    0.6560    7.4810 O.2   147  ASN147     -0.2867
     40  CB        -3.6970   -2.1750    9.2530 C.3   147  ASN147      0.1155
     41  CG        -2.7650   -2.8830   10.2140 C.2   147  ASN147      0.2627
     42  OD1       -1.8580   -2.2750   10.7870 O.2   147  ASN147     -0.2716
     43  ND2       -2.9340   -4.1860   10.3370 N.am  147  ASN147     -0.0877
     44  N          2.3630   -3.9260    7.6240 N.3   217  TYR217     -0.1241
     45  CA         2.9410   -5.0490    8.3590 C.3   217  TYR217      0.1605
     46  C          3.8450   -5.9680    7.5600 C.2   217  TYR217      0.2264
     47  O          4.1490   -7.0470    8.0500 O.2   217  TYR217     -0.2867
     48  CB         1.8410   -5.8540    9.0960 C.3   217  TYR217      0.0534
     49  CG         0.7580   -6.3930    8.1820 C.ar  217  TYR217     -0.0201
     50  CD1        0.9300   -7.5480    7.4230 C.ar  217  TYR217     -0.0009
     51  CD2       -0.4610   -5.7170    8.0730 C.ar  217  TYR217     -0.0009
     52  CE1       -0.0760   -8.0050    6.5820 C.ar  217  TYR217      0.0417
     53  CE2       -1.4610   -6.1680    7.2280 C.ar  217  TYR217      0.0417
     54  CZ        -1.2670   -7.3080    6.4880 C.ar  217  TYR217      0.1957
     55  OH        -2.2590   -7.7540    5.6520 O.3   217  TYR217     -0.2866
     56  N         -3.7440    0.1170   22.5210 N.3   286  SER286     -0.1202
     57  CA        -3.5390   -0.4510   21.1880 C.3   286  SER286      0.2020
     58  C         -4.8210   -0.8250   20.4520 C.2   286  SER286      0.2618
     59  O         -4.8670   -0.7720   19.2240 O.2   286  SER286     -0.2717
     60  CB        -2.6370   -1.6820   21.2830 C.3   286  SER286      0.2103
     61  OG        -1.4230   -1.3690   21.9450 O.3   286  SER286     -0.2182
     62  N         -5.8510   -1.2390   21.1880 N.am  287  PHE287     -0.1975
     63  CA        -7.0260   -1.8470   20.5550 C.3   287  PHE287      0.1639
     64  C         -8.3530   -1.2080   20.9460 C.2   287  PHE287      0.2290
     65  O         -9.4130   -1.7690   20.6610 O.2   287  PHE287     -0.2864
     66  CB        -7.0330   -3.3560   20.8290 C.3   287  PHE287      0.0560
     67  CG        -5.7390   -4.0490   20.4450 C.ar  287  PHE287     -0.0200
     68  CD1       -5.1740   -3.8620   19.1780 C.ar  287  PHE287     -0.0042
     69  CD2       -5.0780   -4.8820   21.3450 C.ar  287  PHE287     -0.0042
     70  CE1       -3.9800   -4.4800   18.8290 C.ar  287  PHE287     -0.0003
     71  CE2       -3.8870   -5.5050   20.9960 C.ar  287  PHE287     -0.0003
     72  CZ        -3.3370   -5.3040   19.7380 C.ar  287  PHE287     -0.0000
     73  N          8.5060    0.6130   18.9610 N.3   309  LYS309     -0.1231
     74  CA         7.4150    0.0730   18.1830 C.3   309  LYS309      0.1693
     75  C          7.3600   -1.4340   18.3620 C.2   309  LYS309      0.2593
     76  O          8.3840   -2.1130   18.2750 O.2   309  LYS309     -0.2718
     77  CB         7.5320    0.4200   16.6850 C.3   309  LYS309      0.0285
     78  CG         6.2910    0.0610   15.8670 C.3   309  LYS309      0.0035
     79  CD         5.0790    0.9210   16.1940 C.3   309  LYS309      0.0206
     80  CE         3.8250    0.4730   15.4600 C.3   309  LYS309      0.1093
     81  NZ         3.1360   -0.6840   16.0910 N.3   309  LYS309     -0.1314
     82  N          6.1390   -1.9430   18.5650 N.am  310  THR310     -0.1939
     83  CA         5.8230   -3.3610   18.5590 C.3   310  THR310      0.2028
     84  C          5.3390   -3.8260   17.1860 C.2   310  THR310      0.2643
     85  O          4.7910   -3.0490   16.3930 O.2   310  THR310     -0.2714
     86  CB         4.6980   -3.6280   19.5890 C.3   310  THR310      0.1808
     87  OG1        3.5910   -2.7700   19.3120 O.3   310  THR310     -0.2208
     88  CG2        5.1590   -3.3900   21.0040 C.3   310  THR310      0.0379
     89  N          5.4480   -5.1190   16.9310 N.am  311  GLY311     -0.1939
     90  CA         4.7830   -5.7050   15.7780 C.3   311  GLY311      0.2014
     91  C          4.6870   -7.1910   15.8880 C.2   311  GLY311      0.2640
     92  O          5.5260   -7.8340   16.5160 O.2   311  GLY311     -0.2714
     93  N          3.6680   -7.7400   15.2380 N.am  312  SER312     -0.1935
     94  CA         3.4200   -9.1680   15.2510 C.3   312  SER312      0.2055
     95  C          2.8100   -9.5910   13.9180 C.2   312  SER312      0.2643
     96  O          2.1740   -8.7850   13.2320 O.2   312  SER312     -0.2714
     97  CB         2.4630   -9.5280   16.3900 C.3   312  SER312      0.2130
     98  OG         2.9090   -8.9840   17.6210 O.3   312  SER312     -0.2179
     99  N          3.0370  -10.8390   13.5610 N.am  313  THR313     -0.1950
    100  CA         2.2750  -11.4800   12.5160 C.3   313  THR313      0.1897
    101  C          1.8830  -12.8270   13.0850 C.2   313  THR313      0.2313
    102  O          2.2310  -13.1620   14.2110 O.2   313  THR313     -0.2863
    103  CB         3.0610  -11.6370   11.1960 C.3   313  THR313      0.1794
    104  OG1        4.1800  -12.4660   11.4330 O.3   313  THR313     -0.2208
    105  CG2        3.5440  -10.3280   10.6450 C.3   313  THR313      0.0378
    106  N          3.0170   -8.9140   24.2900 N.3   340  ILE340     -0.1245
    107  CA         3.6650   -7.6100   24.2650 C.3   340  ILE340      0.1561
    108  C          4.1910   -7.2000   25.6390 C.2   340  ILE340      0.2260
    109  O          5.2970   -6.6680   25.7420 O.2   340  ILE340     -0.2867
    110  CB         2.7400   -6.5510   23.6370 C.3   340  ILE340      0.0252
    111  CG1        2.7250   -6.7680   22.1080 C.3   340  ILE340      0.0019
    112  CG2        3.2080   -5.1270   23.9630 C.3   340  ILE340      0.0019
    113  CD1        1.7440   -5.9060   21.3490 C.3   340  ILE340      0.0001
@<TRIPOS>BOND
     1    55    54    1
     2    54    52   ar
     3    54    53   ar
     4    52    50   ar
     5    53    51   ar
     6    50    49   ar
     7    39    38    2
     8    46    47    2
     9    46    45    1
    10    44    45    1
    11    51    49   ar
    12    49    48    1
    13    38    37    1
    14    45    48    1
    15    17    18    2
    16    17    16    1
    17    40    37    1
    18    40    41    1
    19    37    36    1
    20    22    21    2
    21    16    19    1
    22    16    15    1
    23    41    43   am
    24    41    42    2
    25    19    20    1
    26   105   103    1
    27    21    20    1
    28    21    23   am
    29   103   104    1
    30   103   100    1
    31    15     9   am
    32    10     9    2
    33     9     8    1
    34     1     2    1
    35     2     3    1
    36     2     5    1
    37   100   101    1
    38   100    99    1
    39     4     3    2
    40   101   102    2
    41     7     8    1
    42     6     5    1
    43     8    11    1
    44    96    95    2
    45    99    95   am
    46    95    94    1
    47    11    12    1
    48    35    34    1
    49    12    13    1
    50    12    14    1
    51    26    27    2
    52    26    25    1
    53    32    34   ar
    54    32    30   ar
    55    34    33   ar
    56    93    94    1
    57    93    91   am
    58    94    97    1
    59    30    29   ar
    60    80    81    1
    61    80    79    1
    62    33    31   ar
    63    90    91    1
    64    90    89    1
    65    78    79    1
    66    78    77    1
    67    91    92    2
    68    25    24    1
    69    25    28    1
    70    29    31   ar
    71    29    28    1
    72    97    98    1
    73    85    84    2
    74    77    74    1
    75    89    84   am
    76    84    83    1
    77    74    75    1
    78    74    73    1
    79    76    75    2
    80    75    82   am
    81    83    82    1
    82    83    86    1
    83    70    68   ar
    84    70    72   ar
    85    68    67   ar
    86    59    58    2
    87    87    86    1
    88    86    88    1
    89    72    71   ar
    90    67    66    1
    91    67    69   ar
    92    58    62   am
    93    58    57    1
    94    63    66    1
    95    63    64    1
    96    63    62    1
    97    65    64    2
    98    71    69   ar
    99    57    60    1
   100    57    56    1
   101    60    61    1
   102   113   111    1
   103   111   110    1
   104   110   112    1
   105   110   107    1
   106   107   106    1
   107   107   108    1
   108   108   109    2
