@<TRIPOS>MOLECULE
tmp/6fm9A00.pdb
 143 135 0 0 0
SMALL
GASTEIGER

@<TRIPOS>ATOM
      1  N         47.2800   47.1460  122.2690 N.3   172  LEU172     -0.1231
      2  CA        47.6160   46.3470  121.0910 C.3   172  LEU172      0.1693
      3  C         48.9190   46.8390  120.4670 C.2   172  LEU172      0.2591
      4  O         49.7570   46.0090  120.1260 O.2   172  LEU172     -0.2718
      5  CB        46.4940   46.3420  120.0460 C.3   172  LEU172      0.0284
      6  CG        45.2910   45.4940  120.3930 C.3   172  LEU172      0.0019
      7  CD1       44.0770   45.9810  119.6590 C.3   172  LEU172      0.0001
      8  CD2       45.5430   44.0150  120.1260 C.3   172  LEU172      0.0001
      9  N         49.1070   48.1780  120.3560 N.am  173  VAL173     -0.1980
     10  CA        50.3220   48.7750  119.7910 C.3   173  VAL173      0.1595
     11  C         51.5070   48.4030  120.6850 C.2   173  VAL173      0.2287
     12  O         52.5300   47.9420  120.1740 O.2   173  VAL173     -0.2864
     13  CB        50.2150   50.3140  119.5570 C.3   173  VAL173      0.0276
     14  CG1       51.4750   50.8670  118.9000 C.3   173  VAL173      0.0022
     15  CG2       49.0010   50.6730  118.7140 C.3   173  VAL173      0.0022
     16  N         52.1730   44.5360  120.5670 N.3   176  ALA176     -0.1231
     17  CA        52.7110   44.2050  119.2440 C.3   176  ALA176      0.1694
     18  C         54.1620   44.6540  119.1300 C.2   176  ALA176      0.2592
     19  O         54.9640   43.9350  118.5330 O.2   176  ALA176     -0.2718
     20  CB        51.8770   44.8390  118.1490 C.3   176  ALA176      0.0304
     21  N         54.5040   45.8210  119.7390 N.am  177  SER177     -0.1952
     22  CA        55.8720   46.3670  119.7710 C.3   177  SER177      0.1924
     23  C         56.7940   45.4090  120.5490 C.2   177  SER177      0.2314
     24  O         57.8740   45.0730  120.0540 O.2   177  SER177     -0.2863
     25  CB        55.8960   47.7630  120.3940 C.3   177  SER177      0.2116
     26  OG        55.1610   48.7060  119.6310 O.3   177  SER177     -0.2180
     27  N         57.3320   42.2180  118.4280 N.3   180  VAL180     -0.1245
     28  CA        58.3350   42.5370  117.3910 C.3   180  VAL180      0.1561
     29  C         59.7540   42.5390  117.9950 C.2   180  VAL180      0.2260
     30  O         60.6460   41.8640  117.4680 O.2   180  VAL180     -0.2867
     31  CB        58.0030   43.8730  116.6590 C.3   180  VAL180      0.0252
     32  CG1       59.1510   44.3210  115.7570 C.3   180  VAL180      0.0019
     33  CG2       56.7120   43.7610  115.8550 C.3   180  VAL180      0.0019
     34  N         47.7840   39.6960  123.0550 N.3   205  PHE205     -0.1241
     35  CA        47.4580   40.4120  121.8290 C.3   205  PHE205      0.1605
     36  C         46.1500   39.9270  121.2340 C.2   205  PHE205      0.2264
     37  O         45.2490   40.7430  121.0110 O.2   205  PHE205     -0.2867
     38  CB        48.6000   40.3170  120.8020 C.3   205  PHE205      0.0534
     39  CG        48.3550   41.0840  119.5220 C.ar  205  PHE205     -0.0203
     40  CD1       48.7260   42.4190  119.4110 C.ar  205  PHE205     -0.0042
     41  CD2       47.7570   40.4690  118.4260 C.ar  205  PHE205     -0.0042
     42  CE1       48.4940   43.1290  118.2300 C.ar  205  PHE205     -0.0003
     43  CE2       47.5160   41.1810  117.2530 C.ar  205  PHE205     -0.0003
     44  CZ        47.8920   42.5050  117.1600 C.ar  205  PHE205     -0.0000
     45  N         42.5540   41.7050  120.8740 N.3   209  LEU209     -0.1245
     46  CA        42.0450   41.8730  119.5080 C.3   209  LEU209      0.1561
     47  C         40.5390   41.5440  119.4590 C.2   209  LEU209      0.2260
     48  O         39.7580   42.3260  118.9140 O.2   209  LEU209     -0.2867
     49  CB        42.8410   40.9720  118.5500 C.3   209  LEU209      0.0270
     50  CG        42.8440   41.3390  117.0850 C.3   209  LEU209      0.0019
     51  CD1       43.5630   42.6380  116.8550 C.3   209  LEU209      0.0001
     52  CD2       43.5100   40.2610  116.2940 C.3   209  LEU209      0.0001
     53  N         38.7400   44.3720  121.3150 N.3   212  LEU212     -0.1245
     54  CA        38.7110   45.5560  120.4490 C.3   212  LEU212      0.1561
     55  C         37.6820   45.3860  119.3370 C.2   212  LEU212      0.2260
     56  O         37.0760   46.3740  118.9230 O.2   212  LEU212     -0.2867
     57  CB        40.1020   45.8940  119.8840 C.3   212  LEU212      0.0270
     58  CG        40.1940   47.2600  119.2220 C.3   212  LEU212      0.0019
     59  CD1       40.6500   48.3320  120.1890 C.3   212  LEU212      0.0001
     60  CD2       41.0520   47.2040  117.9940 C.3   212  LEU212      0.0001
     61  N         35.8220   48.7530  119.6060 N.3   216  TRP216     -0.1227
     62  CA        36.0780   49.7200  118.5270 C.3   216  TRP216      0.1737
     63  C         34.8290   50.4810  118.0670 C.2   216  TRP216      0.2595
     64  O         33.7400   49.9060  118.0740 O.2   216  TRP216     -0.2718
     65  CB        36.7810   49.0460  117.3440 C.3   216  TRP216      0.0564
     66  CG        37.3130   50.0120  116.3370 C.ar  216  TRP216      0.0003
     67  CD1       36.8250   50.2330  115.0890 C.ar  216  TRP216      0.0946
     68  CD2       38.4000   50.9280  116.5150 C.ar  216  TRP216      0.0152
     69  NE1       37.5590   51.2100  114.4610 N.ar  216  TRP216     -0.2442
     70  CE2       38.5290   51.6580  115.3140 C.ar  216  TRP216      0.0810
     71  CE3       39.2980   51.1850  117.5620 C.ar  216  TRP216      0.0012
     72  CZ2       39.5110   52.6340  115.1340 C.ar  216  TRP216      0.0191
     73  CZ3       40.2670   52.1550  117.3850 C.ar  216  TRP216      0.0001
     74  CH2       40.3640   52.8730  116.1870 C.ar  216  TRP216      0.0015
     75  N         34.9940   51.7770  117.6980 N.am  217  TYR217     -0.1976
     76  CA        33.9130   52.6680  117.2570 C.3   217  TYR217      0.1639
     77  C         32.9980   52.0230  116.1950 C.2   217  TYR217      0.2290
     78  O         33.4960   51.5960  115.1510 O.2   217  TYR217     -0.2864
     79  CB        34.4640   54.0210  116.7470 C.3   217  TYR217      0.0560
     80  CG        33.3980   55.0810  116.5340 C.ar  217  TYR217     -0.0198
     81  CD1       32.6900   55.1570  115.3400 C.ar  217  TYR217     -0.0009
     82  CD2       33.1090   56.0130  117.5240 C.ar  217  TYR217     -0.0009
     83  CE1       31.6960   56.1150  115.1500 C.ar  217  TYR217      0.0417
     84  CE2       32.1260   56.9840  117.3390 C.ar  217  TYR217      0.0417
     85  CZ        31.4190   57.0280  116.1520 C.ar  217  TYR217      0.1957
     86  OH        30.4590   57.9920  115.9650 O.3   217  TYR217     -0.2866
     87  N         36.1500   58.2890  116.0150 N.3   350  ARG350     -0.1245
     88  CA        36.8470   57.2170  115.2820 C.3   350  ARG350      0.1563
     89  C         38.2060   57.6530  114.7070 C.2   350  ARG350      0.2260
     90  O         39.1480   56.8570  114.6600 O.2   350  ARG350     -0.2867
     91  CB        35.9540   56.6070  114.1950 C.3   350  ARG350      0.0307
     92  CG        36.4350   55.2410  113.6980 C.3   350  ARG350      0.0489
     93  CD        36.3110   55.0970  112.1890 C.3   350  ARG350      0.2205
     94  NE        37.1450   56.0560  111.4530 N.pl3 350  ARG350     -0.0865
     95  CZ        38.1830   55.7270  110.6910 C.cat 350  ARG350      0.5346
     96  NH1       38.5270   54.4540  110.5390 N.pl3 350  ARG350      0.1354
     97  NH2       38.8770   56.6660  110.0650 N.pl3 350  ARG350      0.1354
     98  N         42.2290   56.6660  116.3880 N.3   354  LEU354     -0.1245
     99  CA        43.1160   56.1900  115.3290 C.3   354  LEU354      0.1561
    100  C         44.3910   57.0140  115.2670 C.2   354  LEU354      0.2260
    101  O         45.4750   56.4500  115.1300 O.2   354  LEU354     -0.2867
    102  CB        42.3540   56.2340  113.9990 C.3   354  LEU354      0.0270
    103  CG        42.6610   55.1700  112.9510 C.3   354  LEU354      0.0019
    104  CD1       42.5960   53.7590  113.5150 C.3   354  LEU354      0.0001
    105  CD2       41.6750   55.2580  111.8290 C.3   354  LEU354      0.0001
    106  N         46.5310   56.2320  118.2150 N.3   357  LEU357     -0.1245
    107  CA        47.0890   54.8940  117.9850 C.3   357  LEU357      0.1561
    108  C         48.2940   55.0250  117.0620 C.2   357  LEU357      0.2260
    109  O         49.3100   54.3620  117.2770 O.2   357  LEU357     -0.2867
    110  CB        46.0410   53.9120  117.4020 C.3   357  LEU357      0.0270
    111  CG        44.7760   53.6320  118.2330 C.3   357  LEU357      0.0019
    112  CD1       43.9380   52.5780  117.5780 C.3   357  LEU357      0.0001
    113  CD2       45.1020   53.2240  119.6550 C.3   357  LEU357      0.0001
    114  N         52.2350   54.3560  117.5890 N.3   361  ILE361     -0.1245
    115  CA        53.0730   53.6620  116.6050 C.3   361  ILE361      0.1561
    116  C         54.3630   54.4830  116.4080 C.2   361  ILE361      0.2260
    117  O         55.4510   53.9050  116.4270 O.2   361  ILE361     -0.2867
    118  CB        52.3260   53.3790  115.2590 C.3   361  ILE361      0.0252
    119  CG1       51.1480   52.4100  115.4490 C.3   361  ILE361      0.0019
    120  CG2       53.2790   52.8420  114.1800 C.3   361  ILE361      0.0019
    121  CD1       50.0100   52.5970  114.4380 C.3   361  ILE361      0.0001
    122  N         56.8570   54.0460  119.2200 N.3   364  SER364     -0.1202
    123  CA        57.4220   52.6960  119.1390 C.3   364  SER364      0.2020
    124  C         58.5340   52.6490  118.0670 C.2   364  SER364      0.2618
    125  O         59.6080   52.1000  118.3290 O.2   364  SER364     -0.2717
    126  CB        56.3250   51.6690  118.8630 C.3   364  SER364      0.2103
    127  OG        55.3270   51.7020  119.8490 O.3   364  SER364     -0.2182
    128  N         58.2960   53.3000  116.8990 N.am  365  ALA365     -0.1979
    129  CA        59.2520   53.4120  115.7960 C.3   365  ALA365      0.1597
    130  C         60.4820   54.1790  116.2690 C.2   365  ALA365      0.2287
    131  O         61.5970   53.7520  115.9790 O.2   365  ALA365     -0.2864
    132  CB        58.6100   54.1160  114.6130 C.3   365  ALA365      0.0319
    133  N         62.4930   51.8360  118.5500 N.3   368  PHE368     -0.1241
    134  CA        63.1320   50.8520  117.6740 C.3   368  PHE368      0.1605
    135  C         64.3110   51.4310  116.9030 C.2   368  PHE368      0.2264
    136  O         65.3290   50.7510  116.7650 O.2   368  PHE368     -0.2867
    137  CB        62.1150   50.2210  116.7100 C.3   368  PHE368      0.0534
    138  CG        61.2810   49.0990  117.2860 C.ar  368  PHE368     -0.0203
    139  CD1       61.8630   47.8870  117.6380 C.ar  368  PHE368     -0.0042
    140  CD2       59.9030   49.2240  117.3990 C.ar  368  PHE368     -0.0042
    141  CE1       61.0900   46.8420  118.1480 C.ar  368  PHE368     -0.0003
    142  CE2       59.1290   48.1760  117.9010 C.ar  368  PHE368     -0.0003
    143  CZ        59.7290   46.9910  118.2680 C.ar  368  PHE368     -0.0000
@<TRIPOS>BOND
     1    97    95    1
     2    96    95    1
     3    95    94    2
     4    94    93    1
     5   105   103    1
     6    93    92    1
     7   103   104    1
     8   103   102    1
     9    92    91    1
    10   102    99    1
    11   120   118    1
    12    91    88    1
    13   121   119    1
    14    69    67   ar
    15    69    70   ar
    16   132   129    1
    17    90    89    2
    18    89    88    1
    19    67    66   ar
    20   101   100    2
    21    72    70   ar
    22    72    74   ar
    23    83    81   ar
    24    83    85   ar
    25    78    77    2
    26   118   119    1
    27   118   115    1
    28   100    99    1
    29    88    87    1
    30    70    68   ar
    31    99    98    1
    32    81    80   ar
    33    32    31    1
    34   129   130    1
    35   129   128    1
    36    33    31    1
    37    86    85    1
    38   131   130    2
    39    85    84   ar
    40    74    73   ar
    41    77    76    1
    42    52    50    1
    43    66    68   ar
    44    66    65    1
    45   116   117    2
    46   116   115    1
    47    68    71   ar
    48    80    79    1
    49    80    82   ar
    50   115   114    1
    51    31    28    1
    52   137   138    1
    53   137   134    1
    54    79    76    1
    55   136   135    2
    56    51    50    1
    57   128   124   am
    58   135   134    1
    59   108   109    2
    60   108   107    1
    61    50    49    1
    62    44    43   ar
    63    44    42   ar
    64    43    41   ar
    65    76    75    1
    66   138   140   ar
    67   138   139   ar
    68    84    82   ar
    69    65    62    1
    70    73    71   ar
    71    28    29    1
    72    28    27    1
    73   140   142   ar
    74   110   107    1
    75   110   111    1
    76    30    29    2
    77   112   111    1
    78   139   141   ar
    79   134   133    1
    80    75    63   am
    81   142   143   ar
    82   107   106    1
    83    60    58    1
    84    63    64    2
    85    63    62    1
    86   124   125    2
    87   124   123    1
    88   141   143   ar
    89    20    17    1
    90    42    40   ar
    91   111   113    1
    92    41    39   ar
    93    62    61    1
    94    19    18    2
    95    49    46    1
    96    15    13    1
    97   126   123    1
    98   126   127    1
    99    14    13    1
   100    48    47    2
   101    56    55    2
   102    18    17    1
   103    18    21   am
   104   123   122    1
   105    58    57    1
   106    58    59    1
   107    17    16    1
   108    55    54    1
   109    40    39   ar
   110    47    46    1
   111    46    45    1
   112    39    38    1
   113    13    10    1
   114    26    25    1
   115     7     6    1
   116    21    22    1
   117    22    25    1
   118    22    23    1
   119    10     9    1
   120    10    11    1
   121    57    54    1
   122     5     6    1
   123     5     2    1
   124    24    23    2
   125     4     3    2
   126     8     6    1
   127    12    11    2
   128     9     3   am
   129    54    53    1
   130     3     2    1
   131    38    35    1
   132    37    36    2
   133     2     1    1
   134    36    35    1
   135    35    34    1
