@<TRIPOS>MOLECULE
tmp/6fmaA00.pdb
 164 154 0 0 0
SMALL
GASTEIGER

@<TRIPOS>ATOM
      1  N        -19.3120   22.7160   38.4680 N.3    21  ILE21      -0.1231
      2  CA       -19.0370   22.2390   39.8170 C.3    21  ILE21       0.1692
      3  C        -17.8360   22.9490   40.4350 C.2    21  ILE21       0.2593
      4  O        -17.8870   23.3540   41.6000 O.2    21  ILE21      -0.2718
      5  CB       -18.8440   20.7070   39.8580 C.3    21  ILE21       0.0266
      6  CG1      -20.1330   19.9820   39.4880 C.3    21  ILE21       0.0019
      7  CG2      -18.4260   20.2640   41.2620 C.3    21  ILE21       0.0020
      8  CD1      -20.0340   18.4780   39.6460 C.3    21  ILE21       0.0001
      9  N        -16.7550   23.1120   39.6850 N.am   22  GLY22      -0.1942
     10  CA       -15.6030   23.8170   40.2100 C.3    22  GLY22       0.2014
     11  C        -14.4190   23.7220   39.2730 C.2    22  GLY22       0.2639
     12  O        -14.4920   23.1380   38.1860 O.2    22  GLY22      -0.2714
     13  N        -13.3270   24.3440   39.7130 N.am   23  GLU23      -0.1963
     14  CA       -12.0360   24.2760   39.0410 C.3    23  GLU23       0.1733
     15  C        -11.1930   23.2330   39.7550 C.2    23  GLU23       0.2617
     16  O        -10.9030   23.3760   40.9490 O.2    23  GLU23      -0.2715
     17  CB       -11.3080   25.6230   39.0610 C.3    23  GLU23       0.0429
     18  CG       -12.0780   26.7780   38.4770 C.3    23  GLU23       0.1163
     19  CD       -12.4210   26.5610   37.0260 C.2    23  GLU23       0.3649
     20  OE1      -11.5730   25.9880   36.2990 O.co2  23  GLU23      -0.2457
     21  OE2      -13.5410   26.9590   36.6230 O.co2  23  GLU23      -0.2457
     22  N        -10.7970   22.1920   39.0320 N.am   24  GLY24      -0.1940
     23  CA        -9.9660   21.1510   39.5860 C.3    24  GLY24       0.2014
     24  C         -8.4970   21.3580   39.2660 C.2    24  GLY24       0.2639
     25  O         -8.0880   22.3450   38.6570 O.2    24  GLY24      -0.2714
     26  N         -7.6970   20.3800   39.7030 N.am   25  ALA25      -0.1963
     27  CA        -6.2820   20.3730   39.3620 C.3    25  ALA25       0.1728
     28  C         -6.0610   20.2440   37.8580 C.2    25  ALA25       0.2616
     29  O         -4.9750   20.5720   37.3750 O.2    25  ALA25      -0.2715
     30  CB        -5.5730   19.2370   40.0960 C.3    25  ALA25       0.0334
     31  N         -7.0570   19.7740   37.1070 N.am   26  TYR26      -0.1974
     32  CA        -6.9000   19.6140   35.6670 C.3    26  TYR26       0.1639
     33  C         -7.6340   20.6640   34.8420 C.2    26  TYR26       0.2290
     34  O         -7.2940   20.8480   33.6680 O.2    26  TYR26      -0.2864
     35  CB        -7.3670   18.2110   35.2300 C.3    26  TYR26       0.0560
     36  CG        -6.5170   17.0770   35.7880 C.ar   26  TYR26      -0.0198
     37  CD1       -6.7450   16.5780   37.0640 C.ar   26  TYR26      -0.0009
     38  CD2       -5.4850   16.5160   35.0360 C.ar   26  TYR26      -0.0009
     39  CE1       -5.9660   15.5540   37.5840 C.ar   26  TYR26       0.0417
     40  CE2       -4.7060   15.4900   35.5340 C.ar   26  TYR26       0.0417
     41  CZ        -4.9460   15.0130   36.8140 C.ar   26  TYR26       0.1957
     42  OH        -4.1810   13.9940   37.3260 O.3    26  TYR26      -0.2866
     43  N        -14.6350   21.2920   36.0750 N.3    29  VAL29      -0.1245
     44  CA       -15.4140   20.1060   36.4130 C.3    29  VAL29       0.1561
     45  C        -16.8830   20.4880   36.4260 C.2    29  VAL29       0.2260
     46  O        -17.2680   21.4720   37.0690 O.2    29  VAL29      -0.2867
     47  CB       -15.0000   19.5000   37.7650 C.3    29  VAL29       0.0252
     48  CG1      -15.8850   18.3070   38.0850 C.3    29  VAL29       0.0019
     49  CG2      -13.5330   19.0700   37.7250 C.3    29  VAL29       0.0019
     50  N        -20.2640   13.1540   36.6660 N.3    42  ALA42      -0.1245
     51  CA       -19.2330   14.1790   36.7020 C.3    42  ALA42       0.1562
     52  C        -18.4050   14.0960   35.4300 C.2    42  ALA42       0.2260
     53  O        -18.1240   13.0000   34.9380 O.2    42  ALA42      -0.2867
     54  CB       -18.3110   14.0110   37.9180 C.3    42  ALA42       0.0290
     55  N        -14.7960   15.9170   33.7840 N.3    44  LYS44      -0.1245
     56  CA       -13.6140   16.7520   33.9560 C.3    44  LYS44       0.1561
     57  C        -13.0210   17.0570   32.5870 C.2    44  LYS44       0.2260
     58  O        -12.6920   16.1360   31.8380 O.2    44  LYS44      -0.2867
     59  CB       -12.5420   16.0690   34.8110 C.3    44  LYS44       0.0271
     60  CG       -12.9900   15.4440   36.1220 C.3    44  LYS44       0.0035
     61  CD       -11.7480   15.0670   36.9790 C.3    44  LYS44       0.0206
     62  CE       -10.6290   14.4580   36.0990 C.3    44  LYS44       0.1093
     63  NZ        -9.4160   13.8980   36.8420 N.3    44  LYS44      -0.1314
     64  N        -12.0220    5.7580   42.3360 N.3    74  ILE74      -0.1245
     65  CA       -12.9430    6.2780   41.3280 C.3    74  ILE74       0.1561
     66  C        -12.6420    5.6070   39.9940 C.2    74  ILE74       0.2260
     67  O        -11.4810    5.3640   39.6280 O.2    74  ILE74      -0.2867
     68  CB       -12.8460    7.8130   41.2360 C.3    74  ILE74       0.0252
     69  CG1      -14.0180    8.3860   40.4340 C.3    74  ILE74       0.0019
     70  CG2      -11.4690    8.2440   40.6460 C.3    74  ILE74       0.0019
     71  CD1      -15.3680    8.2840   41.1440 C.3    74  ILE74       0.0001
     72  N        -17.0170   10.3610   35.0840 N.3    95  GLN95      -0.1231
     73  CA       -16.9140    9.5660   36.3030 C.3    95  GLN95       0.1698
     74  C        -18.2410    9.6270   37.0510 C.2    95  GLN95       0.2592
     75  O        -19.0750   10.5090   36.8030 O.2    95  GLN95      -0.2718
     76  CB       -15.7640   10.0680   37.1950 C.3    95  GLN95       0.0381
     77  CG       -14.4010    9.9770   36.5110 C.3    95  GLN95       0.0905
     78  CD       -13.2690   10.6280   37.2890 C.2    95  GLN95       0.2608
     79  OE1      -13.3170   11.8130   37.5780 O.2    95  GLN95      -0.2717
     80  NE2      -12.2410    9.8560   37.6150 N.am   95  GLN95      -0.0878
     81  N        -18.4330    8.6670   37.9590 N.am   96  ASP96      -0.1960
     82  CA       -19.5670    8.7190   38.8690 C.3    96  ASP96       0.1840
     83  C        -19.6430   10.0920   39.5200 C.2    96  ASP96       0.2622
     84  O        -18.6260   10.6500   39.9470 O.2    96  ASP96      -0.2715
     85  CB       -19.4240    7.6470   39.9480 C.3    96  ASP96       0.1450
     86  CG       -19.5800    6.2480   39.4060 C.2    96  ASP96       0.3671
     87  OD1      -20.0510    6.1080   38.2570 O.co2  96  ASP96      -0.2456
     88  OD2      -19.2360    5.2880   40.1390 O.co2  96  ASP96      -0.2456
     89  N        -20.8570   10.6230   39.6290 N.am   97  LEU97      -0.1963
     90  CA       -21.0590   11.8960   40.3170 C.3    97  LEU97       0.1728
     91  C        -21.0240   11.6620   41.8220 C.2    97  LEU97       0.2616
     92  O        -21.7900   10.8450   42.3420 O.2    97  LEU97      -0.2715
     93  CB       -22.3890   12.5250   39.9070 C.3    97  LEU97       0.0311
     94  CG       -22.7070   13.8940   40.5130 C.3    97  LEU97       0.0022
     95  CD1      -21.7060   14.9590   40.1090 C.3    97  LEU97       0.0001
     96  CD2      -24.1440   14.3410   40.1510 C.3    97  LEU97       0.0001
     97  N        -20.1400   12.3650   42.5250 N.am   98  MET98      -0.1977
     98  CA       -20.0300   12.2140   43.9640 C.3    98  MET98       0.1605
     99  C        -20.5120   13.4840   44.6580 C.2    98  MET98       0.2287
    100  O        -20.2050   14.5910   44.2170 O.2    98  MET98      -0.2864
    101  CB       -18.5790   11.8830   44.3390 C.3    98  MET98       0.0413
    102  CG       -18.0480   10.6660   43.5760 C.3    98  MET98       0.0598
    103  SD       -18.7720    9.0970   44.1460 S.3    98  MET98      -0.1393
    104  CE       -17.8050    8.7870   45.6060 C.3    98  MET98       0.0692
    105  N        -19.7200   15.0620   47.3890 N.3   100  THR100     -0.1203
    106  CA       -18.7830   15.9820   48.0280 C.3   100  THR100      0.1994
    107  C        -17.4030   15.3150   48.0760 C.2   100  THR100      0.2617
    108  O        -17.1830   14.2590   47.4750 O.2   100  THR100     -0.2717
    109  CB       -19.3240   16.3740   49.4190 C.3   100  THR100      0.1784
    110  OG1      -18.5320   17.4170   49.9930 O.3   100  THR100     -0.2211
    111  CG2      -19.3090   15.1900   50.3630 C.3   100  THR100      0.0376
    112  N        -16.4540   15.9580   48.7470 N.am  101  ASP101     -0.1973
    113  CA       -15.1650   15.3250   49.0320 C.3   101  ASP101      0.1709
    114  C        -14.8200   15.6290   50.4780 C.2   101  ASP101      0.2293
    115  O        -15.4800   16.4350   51.1270 O.2   101  ASP101     -0.2864
    116  CB       -14.0460   15.7800   48.0730 C.3   101  ASP101      0.1436
    117  CG       -13.7840   17.2710   48.1330 C.2   101  ASP101      0.3671
    118  OD1      -13.4840   17.7830   49.2170 O.co2 101  ASP101     -0.2456
    119  OD2      -13.8450   17.9310   47.0800 O.co2 101  ASP101     -0.2456
    120  N        -14.1760   19.3920   51.4920 N.3   104  LYS104     -0.1245
    121  CA       -15.3890   20.1890   51.6470 C.3   104  LYS104      0.1561
    122  C        -16.1700   19.7690   52.8770 C.2   104  LYS104      0.2260
    123  O        -16.7310   20.6080   53.5980 O.2   104  LYS104     -0.2867
    124  CB       -16.2700   20.0400   50.4020 C.3   104  LYS104      0.0271
    125  CG       -15.6130   20.5030   49.1370 C.3   104  LYS104      0.0035
    126  CD       -16.6140   20.6400   47.9770 C.3   104  LYS104      0.0206
    127  CE       -16.7960   19.3510   47.1990 C.3   104  LYS104      0.1093
    128  NZ       -17.5310   19.5720   45.8920 N.3   104  LYS104     -0.1314
    129  N         -9.0360   16.4260   49.7690 N.3   143  SER143     -0.1202
    130  CA        -9.7060   16.7930   48.5250 C.3   143  SER143      0.2020
    131  C         -9.5910   15.7030   47.4630 C.2   143  SER143      0.2618
    132  O        -10.2810   15.7970   46.4410 O.2   143  SER143     -0.2717
    133  CB        -9.1630   18.1310   47.9980 C.3   143  SER143      0.2103
    134  OG        -7.7940   18.0040   47.6570 O.3   143  SER143     -0.2182
    135  N         -8.7460   14.6830   47.6740 N.am  144  ASN144     -0.1974
    136  CA        -8.6520   13.5500   46.7580 C.3   144  ASN144      0.1688
    137  C         -9.4320   12.3410   47.2520 C.2   144  ASN144      0.2292
    138  O         -9.2050   11.2120   46.7820 O.2   144  ASN144     -0.2864
    139  CB        -7.1850   13.1940   46.4970 C.3   144  ASN144      0.1181
    140  CG        -6.5510   14.1720   45.5370 C.2   144  ASN144      0.2629
    141  OD1       -7.2690   14.8150   44.7270 O.2   144  ASN144     -0.2716
    142  ND2       -5.2260   14.3200   45.6050 N.am  144  ASN144     -0.0877
    143  N        -13.2830   11.3800   47.4190 N.3   146  LEU146     -0.1245
    144  CA       -14.6540   11.7200   47.0610 C.3   146  LEU146      0.1561
    145  C        -15.6470   10.8940   47.8660 C.2   146  LEU146      0.2260
    146  O        -15.3740    9.7500   48.2180 O.2   146  LEU146     -0.2867
    147  CB       -14.8760   11.4570   45.5730 C.3   146  LEU146      0.0270
    148  CG       -13.8540   12.1290   44.6350 C.3   146  LEU146      0.0019
    149  CD1      -14.0720   11.6880   43.1700 C.3   146  LEU146      0.0001
    150  CD2      -13.9330   13.6330   44.7630 C.3   146  LEU146      0.0001
    151  N         -9.2840    9.4570   44.4320 N.3   155  CYS155     -0.1221
    152  CA        -9.1620    9.9770   43.0740 C.3   155  CYS155      0.1808
    153  C         -7.8000   10.6400   42.8970 C.2   155  CYS155      0.2601
    154  O         -7.0070   10.7380   43.8230 O.2   155  CYS155     -0.2717
    155  CB       -10.2910   10.9690   42.7400 C.3   155  CYS155      0.0970
    156  SG       -10.2230   12.5030   43.6590 S.3   155  CYS155     -0.0800
    157  N         -7.5630   11.1060   41.6710 N.am  156  ASP156     -0.1973
    158  CA        -6.3710   11.8120   41.2130 C.3   156  ASP156      0.1709
    159  C         -5.0700   11.0340   41.3720 C.2   156  ASP156      0.2293
    160  O         -4.3480   11.1770   42.3680 O.2   156  ASP156     -0.2864
    161  CB        -6.1950   13.1500   41.8970 C.3   156  ASP156      0.1436
    162  CG        -5.1300   14.0080   41.1830 C.2   156  ASP156      0.3671
    163  OD1       -4.4950   13.5360   40.2080 O.co2 156  ASP156     -0.2456
    164  OD2       -4.9460   15.1680   41.5690 O.co2 156  ASP156     -0.2456
@<TRIPOS>BOND
     1    58    57    2
     2    57    56    1
     3    34    33    2
     4    55    56    1
     5    56    59    1
     6    59    60    1
     7    33    32    1
     8    53    52    2
     9    38    40   ar
    10    38    36   ar
    11    72    73    1
    12    35    32    1
    13    35    36    1
    14    52    51    1
    15    40    41   ar
    16    32    31    1
    17    36    37   ar
    18    43    44    1
    19    62    63    1
    20    62    61    1
    21    60    61    1
    22    20    19   ar
    23    73    74    1
    24    73    76    1
    25    44    45    1
    26    44    47    1
    27    45    46    2
    28    77    76    1
    29    77    78    1
    30    21    19   ar
    31    50    51    1
    32    51    54    1
    33    75    74    2
    34    41    42    1
    35    41    39   ar
    36    19    18    1
    37    74    81   am
    38    37    39   ar
    39    31    28   am
    40    78    79    2
    41    78    80   am
    42    29    28    2
    43    49    47    1
    44    47    48    1
    45    28    27    1
    46    81    82    1
    47    12    11    2
    48    87    86   ar
    49     1     2    1
    50    18    17    1
    51    25    24    2
    52    82    83    1
    53    82    85    1
    54    22    23    1
    55    22    15   am
    56    14    17    1
    57    14    13    1
    58    14    15    1
    59    24    23    1
    60    24    26   am
    61    11    13   am
    62    11    10    1
    63    27    26    1
    64    27    30    1
    65    86    85    1
    66    86    88   ar
    67     6     8    1
    68     6     5    1
    69    83    89   am
    70    83    84    2
    71    67    66    2
    72    89    90    1
    73     9    10    1
    74     9     3   am
    75    15    16    2
    76     2     5    1
    77     2     3    1
    78     5     7    1
    79    93    90    1
    80    93    94    1
    81    66    65    1
    82    95    94    1
    83    96    94    1
    84   163   162   ar
    85    90    91    1
    86    69    71    1
    87    69    68    1
    88     3     4    2
    89    70    68    1
    90   162   164   ar
    91   162   161    1
    92   158   159    1
    93   158   157    1
    94   158   161    1
    95    68    65    1
    96    65    64    1
    97   159   160    2
    98   157   153   am
    99    91    92    2
   100    91    97   am
   101    97    98    1
   102   155   152    1
   103   155   156    1
   104   153   152    1
   105   153   154    2
   106   152   151    1
   107   149   148    1
   108   102   103    1
   109   102   101    1
   110    98   101    1
   111    98    99    1
   112   103   104    1
   113   100    99    2
   114   148   150    1
   115   148   147    1
   116   141   140    2
   117   140   142   am
   118   140   139    1
   119   147   144    1
   120   128   127    1
   121   132   131    2
   122   139   136    1
   123   136   137    1
   124   136   135    1
   125   138   137    2
   126   144   143    1
   127   144   145    1
   128   119   117   ar
   129   127   126    1
   130   105   106    1
   131   131   135   am
   132   131   130    1
   133   108   107    2
   134   134   133    1
   135   145   146    2
   136   126   125    1
   137   133   130    1
   138   106   107    1
   139   106   109    1
   140   116   117    1
   141   116   113    1
   142   107   112   am
   143   117   118   ar
   144   130   129    1
   145   112   113    1
   146   113   114    1
   147   125   124    1
   148   109   110    1
   149   109   111    1
   150   124   121    1
   151   114   115    2
   152   120   121    1
   153   121   122    1
   154   122   123    2
