@<TRIPOS>MOLECULE
tmp/6fmdA01.pdb
 227 217 0 0 0
SMALL
GASTEIGER

@<TRIPOS>ATOM
      1  N         23.6920    6.4910    7.1360 N.3     8  TYR8       -0.1241
      2  CA        24.8040    7.3490    6.7220 C.3     8  TYR8        0.1605
      3  C         24.7090    8.7310    7.3530 C.2     8  TYR8        0.2264
      4  O         25.6930    9.2570    7.9010 O.2     8  TYR8       -0.2867
      5  CB        24.9170    7.4310    5.1830 C.3     8  TYR8        0.0534
      6  CG        25.7750    6.3590    4.5850 C.ar    8  TYR8       -0.0201
      7  CD1       25.3160    5.0450    4.4960 C.ar    8  TYR8       -0.0009
      8  CD2       27.0500    6.6410    4.1050 C.ar    8  TYR8       -0.0009
      9  CE1       26.0970    4.0490    3.9350 C.ar    8  TYR8        0.0417
     10  CE2       27.8480    5.6450    3.5460 C.ar    8  TYR8        0.0417
     11  CZ        27.3570    4.3540    3.4640 C.ar    8  TYR8        0.1957
     12  OH        28.1190    3.3690    2.9330 O.3     8  TYR8       -0.2866
     13  N         27.1600    7.0110   10.3190 N.3    12  LEU12      -0.1231
     14  CA        28.4450    6.8060    9.6830 C.3    12  LEU12       0.1693
     15  C         29.1320    8.1260    9.3840 C.2    12  LEU12       0.2591
     16  O         30.2750    8.3120    9.7680 O.2    12  LEU12      -0.2718
     17  CB        28.3060    5.9830    8.4110 C.3    12  LEU12       0.0284
     18  CG        29.5920    5.5810    7.6740 C.3    12  LEU12       0.0019
     19  CD1       30.6520    5.0390    8.6370 C.3    12  LEU12       0.0001
     20  CD2       29.2630    4.5460    6.6090 C.3    12  LEU12       0.0001
     21  N         28.4370    9.0480    8.7000 N.am   13  MET13      -0.1979
     22  CA        29.0960   10.2810    8.3350 C.3    13  MET13       0.1605
     23  C         29.5080   11.1450    9.5550 C.2    13  MET13       0.2287
     24  O         30.6570   11.5960    9.6070 O.2    13  MET13      -0.2864
     25  CB        28.2980   11.0720    7.2940 C.3    13  MET13       0.0413
     26  CG        28.0200   10.3200    5.9980 C.3    13  MET13       0.0598
     27  SD        29.5200    9.8900    5.1020 S.3    13  MET13      -0.1393
     28  CE        30.0480   11.5330    4.6200 C.3    13  MET13       0.0692
     29  N         32.6790    9.5130   10.9370 N.3    16  LEU16      -0.1231
     30  CA        33.8730    9.7900   10.1170 C.3    16  LEU16       0.1693
     31  C         34.2930   11.2480   10.2500 C.2    16  LEU16       0.2591
     32  O         35.4820   11.5490   10.3740 O.2    16  LEU16      -0.2718
     33  CB        33.6580    9.4360    8.6380 C.3    16  LEU16       0.0284
     34  CG        33.4750    7.9470    8.3060 C.3    16  LEU16       0.0019
     35  CD1       33.0310    7.7570    6.8580 C.3    16  LEU16       0.0001
     36  CD2       34.7430    7.1370    8.5760 C.3    16  LEU16       0.0001
     37  N         33.3360   12.1650   10.2340 N.am   17  GLN17      -0.1979
     38  CA        33.6980   13.5760   10.3320 C.3    17  GLN17       0.1601
     39  C         34.2350   13.9380   11.7200 C.2    17  GLN17       0.2287
     40  O         35.0450   14.8230   11.8250 O.2    17  GLN17      -0.2864
     41  CB        32.5310   14.4720    9.9480 C.3    17  GLN17       0.0394
     42  CG        32.1130   14.2810    8.5150 C.3    17  GLN17       0.0908
     43  CD        31.1950   15.3870    8.0310 C.2    17  GLN17       0.2608
     44  OE1       30.2890   15.8200    8.7520 O.2    17  GLN17      -0.2717
     45  NE2       31.4390   15.8700    6.8300 N.am   17  GLN17      -0.0878
     46  N         37.9950   12.4540   11.3170 N.3    20  LEU20      -0.1245
     47  CA        38.8600   12.9000   10.2380 C.3    20  LEU20       0.1561
     48  C         38.6030   14.3680    9.8830 C.2    20  LEU20       0.2260
     49  O         37.4450   14.7820    9.6840 O.2    20  LEU20      -0.2867
     50  CB        38.5900   12.0470    9.0020 C.3    20  LEU20       0.0270
     51  CG        38.9200   10.5840    9.1300 C.3    20  LEU20       0.0019
     52  CD1       38.2860    9.8330    7.9740 C.3    20  LEU20       0.0001
     53  CD2       40.4350   10.3950    9.1900 C.3    20  LEU20       0.0001
     54  N         38.4990   17.4550    7.2930 N.3    22  PRO22      -0.2116
     55  CA        37.8390   17.3610    5.9770 C.3    22  PRO22       0.1372
     56  C         38.7370   17.0030    4.7970 C.2    22  PRO22       0.2244
     57  O         38.2870   16.2630    3.9290 O.2    22  PRO22      -0.2868
     58  CB        37.1960   18.7400    5.7910 C.3    22  PRO22       0.0268
     59  CG        37.7870   19.6440    6.8420 C.3    22  PRO22       0.0207
     60  CD        38.2300   18.7520    7.9680 C.3    22  PRO22       0.0892
     61  N         39.2330   13.2950    5.1080 N.3    25  ALA25      -0.1231
     62  CA        37.9750   12.6110    4.7700 C.3    25  ALA25       0.1694
     63  C         37.7910   12.5970    3.2470 C.2    25  ALA25       0.2592
     64  O         37.3980   11.5960    2.6670 O.2    25  ALA25      -0.2718
     65  CB        36.7720   13.2600    5.4410 C.3    25  ALA25       0.0304
     66  N         38.0930   13.7300    2.6190 N.am   26  HIS26      -0.1976
     67  CA        38.0010   13.8730    1.1540 C.3    26  HIS26       0.1656
     68  C         38.8650   12.8170    0.4530 C.2    26  HIS26       0.2291
     69  O         38.3980   12.0770   -0.4260 O.2    26  HIS26      -0.2864
     70  CB        38.4150   15.2930    0.7660 C.3    26  HIS26       0.0771
     71  CG        38.2720   15.6080   -0.6860 C.ar   26  HIS26       0.0820
     72  ND1       38.7870   16.7620   -1.2390 N.ar   26  HIS26      -0.2267
     73  CD2       37.7060   14.9130   -1.7080 C.ar   26  HIS26       0.1154
     74  CE1       38.5500   16.7560   -2.5520 C.ar   26  HIS26       0.1986
     75  NE2       37.8980   15.6440   -2.8560 N.ar   26  HIS26      -0.2212
     76  N         39.9790    9.9580    1.7210 N.3    28  LEU28      -0.1231
     77  CA        39.4240    8.6420    1.9890 C.3    28  LEU28       0.1693
     78  C         38.2000    8.3780    1.1200 C.2    28  LEU28       0.2591
     79  O         38.0300    7.2710    0.5770 O.2    28  LEU28      -0.2718
     80  CB        39.0570    8.4930    3.4790 C.3    28  LEU28       0.0284
     81  CG        38.6290    7.1170    3.9630 C.3    28  LEU28       0.0019
     82  CD1       39.8450    6.1950    3.8890 C.3    28  LEU28       0.0001
     83  CD2       38.0820    7.2100    5.4000 C.3    28  LEU28       0.0001
     84  N         37.3620    9.4040    0.9680 N.am   29  ALA29      -0.1980
     85  CA        36.1730    9.2820    0.1120 C.3    29  ALA29       0.1597
     86  C         36.5240    8.9640   -1.3550 C.2    29  ALA29       0.2287
     87  O         35.8730    8.1140   -2.0070 O.2    29  ALA29      -0.2864
     88  CB        35.3440   10.5540    0.1800 C.3    29  ALA29       0.0319
     89  N         37.7690    5.2180   -1.3480 N.3    32  PHE32      -0.1227
     90  CA        36.6330    4.2810   -1.2620 C.3    32  PHE32       0.1736
     91  C         35.8560    4.2520   -2.5710 C.2    32  PHE32       0.2596
     92  O         35.4590    3.1890   -3.0610 O.2    32  PHE32      -0.2718
     93  CB        35.6580    4.6700   -0.1450 C.3    32  PHE32       0.0547
     94  CG        36.1400    4.4190    1.2690 C.ar   32  PHE32      -0.0202
     95  CD1       37.2300    3.6300    1.5550 C.ar   32  PHE32      -0.0042
     96  CD2       35.4360    5.0120    2.3450 C.ar   32  PHE32      -0.0042
     97  CE1       37.6120    3.3720    2.8810 C.ar   32  PHE32      -0.0003
     98  CE2       35.8130    4.7760    3.6770 C.ar   32  PHE32      -0.0003
     99  CZ        36.9160    3.9540    3.9440 C.ar   32  PHE32      -0.0000
    100  N         35.6200    5.4410   -3.1260 N.am   33  THR33      -0.1953
    101  CA        34.8210    5.5540   -4.3710 C.3    33  THR33       0.1897
    102  C         35.5430    4.8760   -5.5220 C.2    33  THR33       0.2313
    103  O         34.9260    4.1210   -6.2850 O.2    33  THR33      -0.2863
    104  CB        34.4650    7.0260   -4.6710 C.3    33  THR33       0.1794
    105  OG1       33.7190    7.5250   -3.5680 O.3    33  THR33      -0.2208
    106  CG2       33.5890    7.1510   -5.9230 C.3    33  THR33       0.0378
    107  N         33.7420    0.7770   -3.1480 N.3    37  LEU37      -0.1231
    108  CA        33.2770    0.4220   -1.7780 C.3    37  LEU37       0.1693
    109  C         32.1760    1.4060   -1.4240 C.2    37  LEU37       0.2592
    110  O         32.4120    2.4240   -0.7670 O.2    37  LEU37      -0.2718
    111  CB        34.4150    0.5040   -0.7610 C.3    37  LEU37       0.0284
    112  CG        35.5710   -0.4620   -0.9950 C.3    37  LEU37       0.0019
    113  CD1       36.6950   -0.2170    0.0120 C.3    37  LEU37       0.0001
    114  CD2       35.0820   -1.9050   -0.9300 C.3    37  LEU37       0.0001
    115  N         30.9780    1.0900   -1.9080 N.am   38  LEU38      -0.1966
    116  CA        29.8490    1.9970   -1.9000 C.3    38  LEU38       0.1713
    117  C         28.5910    1.2790   -1.4700 C.2    38  LEU38       0.2458
    118  O         28.4460    0.1100   -1.7480 O.2    38  LEU38      -0.2730
    119  CB        29.6210    2.5440   -3.3060 C.3    38  LEU38       0.0310
    120  CG        30.7430    3.4110   -3.8830 C.3    38  LEU38       0.0022
    121  CD1       30.5230    3.5870   -5.3640 C.3    38  LEU38       0.0001
    122  CD2       30.8300    4.7740   -3.2110 C.3    38  LEU38       0.0001
    123  N         27.6650    1.9880   -0.7880 N.am   39  PRO39      -0.2727
    124  CA        26.3480    1.3930   -0.5590 C.3    39  PRO39       0.1402
    125  C         25.6280    1.1610   -1.9000 C.2    39  PRO39       0.2269
    126  O         25.9350    1.8340   -2.8960 O.2    39  PRO39      -0.2865
    127  CB        25.6330    2.4380    0.3020 C.3    39  PRO39       0.0296
    128  CG        26.2500    3.7210   -0.0940 C.3    39  PRO39       0.0237
    129  CD        27.6950    3.4060   -0.4130 C.3    39  PRO39       0.0939
    130  N         35.6190   17.4100   -6.3870 N.3    68  PHE68      -0.1241
    131  CA        35.5760   16.1900   -5.6030 C.3    68  PHE68       0.1605
    132  C         36.6030   15.2240   -6.1430 C.2    68  PHE68       0.2264
    133  O         37.4950   14.7760   -5.4070 O.2    68  PHE68      -0.2867
    134  CB        34.1870   15.5690   -5.5380 C.3    68  PHE68       0.0534
    135  CG        34.1720   14.3090   -4.7380 C.ar   68  PHE68      -0.0203
    136  CD1       34.2340   14.3520   -3.3600 C.ar   68  PHE68      -0.0042
    137  CD2       34.2350   13.0750   -5.3760 C.ar   68  PHE68      -0.0042
    138  CE1       34.3300   13.1650   -2.6090 C.ar   68  PHE68      -0.0003
    139  CE2       34.2730   11.9040   -4.6430 C.ar   68  PHE68      -0.0003
    140  CZ        34.3590   11.9570   -3.2570 C.ar   68  PHE68      -0.0000
    141  N         27.7190    5.4670   -7.8340 N.3    81  MET81      -0.1245
    142  CA        26.9010    6.1510   -6.8080 C.3    81  MET81       0.1570
    143  C         25.5500    6.6040   -7.3150 C.2    81  MET81       0.2261
    144  O         24.6740    6.9310   -6.5280 O.2    81  MET81      -0.2867
    145  CB        27.5810    7.4160   -6.2910 C.3    81  MET81       0.0387
    146  CG        28.6330    7.2690   -5.2870 C.3    81  MET81       0.0595
    147  SD        28.9410    8.8410   -4.4460 S.3    81  MET81      -0.1393
    148  CE        30.6250    8.4280   -4.0170 C.3    81  MET81       0.0692
    149  N         40.8240   23.3150    4.1490 N.3   104  VAL104     -0.1245
    150  CA        39.4140   22.9370    4.0160 C.3   104  VAL104      0.1561
    151  C         38.8410   22.9500    5.4310 C.2   104  VAL104      0.2260
    152  O         39.5180   22.5060    6.3820 O.2   104  VAL104     -0.2867
    153  CB        39.2120   21.5220    3.4230 C.3   104  VAL104      0.0252
    154  CG1       37.7640   21.3190    3.0370 C.3   104  VAL104      0.0019
    155  CG2       40.1190   21.2570    2.2440 C.3   104  VAL104      0.0019
    156  N         35.0110   22.6120    7.7830 N.3   106  ARG106     -0.1245
    157  CA        33.5510   22.3550    7.8450 C.3   106  ARG106      0.1563
    158  C         32.8650   23.3790    8.7110 C.2   106  ARG106      0.2260
    159  O         33.4330   23.7920    9.7610 O.2   106  ARG106     -0.2867
    160  CB        33.2520   20.9780    8.4290 C.3   106  ARG106      0.0307
    161  CG        33.9910   19.8700    7.7480 C.3   106  ARG106      0.0489
    162  CD        33.4380   18.5470    8.1900 C.3   106  ARG106      0.2205
    163  NE        34.1170   17.3930    7.6520 N.pl3 106  ARG106     -0.0865
    164  CZ        34.9710   16.6230    8.2930 C.cat 106  ARG106      0.5346
    165  NH1       35.3780   16.9000    9.5240 N.pl3 106  ARG106      0.1354
    166  NH2       35.4310   15.5520    7.6850 N.pl3 106  ARG106      0.1354
    167  N         30.7380   24.2860    3.7890 N.3   113  VAL113     -0.1245
    168  CA        32.1850   24.1000    3.7880 C.3   113  VAL113      0.1561
    169  C         32.8280   25.3930    3.3010 C.2   113  VAL113      0.2260
    170  O         32.2400   26.1230    2.4900 O.2   113  VAL113     -0.2867
    171  CB        32.5810   22.8900    2.8990 C.3   113  VAL113      0.0252
    172  CG1       34.0670   22.7850    2.6560 C.3   113  VAL113      0.0019
    173  CG2       32.0990   21.5930    3.5300 C.3   113  VAL113      0.0019
    174  N         36.5580   26.1950    1.4920 N.3   115  ASN115     -0.1240
    175  CA        37.8340   25.6310    1.0370 C.3   115  ASN115      0.1653
    176  C         38.7130   26.6780    0.3500 C.2   115  ASN115      0.2266
    177  O         38.1950   27.5920   -0.3050 O.2   115  ASN115     -0.2867
    178  CB        37.6060   24.4400    0.0880 C.3   115  ASN115      0.1155
    179  CG        37.3670   24.8880   -1.3360 C.2   115  ASN115      0.2627
    180  OD1       38.3500   25.0460   -2.0890 O.2   115  ASN115     -0.2716
    181  ND2       36.0910   25.1500   -1.7000 N.am  115  ASN115     -0.0877
    182  N         41.6720   25.2220   -1.3920 N.3   117  TYR117     -0.1241
    183  CA        42.6160   24.2340   -1.8870 C.3   117  TYR117      0.1605
    184  C         43.6910   24.8750   -2.7490 C.2   117  TYR117      0.2264
    185  O         44.8670   24.5170   -2.6420 O.2   117  TYR117     -0.2867
    186  CB        41.9370   23.1200   -2.6660 C.3   117  TYR117      0.0534
    187  CG        41.6190   21.8640   -1.9200 C.ar  117  TYR117     -0.0201
    188  CD1       42.6320   21.0840   -1.3640 C.ar  117  TYR117     -0.0009
    189  CD2       40.3290   21.3800   -1.8510 C.ar  117  TYR117     -0.0009
    190  CE1       42.3370   19.8980   -0.7280 C.ar  117  TYR117      0.0417
    191  CE2       40.0410   20.1660   -1.2530 C.ar  117  TYR117      0.0417
    192  CZ        41.0510   19.4360   -0.6980 C.ar  117  TYR117      0.1957
    193  OH        40.8090   18.2310   -0.1090 O.3   117  TYR117     -0.2866
    194  N         27.9750   18.8270   -4.4280 N.3   317  TYR317     -0.1241
    195  CA        29.2240   18.3900   -3.8210 C.3   317  TYR317      0.1605
    196  C         29.0760   18.3820   -2.2850 C.2   317  TYR317      0.2264
    197  O         29.0810   17.3120   -1.6630 O.2   317  TYR317     -0.2867
    198  CB        30.3680   19.2770   -4.3030 C.3   317  TYR317      0.0534
    199  CG        31.7950   18.9350   -3.8820 C.ar  317  TYR317     -0.0201
    200  CD1       32.0920   18.0700   -2.8490 C.ar  317  TYR317     -0.0009
    201  CD2       32.8340   19.5800   -4.4890 C.ar  317  TYR317     -0.0009
    202  CE1       33.4170   17.8420   -2.4680 C.ar  317  TYR317      0.0417
    203  CE2       34.1320   19.3830   -4.1190 C.ar  317  TYR317      0.0417
    204  CZ        34.4250   18.5060   -3.0930 C.ar  317  TYR317      0.1957
    205  OH        35.7420   18.2260   -2.7490 O.3   317  TYR317     -0.2866
    206  N         27.1110   15.6860   -0.4600 N.3   320  LEU320     -0.1231
    207  CA        27.7630   14.3820   -0.3990 C.3   320  LEU320      0.1693
    208  C         28.6620   14.2700    0.8450 C.2   320  LEU320      0.2592
    209  O         28.7270   13.2160    1.4920 O.2   320  LEU320     -0.2718
    210  CB        28.5920   14.1310   -1.6680 C.3   320  LEU320      0.0284
    211  CG        29.4090   12.8360   -1.7300 C.3   320  LEU320      0.0019
    212  CD1       28.4800   11.6420   -1.7350 C.3   320  LEU320      0.0001
    213  CD2       30.3300   12.8410   -2.9350 C.3   320  LEU320      0.0001
    214  N         29.3230   15.3660    1.1920 N.am  321  THR321     -0.1953
    215  CA        30.2280   15.3700    2.3180 C.3   321  THR321      0.1897
    216  C         29.5220   15.1950    3.6330 C.2   321  THR321      0.2313
    217  O         30.1300   14.6370    4.5400 O.2   321  THR321     -0.2863
    218  CB        31.1570   16.6090    2.3900 C.3   321  THR321      0.1794
    219  OG1       30.4520   17.7880    2.8440 O.3   321  THR321     -0.2208
    220  CG2       31.8140   16.8890    1.0260 C.3   321  THR321      0.0378
    221  N         27.1550    8.9270    0.1860 N.3   325  PRO325     -0.2116
    222  CA        26.6870    8.4910   -1.1340 C.3   325  PRO325      0.1372
    223  C         25.1860    8.3280   -1.2940 C.2   325  PRO325      0.2244
    224  O         24.6700    8.5920   -2.3900 O.2   325  PRO325     -0.2868
    225  CB        27.4380    7.1890   -1.3610 C.3   325  PRO325      0.0268
    226  CG        28.6850    7.3630   -0.6160 C.3   325  PRO325      0.0207
    227  CD        28.3240    8.1500    0.6030 C.3   325  PRO325      0.0892
@<TRIPOS>BOND
     1   141   142    1
     2   143   142    1
     3   143   144    2
     4   142   145    1
     5   130   131    1
     6   145   146    1
     7   103   102    2
     8   132   131    1
     9   132   133    2
    10   106   104    1
    11   131   134    1
    12   134   135    1
    13   102   101    1
    14   137   135   ar
    15   137   139   ar
    16   121   120    1
    17   146   147    1
    18   135   136   ar
    19   104   101    1
    20   104   105    1
    21   139   140   ar
    22   201   203   ar
    23   201   199   ar
    24   147   148    1
    25   194   195    1
    26   101   100    1
    27   198   199    1
    28   198   195    1
    29   203   204   ar
    30   120   119    1
    31   120   122    1
    32   199   200   ar
    33   195   196    1
    34   136   138   ar
    35   119   116    1
    36   140   138   ar
    37   107   108    1
    38   100    91   am
    39   204   205    1
    40   204   202   ar
    41    92    91    2
    42   213   211    1
    43   126   125    2
    44    75    74   ar
    45    75    73   ar
    46   200   202   ar
    47   184   185    2
    48   184   183    1
    49   186   187    1
    50   186   183    1
    51    91    90    1
    52    74    72   ar
    53   224   223    2
    54   196   197    2
    55   180   179    2
    56    87    86    2
    57   187   189   ar
    58   187   188   ar
    59   115   116    1
    60   115   109   am
    61   125   124    1
    62   116   117    1
    63   183   182    1
    64   189   191   ar
    65   108   109    1
    66   108   111    1
    67   118   117    2
    68   212   211    1
    69   211   210    1
    70    73    71   ar
    71   181   179   am
    72   210   207    1
    73   117   123   am
    74   109   110    2
    75   188   190   ar
    76   225   222    1
    77   225   226    1
    78    86    85    1
    79    89    90    1
    80   179   178    1
    81   223   222    1
    82    90    93    1
    83   191   192   ar
    84    72    71   ar
    85   222   221    1
    86   112   114    1
    87   112   111    1
    88   112   113    1
    89   123   124    1
    90   123   129    1
    91   190   192   ar
    92   192   193    1
    93    71    70    1
    94   226   227    1
    95   124   127    1
    96   206   207    1
    97    69    68    2
    98   129   128    1
    99   207   208    1
   100   177   176    2
   101    93    94    1
   102   128   127    1
   103   178   175    1
   104    85    88    1
   105    85    84    1
   106   221   227    1
   107   176   175    1
   108    68    67    1
   109    79    78    2
   110    70    67    1
   111   208   214   am
   112   208   209    2
   113    84    78   am
   114   220   218    1
   115   175   174    1
   116    78    77    1
   117    67    66    1
   118   214   215    1
   119    94    95   ar
   120    94    96   ar
   121    95    97   ar
   122    76    77    1
   123    77    80    1
   124   155   153    1
   125   215   218    1
   126   215   216    1
   127    96    98   ar
   128   218   219    1
   129   170   169    2
   130    66    63   am
   131   172   171    1
   132    64    63    2
   133    97    99   ar
   134   171   173    1
   135   171   168    1
   136    12    11    1
   137   154   153    1
   138    63    62    1
   139   169   168    1
   140   153   150    1
   141    11    10   ar
   142    11     9   ar
   143    80    81    1
   144    10     8   ar
   145   216   217    2
   146    98    99   ar
   147   168   167    1
   148    82    81    1
   149    57    56    2
   150     9     7   ar
   151    81    83    1
   152   150   149    1
   153   150   151    1
   154     8     6   ar
   155     7     6   ar
   156     6     5    1
   157    28    27    1
   158    62    61    1
   159    62    65    1
   160    56    55    1
   161    27    26    1
   162     5     2    1
   163   151   152    2
   164    58    55    1
   165    58    59    1
   166    55    54    1
   167    26    25    1
   168    20    18    1
   169     2     1    1
   170     2     3    1
   171    45    43   am
   172    59    60    1
   173    35    34    1
   174    54    60    1
   175    25    22    1
   176     3     4    2
   177   163   162    1
   178   163   164    2
   179    18    17    1
   180    18    19    1
   181   166   164    1
   182   161   162    1
   183   161   160    1
   184   156   157    1
   185   157   160    1
   186   157   158    1
   187    52    51    1
   188    43    42    1
   189    43    44    2
   190   164   165    1
   191    34    36    1
   192    34    33    1
   193    22    21    1
   194    22    23    1
   195    17    14    1
   196    42    41    1
   197    33    30    1
   198    21    15   am
   199   158   159    2
   200    50    51    1
   201    50    47    1
   202    51    53    1
   203    15    14    1
   204    15    16    2
   205    23    24    2
   206    14    13    1
   207    49    48    2
   208    48    47    1
   209    41    38    1
   210    30    31    1
   211    30    29    1
   212    37    31   am
   213    37    38    1
   214    47    46    1
   215    31    32    2
   216    38    39    1
   217    39    40    2
