@<TRIPOS>MOLECULE
tmp/6fmdA06.pdb
 75 71 0 0 0
SMALL
GASTEIGER

@<TRIPOS>ATOM
      1  N         17.5360   13.8950  -19.7430 N.3    51  VAL51      -0.1231
      2  CA        17.6940   15.2110  -20.3630 C.3    51  VAL51       0.1692
      3  C         18.6320   15.0890  -21.5430 C.2    51  VAL51       0.2592
      4  O         19.6850   14.4660  -21.4340 O.2    51  VAL51      -0.2718
      5  CB        18.2960   16.2110  -19.3570 C.3    51  VAL51       0.0266
      6  CG1       18.4990   17.5590  -19.9950 C.3    51  VAL51       0.0020
      7  CG2       17.3830   16.3240  -18.1200 C.3    51  VAL51       0.0020
      8  N         18.2530   15.7170  -22.6460 N.am   52  ARG52      -0.1966
      9  CA        19.0980   15.8230  -23.8410 C.3    52  ARG52       0.1729
     10  C         19.5450   17.2710  -23.9900 C.2    52  ARG52       0.2616
     11  O         18.7230   18.1520  -24.2610 O.2    52  ARG52      -0.2715
     12  CB        18.3290   15.3410  -25.0910 C.3    52  ARG52       0.0348
     13  CG        18.0750   13.8550  -25.0290 C.3    52  ARG52       0.0492
     14  CD        17.3990   13.3200  -26.2860 C.3    52  ARG52       0.2205
     15  NE        17.0840   11.8950  -26.1590 N.pl3  52  ARG52      -0.0865
     16  CZ        17.8770   10.8800  -26.5350 C.cat  52  ARG52       0.5346
     17  NH1       19.0830   11.0930  -27.0760 N.pl3  52  ARG52       0.1354
     18  NH2       17.4600    9.6220  -26.3620 N.pl3  52  ARG52       0.1354
     19  N         20.8250   17.5140  -23.7550 N.am   53  VAL53      -0.1977
     20  CA        21.3980   18.8490  -23.8130 C.3    53  VAL53       0.1596
     21  C         22.9000   18.7310  -24.0610 C.2    53  VAL53       0.2287
     22  O         23.4730   17.6550  -23.8270 O.2    53  VAL53      -0.2864
     23  CB        21.0550   19.5900  -22.4770 C.3    53  VAL53       0.0276
     24  CG1       21.7540   18.9800  -21.2810 C.3    53  VAL53       0.0022
     25  CG2       21.3010   21.0650  -22.5700 C.3    53  VAL53       0.0022
     26  N         17.0060   32.0620  -22.3740 N.3   287  GLY287     -0.1210
     27  CA        16.7930   30.6400  -22.2750 C.3   287  GLY287      0.1956
     28  C         17.4400   29.8030  -23.3450 C.2   287  GLY287      0.2612
     29  O         17.1460   28.6230  -23.4320 O.2   287  GLY287     -0.2717
     30  N         18.3300   30.3770  -24.1310 N.am  288  ARG288     -0.1965
     31  CA        18.9180   29.6710  -25.2750 C.3   288  ARG288      0.1729
     32  C         20.2700   28.9980  -24.9620 C.2   288  ARG288      0.2616
     33  O         20.7880   28.3010  -25.8010 O.2   288  ARG288     -0.2715
     34  CB        19.1090   30.6470  -26.4460 C.3   288  ARG288      0.0348
     35  CG        17.8300   31.3100  -26.9310 C.3   288  ARG288      0.0492
     36  CD        18.0610   32.0110  -28.2710 C.3   288  ARG288      0.2205
     37  NE        17.0450   33.0450  -28.5540 N.pl3 288  ARG288     -0.0865
     38  CZ        17.2140   34.3780  -28.4350 C.cat 288  ARG288      0.5346
     39  NH1       18.3860   34.9330  -28.0320 N.pl3 288  ARG288      0.1354
     40  NH2       16.1900   35.1870  -28.7180 N.pl3 288  ARG288      0.1354
     41  N         20.8190   29.2190  -23.7560 N.am  289  VAL289     -0.1964
     42  CA        22.1270   28.7030  -23.3590 C.3   289  VAL289      0.1712
     43  C         21.9090   27.7400  -22.1710 C.2   289  VAL289      0.2458
     44  O         21.4660   28.1600  -21.1030 O.2   289  VAL289     -0.2730
     45  CB        23.0590   29.8650  -22.9690 C.3   289  VAL289      0.0289
     46  CG1       24.4010   29.3820  -22.4850 C.3   289  VAL289      0.0023
     47  CG2       23.3100   30.7530  -24.1840 C.3   289  VAL289      0.0023
     48  N         22.1960   26.4700  -22.3610 N.am  290  PRO290     -0.2727
     49  CA        22.0140   25.5180  -21.2690 C.3   290  PRO290      0.1402
     50  C         22.8220   25.9000  -20.0340 C.2   290  PRO290      0.2269
     51  O         23.9740   26.3250  -20.1320 O.2   290  PRO290     -0.2865
     52  CB        22.5440   24.2240  -21.8460 C.3   290  PRO290      0.0296
     53  CG        22.4160   24.3770  -23.3320 C.3   290  PRO290      0.0237
     54  CD        22.5460   25.8120  -23.6480 C.3   290  PRO290      0.0939
     55  N         19.1960   23.1740  -16.8270 N.3   312  SER312     -0.1217
     56  CA        18.9100   21.8950  -17.5060 C.3   312  SER312      0.1889
     57  C         19.4100   20.6790  -16.7440 C.2   312  SER312      0.2288
     58  O         18.8730   19.5680  -16.8980 O.2   312  SER312     -0.2866
     59  CB        19.5600   21.9150  -18.9130 C.3   312  SER312      0.2089
     60  OG        18.8730   22.7940  -19.7750 O.3   312  SER312     -0.2183
     61  N         12.6200   17.8280  -18.4720 N.3   348  THR348     -0.1218
     62  CA        12.6630   18.7290  -19.6130 C.3   348  THR348      0.1862
     63  C         11.5480   19.7950  -19.5720 C.2   348  THR348      0.2287
     64  O         11.7920   20.9590  -19.8330 O.2   348  THR348     -0.2866
     65  CB        12.6370   17.9120  -20.9220 C.3   348  THR348      0.1770
     66  OG1       13.7860   17.0620  -20.9170 O.3   348  THR348     -0.2211
     67  CG2       12.7020   18.8170  -22.1080 C.3   348  THR348      0.0375
     68  N         12.2550   22.7960  -17.1080 N.3   351  ILE351     -0.1245
     69  CA        13.3930   23.7040  -17.2660 C.3   351  ILE351      0.1561
     70  C         12.9180   25.1210  -17.5890 C.2   351  ILE351      0.2260
     71  O         12.2220   25.3440  -18.5830 O.2   351  ILE351     -0.2867
     72  CB        14.3520   23.2230  -18.3540 C.3   351  ILE351      0.0252
     73  CG1       14.9630   21.8300  -17.9980 C.3   351  ILE351      0.0019
     74  CG2       15.4550   24.2490  -18.5990 C.3   351  ILE351      0.0019
     75  CD1       15.6920   21.1900  -19.1660 C.3   351  ILE351      0.0001
@<TRIPOS>BOND
     1    40    38    1
     2    37    38    2
     3    37    36    1
     4    38    39    1
     5    36    35    1
     6    17    16    1
     7    35    34    1
     8    16    18    1
     9    16    15    2
    10    34    31    1
    11    14    15    1
    12    14    13    1
    13    33    32    2
    14    31    32    1
    15    31    30    1
    16    12    13    1
    17    12     9    1
    18    32    41   am
    19    11    10    2
    20    47    45    1
    21    30    28   am
    22    21    22    2
    23    21    20    1
    24    10     9    1
    25    10    19   am
    26     9     8    1
    27    20    19    1
    28    20    23    1
    29    41    42    1
    30    54    53    1
    31    54    48    1
    32    29    28    2
    33    42    45    1
    34    42    43    1
    35    28    27    1
    36    53    52    1
    37    45    46    1
    38     8     3   am
    39    25    23    1
    40    23    24    1
    41    26    27    1
    42    48    43   am
    43    48    49    1
    44    43    44    2
    45    67    65    1
    46    52    49    1
    47     3     4    2
    48     3     2    1
    49    49    50    1
    50    65    66    1
    51    65    62    1
    52     2     1    1
    53     2     5    1
    54    51    50    2
    55     6     5    1
    56    64    63    2
    57    60    59    1
    58    62    63    1
    59    62    61    1
    60     5     7    1
    61    75    73    1
    62    59    56    1
    63    74    72    1
    64    71    70    2
    65    72    73    1
    66    72    69    1
    67    70    69    1
    68    56    55    1
    69    56    57    1
    70    69    68    1
    71    58    57    2
