@<TRIPOS>MOLECULE
tmp/6fmiC00.pdb
 180 180 0 0 0
SMALL
GASTEIGER

@<TRIPOS>ATOM
      1  N          0.5540   60.5390  408.1110 N.3     6  ASN6       -0.1240
      2  CA         0.0640   59.1580  408.1530 C.3     6  ASN6        0.1653
      3  C         -1.4690   59.1410  408.1430 C.2     6  ASN6        0.2266
      4  O         -2.1140   58.9750  409.1780 O.2     6  ASN6       -0.2867
      5  CB         0.6420   58.4330  409.3840 C.3     6  ASN6        0.1155
      6  CG         0.3940   56.9270  409.3750 C.2     6  ASN6        0.2627
      7  OD1       -0.0250   56.3370  408.3770 O.2     6  ASN6       -0.2716
      8  ND2        0.6660   56.2960  410.5050 N.am    6  ASN6       -0.0877
      9  N         -3.5910   57.1310  406.0390 N.3     8  ARG8       -0.1245
     10  CA        -4.2120   55.8410  405.6940 C.3     8  ARG8        0.1563
     11  C         -5.4790   56.0060  404.8370 C.2     8  ARG8        0.2260
     12  O         -6.4230   55.2290  404.9430 O.2     8  ARG8       -0.2867
     13  CB        -4.4560   54.9780  406.9490 C.3     8  ARG8        0.0307
     14  CG        -3.1800   54.3830  407.5230 C.3     8  ARG8        0.0489
     15  CD        -3.3110   53.9840  408.9820 C.3     8  ARG8        0.2205
     16  NE        -3.1830   55.1440  409.8700 N.pl3   8  ARG8       -0.0865
     17  CZ        -4.1860   55.8290  410.4360 C.cat   8  ARG8        0.5346
     18  NH1       -5.4710   55.5030  410.2470 N.pl3   8  ARG8        0.1354
     19  NH2       -3.8950   56.8660  411.2220 N.pl3   8  ARG8        0.1354
     20  N          2.7960   58.3320  387.8630 N.3    15  PHE15      -0.1241
     21  CA         4.1240   58.9400  387.6960 C.3    15  PHE15       0.1605
     22  C          4.4570   58.9180  386.2130 C.2    15  PHE15       0.2264
     23  O          4.7540   57.8560  385.6740 O.2    15  PHE15      -0.2867
     24  CB         5.2110   58.1440  388.4410 C.3    15  PHE15       0.0534
     25  CG         5.1940   58.2760  389.9510 C.ar   15  PHE15      -0.0203
     26  CD1        4.2240   59.0240  390.6380 C.ar   15  PHE15      -0.0042
     27  CD2        6.1540   57.5970  390.6990 C.ar   15  PHE15      -0.0042
     28  CE1        4.2450   59.1100  392.0250 C.ar   15  PHE15      -0.0003
     29  CE2        6.1710   57.6740  392.0830 C.ar   15  PHE15      -0.0003
     30  CZ         5.2170   58.4300  392.7480 C.ar   15  PHE15      -0.0000
     31  N         12.1180   58.4840  391.8860 N.3    24  PRO24      -0.2116
     32  CA        11.1320   59.0340  392.8150 C.3    24  PRO24       0.1372
     33  C         11.6300   58.8860  394.2420 C.2    24  PRO24       0.2244
     34  O         12.2030   57.8510  394.5710 O.2    24  PRO24      -0.2868
     35  CB         9.8820   58.1640  392.5880 C.3    24  PRO24       0.0268
     36  CG        10.1520   57.3540  391.3730 C.3    24  PRO24       0.0207
     37  CD        11.6420   57.2240  391.2890 C.3    24  PRO24       0.0892
     38  N         10.2100   59.3380  398.2020 N.3    26  TRP26      -0.1241
     39  CA         9.1720   59.5600  399.2200 C.3    26  TRP26       0.1605
     40  C          9.8100   60.0410  400.5250 C.2    26  TRP26       0.2264
     41  O         10.8010   59.4730  400.9840 O.2    26  TRP26      -0.2867
     42  CB         8.3810   58.2650  399.4720 C.3    26  TRP26       0.0550
     43  CG         7.3660   58.3410  400.5860 C.ar   26  TRP26       0.0003
     44  CD1        6.3330   59.2280  400.7020 C.ar   26  TRP26       0.0946
     45  CD2        7.2860   57.4820  401.7280 C.ar   26  TRP26       0.0152
     46  NE1        5.6220   58.9810  401.8530 N.ar   26  TRP26      -0.2442
     47  CE2        6.1840   57.9140  402.5000 C.ar   26  TRP26       0.0810
     48  CE3        8.0430   56.3900  402.1790 C.ar   26  TRP26       0.0012
     49  CZ2        5.8200   57.2930  403.6950 C.ar   26  TRP26       0.0191
     50  CZ3        7.6800   55.7720  403.3700 C.ar   26  TRP26       0.0001
     51  CH2        6.5800   56.2270  404.1140 C.ar   26  TRP26       0.0015
     52  N          7.6940   59.0700  407.3900 N.3    29  PHE29      -0.1241
     53  CA         7.0750   59.6720  408.5780 C.3    29  PHE29       0.1605
     54  C          8.0460   60.3480  409.5560 C.2    29  PHE29       0.2264
     55  O          7.5940   61.0530  410.4540 O.2    29  PHE29      -0.2867
     56  CB         6.2110   58.6400  409.3090 C.3    29  PHE29       0.0534
     57  CG         5.1240   58.0440  408.4520 C.ar   29  PHE29      -0.0203
     58  CD1        4.1910   58.8660  407.8210 C.ar   29  PHE29      -0.0042
     59  CD2        5.0330   56.6660  408.2670 C.ar   29  PHE29      -0.0042
     60  CE1        3.1920   58.3290  407.0280 C.ar   29  PHE29      -0.0003
     61  CE2        4.0310   56.1220  407.4760 C.ar   29  PHE29      -0.0003
     62  CZ         3.1100   56.9560  406.8540 C.ar   29  PHE29      -0.0000
     63  N         13.1980   58.2180  401.3510 N.3    34  GLN34      -0.1245
     64  CA        13.2890   56.8310  400.9120 C.3    34  GLN34       0.1566
     65  C         13.2660   56.7950  399.3830 C.2    34  GLN34       0.2260
     66  O         12.3310   57.3220  398.7780 O.2    34  GLN34      -0.2867
     67  CB        12.1230   56.0110  401.4670 C.3    34  GLN34       0.0367
     68  CG        12.2890   54.5120  401.2550 C.3    34  GLN34       0.0905
     69  CD        11.0600   53.7190  401.6360 C.2    34  GLN34       0.2608
     70  OE1       10.3540   54.0590  402.5870 O.2    34  GLN34      -0.2717
     71  NE2       10.8000   52.6460  400.8990 N.am   34  GLN34      -0.0878
     72  N         12.8130   55.0330  395.6190 N.3    36  TYR36      -0.1228
     73  CA        11.8890   54.0660  394.9990 C.3    36  TYR36       0.1721
     74  C         12.4200   53.6390  393.6200 C.2    36  TYR36       0.2437
     75  O         13.4320   54.1950  393.1560 O.2    36  TYR36      -0.2733
     76  CB        10.4900   54.6950  394.8950 C.3    36  TYR36       0.0547
     77  CG         9.6470   54.4420  396.1200 C.ar   36  TYR36      -0.0200
     78  CD1        9.9430   55.0720  397.3220 C.ar   36  TYR36      -0.0009
     79  CD2        8.5660   53.5560  396.0870 C.ar   36  TYR36      -0.0009
     80  CE1        9.1890   54.8370  398.4600 C.ar   36  TYR36       0.0417
     81  CE2        7.8000   53.3140  397.2220 C.ar   36  TYR36       0.0417
     82  CZ         8.1200   53.9580  398.4090 C.ar   36  TYR36       0.1957
     83  OH         7.3870   53.7440  399.5480 O.3    36  TYR36      -0.2866
     84  N         11.7630   52.6410  392.9700 N.am   37  PRO37      -0.2729
     85  CA        12.2740   52.1540  391.6820 C.3    37  PRO37       0.1401
     86  C         12.2590   53.2210  390.5840 C.2    37  PRO37       0.2269
     87  O         11.3420   54.0460  390.5380 O.2    37  PRO37      -0.2865
     88  CB        11.3270   51.0010  391.3380 C.3    37  PRO37       0.0296
     89  CG        10.7500   50.5730  392.6350 C.3    37  PRO37       0.0237
     90  CD        10.6090   51.8360  393.4190 C.3    37  PRO37       0.0939
     91  N         12.3640   55.2090  386.7710 N.3    39  LEU39      -0.1245
     92  CA        11.5290   55.2640  385.5710 C.3    39  LEU39       0.1561
     93  C         12.3620   55.7140  384.3620 C.2    39  LEU39       0.2260
     94  O         12.8920   56.8300  384.3600 O.2    39  LEU39      -0.2867
     95  CB        10.3680   56.2390  385.7670 C.3    39  LEU39       0.0270
     96  CG         9.2650   55.7760  386.7230 C.3    39  LEU39       0.0019
     97  CD1        9.3300   56.5400  388.0320 C.3    39  LEU39       0.0001
     98  CD2        7.8960   55.9630  386.0910 C.3    39  LEU39       0.0001
     99  N          4.0630   54.8470  385.0500 N.3    45  ARG45      -0.1231
    100  CA         3.5980   53.7630  385.9250 C.3    45  ARG45       0.1694
    101  C          2.3950   54.2670  386.7130 C.2    45  ARG45       0.2592
    102  O          2.3730   55.4300  387.1160 O.2    45  ARG45      -0.2718
    103  CB         4.6930   53.3720  386.9220 C.3    45  ARG45       0.0321
    104  CG         6.0760   53.1100  386.3350 C.3    45  ARG45       0.0489
    105  CD         6.3090   51.6640  385.9360 C.3    45  ARG45       0.2205
    106  NE         7.3150   51.0310  386.7940 N.pl3  45  ARG45      -0.0865
    107  CZ         8.6410   51.1150  386.6360 C.cat  45  ARG45       0.5346
    108  NH1        9.1910   51.8150  385.6400 N.pl3  45  ARG45       0.1354
    109  NH2        9.4380   50.4870  387.4950 N.pl3  45  ARG45       0.1354
    110  N          1.3980   53.4070  386.9230 N.am   46  ARG46      -0.1966
    111  CA         0.3370   53.6740  387.8990 C.3    46  ARG46       0.1729
    112  C          0.7580   53.0820  389.2430 C.2    46  ARG46       0.2616
    113  O          1.1970   51.9320  389.3000 O.2    46  ARG46      -0.2715
    114  CB        -0.9990   53.0830  387.4620 C.3    46  ARG46       0.0348
    115  CG        -2.1760   53.6110  388.2760 C.3    46  ARG46       0.0492
    116  CD        -3.5060   53.1380  387.7180 C.3    46  ARG46       0.2205
    117  NE        -3.6650   51.6990  387.9220 N.pl3  46  ARG46      -0.0865
    118  CZ        -4.3790   51.1130  388.8890 C.cat  46  ARG46       0.5346
    119  NH1       -5.0630   51.8230  389.7890 N.pl3  46  ARG46       0.1354
    120  NH2       -4.4240   49.7790  388.9450 N.pl3  46  ARG46       0.1354
    121  N          0.6270   53.8720  390.3110 N.am   47  ILE47      -0.1963
    122  CA         1.1190   53.5020  391.6470 C.3    47  ILE47       0.1727
    123  C          0.1520   53.9110  392.7520 C.2    47  ILE47       0.2616
    124  O         -0.6070   54.8660  392.5930 O.2    47  ILE47      -0.2715
    125  CB         2.5210   54.1070  391.9350 C.3    47  ILE47       0.0290
    126  CG1        2.5180   55.6530  391.9300 C.3    47  ILE47       0.0022
    127  CG2        3.5520   53.5760  390.9450 C.3    47  ILE47       0.0023
    128  CD1        2.4090   56.2900  393.3050 C.3    47  ILE47       0.0001
    129  N          0.2070   53.1880  393.8720 N.am   48  HIS48      -0.1959
    130  CA        -0.6380   53.4560  395.0450 C.3    48  HIS48       0.1787
    131  C          0.1110   54.2240  396.1280 C.2    48  HIS48       0.2621
    132  O          1.1490   53.7730  396.6090 O.2    48  HIS48      -0.2715
    133  CB        -1.1830   52.1470  395.6150 C.3    48  HIS48       0.0785
    134  CG        -2.1670   51.4780  394.7110 C.ar   48  HIS48       0.0821
    135  ND1       -1.8530   50.3650  393.9620 N.ar   48  HIS48      -0.2267
    136  CD2       -3.4450   51.7960  394.3980 C.ar   48  HIS48       0.1154
    137  CE1       -2.9030   50.0120  393.2420 C.ar   48  HIS48       0.1986
    138  NE2       -3.8810   50.8670  393.4860 N.ar   48  HIS48      -0.2212
    139  N         -0.4260   55.3900  396.4860 N.am   49  SER49      -0.1936
    140  CA         0.0890   56.2280  397.5730 C.3    49  SER49       0.2055
    141  C         -1.0890   56.5970  398.4880 C.2    49  SER49       0.2643
    142  O         -2.1450   55.9570  398.4220 O.2    49  SER49      -0.2714
    143  CB         0.7870   57.4770  397.0010 C.3    49  SER49       0.2130
    144  OG         1.6000   58.1280  397.9730 O.3    49  SER49      -0.2179
    145  N         -0.9000   57.5920  399.3590 N.am   50  TYR50      -0.1973
    146  CA        -1.9370   58.0270  400.3050 C.3    50  TYR50       0.1639
    147  C         -2.0170   59.5450  400.3460 C.2    50  TYR50       0.2290
    148  O         -1.0600   60.2260  399.9800 O.2    50  TYR50      -0.2864
    149  CB        -1.6510   57.4690  401.7070 C.3    50  TYR50       0.0560
    150  CG        -1.5950   55.9600  401.7480 C.ar   50  TYR50      -0.0198
    151  CD1       -0.4250   55.2790  401.4110 C.ar   50  TYR50      -0.0009
    152  CD2       -2.7200   55.2080  402.0940 C.ar   50  TYR50      -0.0009
    153  CE1       -0.3710   53.8940  401.4230 C.ar   50  TYR50       0.0417
    154  CE2       -2.6770   53.8170  402.1150 C.ar   50  TYR50       0.0417
    155  CZ        -1.5000   53.1630  401.7790 C.ar   50  TYR50       0.1957
    156  OH        -1.4400   51.7870  401.7960 O.3    50  TYR50      -0.2866
    157  N          0.9070   62.6350  401.4890 N.3    53  HIS53      -0.1241
    158  CA         2.2730   62.0970  401.4450 C.3    53  HIS53       0.1621
    159  C          3.1560   63.0170  400.6120 C.2    53  HIS53       0.2264
    160  O          2.7170   63.5190  399.5930 O.2    53  HIS53      -0.2867
    161  CB         2.2690   60.6780  400.8710 C.3    53  HIS53       0.0745
    162  CG         1.9240   59.6260  401.8780 C.ar   53  HIS53       0.0817
    163  ND1        2.4600   58.3570  401.8450 N.ar   53  HIS53      -0.2268
    164  CD2        1.1260   59.6670  402.9700 C.ar   53  HIS53       0.1154
    165  CE1        1.9920   57.6560  402.8610 C.ar   53  HIS53       0.1986
    166  NE2        1.1850   58.4300  403.5630 N.ar   53  HIS53      -0.2212
    167  N          6.2470   63.7290  398.0970 N.3    55  TRP55      -0.1241
    168  CA         7.0990   63.1180  397.0820 C.3    55  TRP55       0.1605
    169  C          7.9390   64.1960  396.3830 C.2    55  TRP55       0.2264
    170  O          7.5030   65.3480  396.2580 O.2    55  TRP55      -0.2867
    171  CB         6.2500   62.4310  396.0050 C.3    55  TRP55       0.0550
    172  CG         5.5610   61.1470  396.3750 C.ar   55  TRP55       0.0003
    173  CD1        4.2730   61.0000  396.8120 C.ar   55  TRP55       0.0946
    174  CD2        6.0980   59.8190  396.2660 C.ar   55  TRP55       0.0152
    175  NE1        3.9820   59.6670  397.0050 N.ar   55  TRP55      -0.2442
    176  CE2        5.0840   58.9210  396.6780 C.ar   55  TRP55       0.0810
    177  CE3        7.3430   59.3010  395.8730 C.ar   55  TRP55       0.0012
    178  CZ2        5.2740   57.5370  396.7080 C.ar   55  TRP55       0.0191
    179  CZ3        7.5300   57.9190  395.9040 C.ar   55  TRP55       0.0001
    180  CH2        6.4990   57.0560  396.3210 C.ar   55  TRP55       0.0015
@<TRIPOS>BOND
     1    94    93    2
     2    93    92    1
     3    99   100    1
     4    92    95    1
     5    92    91    1
     6   108   107    1
     7    23    22    2
     8    95    96    1
     9   100   101    1
    10   100   103    1
    11   105   104    1
    12   105   106    1
    13    98    96    1
    14    22    21    1
    15   104   103    1
    16   107   106    2
    17   107   109    1
    18   101   110   am
    19   101   102    2
    20    96    97    1
    21   110   111    1
    22   114   111    1
    23   114   115    1
    24    21    20    1
    25    21    24    1
    26   116   117    1
    27   116   115    1
    28   111   112    1
    29   117   118    2
    30    24    25    1
    31   118   120    1
    32   118   119    1
    33   112   113    2
    34   112   121   am
    35    25    26   ar
    36    25    27   ar
    37   121   122    1
    38    87    86    2
    39    86    85    1
    40    26    28   ar
    41    27    29   ar
    42   127   125    1
    43    37    36    1
    44    37    31    1
    45    88    85    1
    46    88    89    1
    47    36    35    1
    48   122   125    1
    49   122   123    1
    50    85    84    1
    51    31    32    1
    52   126   125    1
    53   126   128    1
    54    28    30   ar
    55    29    30   ar
    56    35    32    1
    57   124   123    2
    58    89    90    1
    59   123   129   am
    60    32    33    1
    61    84    90    1
    62    84    74   am
    63    75    74    2
    64   137   138   ar
    65   137   135   ar
    66   138   136   ar
    67    74    73    1
    68   129   130    1
    69   135   134   ar
    70    33    34    2
    71   136   134   ar
    72   134   133    1
    73    76    73    1
    74    76    77    1
    75    73    72    1
    76   130   133    1
    77   130   131    1
    78   177   179   ar
    79   177   174   ar
    80   179   180   ar
    81   171   172    1
    82   171   168    1
    83    79    77   ar
    84    79    81   ar
    85    77    78   ar
    86   131   139   am
    87   131   132    2
    88   170   169    2
    89   174   172   ar
    90   174   176   ar
    91   180   178   ar
    92   172   173   ar
    93   169   168    1
    94   139   140    1
    95   176   178   ar
    96   176   175   ar
    97   173   175   ar
    98   143   140    1
    99   143   144    1
   100   168   167    1
   101    81    82   ar
   102    78    80   ar
   103   140   141    1
   104    38    39    1
   105    82    80   ar
   106    82    83    1
   107   142   141    2
   108   141   145   am
   109    66    65    2
   110    39    42    1
   111    39    40    1
   112   145   146    1
   113    65    64    1
   114    42    43    1
   115   160   159    2
   116   148   147    2
   117   146   147    1
   118   146   149    1
   119    40    41    2
   120    43    44   ar
   121    43    45   ar
   122   159   158    1
   123    44    46   ar
   124   161   158    1
   125   161   162    1
   126    71    69   am
   127    64    63    1
   128    64    67    1
   129    68    67    1
   130    68    69    1
   131   151   153   ar
   132   151   150   ar
   133   153   155   ar
   134   158   157    1
   135    69    70    2
   136   149   150    1
   137    45    48   ar
   138    45    47   ar
   139   150   152   ar
   140   155   156    1
   141   155   154   ar
   142   163   162   ar
   143   163   165   ar
   144    46    47   ar
   145   162   164   ar
   146   152   154   ar
   147    48    50   ar
   148    47    49   ar
   149   165   166   ar
   150   164   166   ar
   151    50    51   ar
   152    49    51   ar
   153    11    12    2
   154    11    10    1
   155    10     9    1
   156    10    13    1
   157    62    60   ar
   158    62    61   ar
   159    13    14    1
   160    60    58   ar
   161    52    53    1
   162    61    59   ar
   163    14    15    1
   164    58    57   ar
   165     1     2    1
   166     3     2    1
   167     3     4    2
   168     2     5    1
   169    59    57   ar
   170     7     6    2
   171    57    56    1
   172    53    56    1
   173    53    54    1
   174    15    16    1
   175     6     5    1
   176     6     8   am
   177    54    55    2
   178    16    17    2
   179    18    17    1
   180    17    19    1
