@<TRIPOS>MOLECULE
tmp/6fmjI00.pdb
 169 168 0 0 0
SMALL
GASTEIGER

@<TRIPOS>ATOM
      1  N        -26.2370   15.0700   97.8190 N.3     6  ASN6       -0.1240
      2  CA       -27.6030   14.5520   97.9340 C.3     6  ASN6        0.1653
      3  C        -28.6170   15.7040   97.9120 C.2     6  ASN6        0.2266
      4  O        -29.2070   16.0670   98.9350 O.2     6  ASN6       -0.2867
      5  CB       -27.7450   13.6760   99.1890 C.3     6  ASN6        0.1155
      6  CG       -28.9970   12.8050   99.1800 C.2     6  ASN6        0.2627
      7  OD1      -29.8650   12.9160   98.3110 O.2     6  ASN6       -0.2716
      8  ND2      -29.0960   11.9280  100.1720 N.am    6  ASN6       -0.0877
      9  N        -31.4440   15.8720   95.8930 N.3     8  ARG8       -0.1245
     10  CA       -32.8050   15.4190   95.6010 C.3     8  ARG8        0.1563
     11  C        -33.5370   16.3670   94.6410 C.2     8  ARG8        0.2260
     12  O        -34.7580   16.5220   94.7170 O.2     8  ARG8       -0.2867
     13  CB       -33.5970   15.1730   96.8960 C.3     8  ARG8        0.0307
     14  CG       -32.8010   14.4120   97.9510 C.3     8  ARG8        0.0489
     15  CD       -33.6560   13.6480   98.9550 C.3     8  ARG8        0.2205
     16  NE       -34.5260   14.5150   99.7540 N.pl3   8  ARG8       -0.0865
     17  CZ       -35.8150   14.7730   99.5200 C.cat   8  ARG8        0.5346
     18  NH1      -36.4710   14.2370   98.4900 N.pl3   8  ARG8        0.1354
     19  NH2      -36.4690   15.5900  100.3400 N.pl3   8  ARG8        0.1354
     20  N        -26.8310   11.5460   77.7170 N.3    15  PHE15      -0.1241
     21  CA       -25.5150   10.9050   77.5700 C.3    15  PHE15       0.1605
     22  C        -25.3320   10.5940   76.0890 C.2    15  PHE15       0.2264
     23  O        -25.9580    9.6650   75.5790 O.2    15  PHE15      -0.2867
     24  CB       -25.4010    9.5810   78.3460 C.3    15  PHE15       0.0534
     25  CG       -25.2460    9.7070   79.8430 C.ar   15  PHE15      -0.0203
     26  CD1      -25.0330   10.9230   80.4900 C.ar   15  PHE15      -0.0042
     27  CD2      -25.2800    8.5510   80.6150 C.ar   15  PHE15      -0.0042
     28  CE1      -24.8800   10.9770   81.8690 C.ar   15  PHE15      -0.0003
     29  CE2      -25.1240    8.5980   81.9910 C.ar   15  PHE15      -0.0003
     30  CZ       -24.9260    9.8130   82.6180 C.ar   15  PHE15      -0.0000
     31  N        -20.7580    4.5640   81.7580 N.3    24  PRO24      -0.2116
     32  CA       -20.9700    5.6670   82.6890 C.3    24  PRO24       0.1372
     33  C        -20.7370    5.2090   84.1280 C.2    24  PRO24       0.2244
     34  O        -21.1240    4.0930   84.4960 O.2    24  PRO24      -0.2868
     35  CB       -22.4390    6.0540   82.4680 C.3    24  PRO24       0.0268
     36  CG       -22.8560    5.3800   81.2070 C.3    24  PRO24       0.0207
     37  CD       -22.0260    4.1320   81.1490 C.3    24  PRO24       0.0892
     38  N        -21.1870    6.5640   88.0770 N.3    26  TRP26      -0.1241
     39  CA       -21.7360    7.5280   89.0280 C.3    26  TRP26       0.1605
     40  C        -20.9800    7.4120   90.3490 C.2    26  TRP26       0.2264
     41  O        -20.8500    6.3160   90.8930 O.2    26  TRP26      -0.2867
     42  CB       -23.2330    7.2700   89.2350 C.3    26  TRP26       0.0550
     43  CG       -23.8580    8.1080   90.3160 C.ar   26  TRP26       0.0003
     44  CD1      -23.8570    9.4680   90.3970 C.ar   26  TRP26       0.0946
     45  CD2      -24.5660    7.6360   91.4690 C.ar   26  TRP26       0.0152
     46  NE1      -24.5170    9.8740   91.5290 N.ar   26  TRP26      -0.2442
     47  CE2      -24.9610    8.7700   92.2080 C.ar   26  TRP26       0.0810
     48  CE3      -24.9020    6.3650   91.9510 C.ar   26  TRP26       0.0012
     49  CZ2      -25.6840    8.6750   93.4030 C.ar   26  TRP26       0.0191
     50  CZ3      -25.6190    6.2690   93.1500 C.ar   26  TRP26       0.0001
     51  CH2      -26.0020    7.4200   93.8560 C.ar   26  TRP26       0.0015
     52  N        -22.9510    8.4110   97.1870 N.3    29  PHE29      -0.1241
     53  CA       -22.9300    9.3520   98.3090 C.3    29  PHE29       0.1605
     54  C        -21.7780    9.1350   99.2910 C.2    29  PHE29       0.2264
     55  O        -21.4290   10.0540  100.0270 O.2    29  PHE29      -0.2867
     56  CB       -24.2910    9.3760   99.0140 C.3    29  PHE29       0.0534
     57  CG       -25.4330    9.7010   98.0850 C.ar   29  PHE29      -0.0203
     58  CD1      -25.4760   10.9230   97.4210 C.ar   29  PHE29      -0.0042
     59  CD2      -26.4410    8.7750   97.8360 C.ar   29  PHE29      -0.0042
     60  CE1      -26.5110   11.2280   96.5510 C.ar   29  PHE29      -0.0003
     61  CE2      -27.4820    9.0750   96.9680 C.ar   29  PHE29      -0.0003
     62  CZ       -27.5180   10.3040   96.3260 C.ar   29  PHE29      -0.0000
     63  N        -19.9930    3.7980   90.8600 N.3    34  GLN34      -0.1245
     64  CA       -21.0700    2.8610   90.5470 C.3    34  GLN34       0.1566
     65  C        -21.2320    2.7390   89.0300 C.2    34  GLN34       0.2260
     66  O        -21.5240    3.7320   88.3640 O.2    34  GLN34      -0.2867
     67  CB       -22.3780    3.3370   91.1850 C.3    34  GLN34       0.0367
     68  CG       -23.5330    2.3550   91.0460 C.3    34  GLN34       0.0905
     69  CD       -24.6680    2.6170   92.0240 C.2    34  GLN34       0.2608
     70  OE1      -25.8140    2.8270   91.6160 O.2    34  GLN34      -0.2717
     71  NE2      -24.3580    2.5980   93.3220 N.am   34  GLN34      -0.0878
     72  N        -22.9250    2.0960   85.5080 N.3    36  TYR36      -0.1228
     73  CA       -24.2480    2.1490   84.8880 C.3    36  TYR36       0.1721
     74  C        -24.2030    1.4260   83.5370 C.2    36  TYR36       0.2437
     75  O        -23.1190    1.0310   83.1030 O.2    36  TYR36      -0.2733
     76  CB       -24.6940    3.6120   84.7740 C.3    36  TYR36       0.0547
     77  CG       -25.4510    4.0530   85.9960 C.ar   36  TYR36      -0.0200
     78  CD1      -24.8030    4.1910   87.2270 C.ar   36  TYR36      -0.0009
     79  CD2      -26.8240    4.2780   85.9460 C.ar   36  TYR36      -0.0009
     80  CE1      -25.4980    4.5680   88.3640 C.ar   36  TYR36       0.0417
     81  CE2      -27.5270    4.6500   87.0820 C.ar   36  TYR36       0.0417
     82  CZ       -26.8580    4.7940   88.2860 C.ar   36  TYR36       0.1957
     83  OH       -27.5520    5.1620   89.4130 O.3    36  TYR36      -0.2866
     84  N        -25.3680    1.2030   82.8940 N.am   37  PRO37      -0.2729
     85  CA       -25.3810    0.4790   81.6140 C.3    37  PRO37       0.1401
     86  C        -24.5300    1.1150   80.5130 C.2    37  PRO37       0.2269
     87  O        -24.4220    2.3380   80.4360 O.2    37  PRO37      -0.2865
     88  CB       -26.8620    0.4850   81.2210 C.3    37  PRO37       0.0296
     89  CG       -27.5860    0.5520   82.5230 C.3    37  PRO37       0.0237
     90  CD       -26.7390    1.4440   83.3840 C.3    37  PRO37       0.0939
     91  N        -23.0180    2.3780   76.8500 N.3    39  LEU39      -0.1245
     92  CA       -23.4730    3.0310   75.6160 C.3    39  LEU39       0.1561
     93  C        -22.6240    2.5960   74.4230 C.2    39  LEU39       0.2260
     94  O        -21.4240    2.8670   74.4000 O.2    39  LEU39      -0.2867
     95  CB       -23.3560    4.5520   75.7150 C.3    39  LEU39       0.0270
     96  CG       -24.3880    5.3250   76.5330 C.3    39  LEU39       0.0019
     97  CD1      -23.9360    5.4670   77.9750 C.3    39  LEU39       0.0001
     98  CD2      -24.6000    6.6990   75.9140 C.3    39  LEU39       0.0001
     99  N        -28.6160    8.5400   74.9900 N.3    45  ARG45      -0.1245
    100  CA       -29.7430    8.2470   75.8770 C.3    45  ARG45       0.1563
    101  C        -30.0930    9.4390   76.7540 C.2    45  ARG45       0.2260
    102  O        -29.2080   10.1060   77.2920 O.2    45  ARG45      -0.2867
    103  CB       -29.4350    7.0450   76.7710 C.3    45  ARG45       0.0307
    104  CG       -29.5480    5.7200   76.0430 C.3    45  ARG45       0.0489
    105  CD       -29.0890    4.5560   76.8950 C.3    45  ARG45       0.2205
    106  NE       -28.7400    3.4110   76.0570 N.pl3  45  ARG45      -0.0865
    107  CZ       -28.0310    2.3530   76.4490 C.cat  45  ARG45       0.5346
    108  NH1      -27.5650    2.2470   77.6950 N.pl3  45  ARG45       0.1354
    109  NH2      -27.7850    1.3810   75.5710 N.pl3  45  ARG45       0.1354
    110  N        -31.4490   10.3710   80.2190 N.3    47  ILE47      -0.1231
    111  CA       -31.3910    9.6980   81.5140 C.3    47  ILE47       0.1692
    112  C        -31.7110   10.6540   82.6600 C.2    47  ILE47       0.2592
    113  O        -31.4210   11.8490   82.5830 O.2    47  ILE47      -0.2718
    114  CB       -30.0230    9.0230   81.7500 C.3    47  ILE47       0.0266
    115  CG1      -28.8640   10.0300   81.8030 C.3    47  ILE47       0.0019
    116  CG2      -29.7570    7.9760   80.6770 C.3    47  ILE47       0.0020
    117  CD1      -28.4330   10.4270   83.1990 C.3    47  ILE47       0.0001
    118  N        -32.3070   10.1120   83.7170 N.am   48  HIS48      -0.1962
    119  CA       -32.6960   10.8940   84.8900 C.3    48  HIS48       0.1787
    120  C        -31.5810   10.8670   85.9260 C.2    48  HIS48       0.2621
    121  O        -31.2710    9.8060   86.4610 O.2    48  HIS48      -0.2715
    122  CB       -33.9810   10.3320   85.4940 C.3    48  HIS48       0.0785
    123  CG       -35.1320   10.3010   84.5370 C.ar   48  HIS48       0.0821
    124  ND1      -35.8480   11.4280   84.1990 N.ar   48  HIS48      -0.2267
    125  CD2      -35.6940    9.2780   83.8510 C.ar   48  HIS48       0.1154
    126  CE1      -36.8070   11.1010   83.3510 C.ar   48  HIS48       0.1986
    127  NE2      -36.7360    9.8020   83.1240 N.ar   48  HIS48      -0.2212
    128  N        -30.9680   12.0230   86.1750 N.am   49  SER49      -0.1936
    129  CA       -29.9610   12.1830   87.2270 C.3    49  SER49       0.2055
    130  C        -30.4020   13.2730   88.1990 C.2    49  SER49       0.2643
    131  O        -31.5750   13.6400   88.2220 O.2    49  SER49      -0.2714
    132  CB       -28.5970   12.5130   86.6180 C.3    49  SER49       0.2130
    133  OG       -27.5870   12.4660   87.6140 O.3    49  SER49      -0.2179
    134  N        -29.4830   13.7750   89.0180 N.am   50  TYR50      -0.1973
    135  CA       -29.8030   14.8240   89.9910 C.3    50  TYR50       0.1639
    136  C        -28.7150   15.8830   90.0210 C.2    50  TYR50       0.2290
    137  O        -27.5580   15.5950   89.7180 O.2    50  TYR50      -0.2864
    138  CB       -29.9740   14.2370   91.3910 C.3    50  TYR50       0.0560
    139  CG       -31.0850   13.2220   91.5120 C.ar   50  TYR50      -0.0198
    140  CD1      -30.8890   11.9000   91.1280 C.ar   50  TYR50      -0.0009
    141  CD2      -32.3280   13.5790   92.0240 C.ar   50  TYR50      -0.0009
    142  CE1      -31.9060   10.9650   91.2290 C.ar   50  TYR50       0.0417
    143  CE2      -33.3510   12.6490   92.1400 C.ar   50  TYR50       0.0417
    144  CZ       -33.1330   11.3460   91.7380 C.ar   50  TYR50       0.1957
    145  OH       -34.1390   10.4200   91.8550 O.3    50  TYR50      -0.2866
    146  N        -24.7110   15.7360   91.3270 N.3    53  HIS53      -0.1241
    147  CA       -24.1780   14.3750   91.2560 C.3    53  HIS53       0.1621
    148  C        -22.9300   14.3490   90.3690 C.2    53  HIS53       0.2264
    149  O        -22.8230   15.1290   89.4290 O.2    53  HIS53      -0.2867
    150  CB       -25.2480   13.4030   90.7470 C.3    53  HIS53       0.0745
    151  CG       -26.2590   13.0330   91.7870 C.ar   53  HIS53       0.0817
    152  ND1      -26.9340   11.8320   91.7830 N.ar   53  HIS53      -0.2268
    153  CD2      -26.6770   13.6940   92.8910 C.ar   53  HIS53       0.1154
    154  CE1      -27.7390   11.7760   92.8300 C.ar   53  HIS53       0.1986
    155  NE2      -27.6020   12.8950   93.5180 N.ar   53  HIS53      -0.2212
    156  N        -20.3220   12.3750   87.7760 N.3    55  TRP55      -0.1241
    157  CA       -20.2090   11.3170   86.7790 C.3    55  TRP55       0.1605
    158  C        -18.8550   11.3770   86.0920 C.2    55  TRP55       0.2264
    159  O        -18.3260   12.4620   85.8600 O.2    55  TRP55      -0.2867
    160  CB       -21.2520   11.5040   85.6800 C.3    55  TRP55       0.0550
    161  CG       -22.6660   11.2410   86.0580 C.ar   55  TRP55       0.0003
    162  CD1      -23.5680   12.1420   86.5390 C.ar   55  TRP55       0.0946
    163  CD2      -23.3640   10.0030   85.9290 C.ar   55  TRP55       0.0152
    164  NE1      -24.7850   11.5390   86.7270 N.ar   55  TRP55      -0.2442
    165  CE2      -24.6860   10.2230   86.3610 C.ar   55  TRP55       0.0810
    166  CE3      -23.0000    8.7260   85.4920 C.ar   55  TRP55       0.0012
    167  CZ2      -25.6440    9.2120   86.3700 C.ar   55  TRP55       0.0191
    168  CZ3      -23.9560    7.7190   85.5030 C.ar   55  TRP55       0.0001
    169  CH2      -25.2610    7.9700   85.9410 C.ar   55  TRP55       0.0015
@<TRIPOS>BOND
     1    94    93    2
     2    93    92    1
     3    99   100    1
     4   109   107    1
     5    23    22    2
     6    92    95    1
     7    92    91    1
     8    95    96    1
     9   100   101    1
    10   100   103    1
    11    98    96    1
    12   104   103    1
    13   104   105    1
    14   106   107    2
    15   106   105    1
    16    22    21    1
    17   107   108    1
    18    96    97    1
    19   101   102    2
    20    21    20    1
    21    21    24    1
    22    24    25    1
    23    25    26   ar
    24    25    27   ar
    25   110   111    1
    26    87    86    2
    27    26    28   ar
    28    86    85    1
    29    27    29   ar
    30   116   114    1
    31    37    36    1
    32    37    31    1
    33    36    35    1
    34    88    85    1
    35    88    89    1
    36   111   114    1
    37   111   112    1
    38    85    84    1
    39   114   115    1
    40    31    32    1
    41   115   117    1
    42    28    30   ar
    43    29    30   ar
    44    35    32    1
    45    89    90    1
    46   113   112    2
    47   112   118   am
    48    32    33    1
    49    84    90    1
    50    84    74   am
    51    75    74    2
    52   127   126   ar
    53   127   125   ar
    54   126   124   ar
    55    74    73    1
    56   118   119    1
    57   125   123   ar
    58    33    34    2
    59   124   123   ar
    60   123   122    1
    61    76    73    1
    62    76    77    1
    63    73    72    1
    64   119   122    1
    65   119   120    1
    66   166   168   ar
    67   166   163   ar
    68   168   169   ar
    69   160   161    1
    70   160   157    1
    71   159   158    2
    72   120   128   am
    73   120   121    2
    74   163   161   ar
    75   163   165   ar
    76   169   167   ar
    77    79    77   ar
    78    79    81   ar
    79    77    78   ar
    80   161   162   ar
    81   158   157    1
    82   128   129    1
    83   165   167   ar
    84   165   164   ar
    85   162   164   ar
    86   132   129    1
    87   132   133    1
    88   157   156    1
    89    81    82   ar
    90   129   130    1
    91    78    80   ar
    92    38    39    1
    93   130   131    2
    94   130   134   am
    95    82    80   ar
    96    82    83    1
    97    66    65    2
    98   134   135    1
    99    39    42    1
   100    39    40    1
   101    65    64    1
   102    42    43    1
   103   149   148    2
   104   137   136    2
   105   135   136    1
   106   135   138    1
   107    43    44   ar
   108    43    45   ar
   109    40    41    2
   110   148   147    1
   111    44    46   ar
   112    64    63    1
   113    64    67    1
   114   150   147    1
   115   150   151    1
   116    68    67    1
   117    68    69    1
   118   140   142   ar
   119   140   139   ar
   120   142   144   ar
   121   147   146    1
   122   138   139    1
   123    45    48   ar
   124    45    47   ar
   125   139   141   ar
   126    46    47   ar
   127    70    69    2
   128   144   145    1
   129   144   143   ar
   130   152   151   ar
   131   152   154   ar
   132   151   153   ar
   133    48    50   ar
   134   141   143   ar
   135    69    71   am
   136    47    49   ar
   137   154   155   ar
   138   153   155   ar
   139    50    51   ar
   140    49    51   ar
   141    11    12    2
   142    11    10    1
   143    10     9    1
   144    10    13    1
   145    62    60   ar
   146    62    61   ar
   147    60    58   ar
   148    13    14    1
   149    61    59   ar
   150    52    53    1
   151    58    57   ar
   152     1     2    1
   153    59    57   ar
   154     3     2    1
   155     3     4    2
   156     2     5    1
   157    14    15    1
   158    57    56    1
   159    53    56    1
   160    53    54    1
   161     7     6    2
   162    18    17    1
   163    15    16    1
   164     6     5    1
   165     6     8   am
   166    54    55    2
   167    17    16    2
   168    17    19    1
