@<TRIPOS>MOLECULE
tmp/6fmlJ00.pdb
 207 197 0 0 0
SMALL
GASTEIGER

@<TRIPOS>ATOM
      1  N        180.5310  248.9500  205.0630 N.3    48  ASP48      -0.1225
      2  CA       180.3970  247.7240  204.2880 C.3    48  ASP48       0.1805
      3  C        180.0360  246.5830  205.2180 C.2    48  ASP48       0.2598
      4  O        180.8610  246.1450  206.0210 O.2    48  ASP48      -0.2718
      5  CB       181.6820  247.3950  203.5450 C.3    48  ASP48       0.1424
      6  CG       181.5630  246.1200  202.7490 C.2    48  ASP48       0.3668
      7  OD1      180.8560  246.1280  201.7200 O.co2  48  ASP48      -0.2456
      8  OD2      182.1780  245.1110  203.1570 O.co2  48  ASP48      -0.2456
      9  N        178.8140  246.0810  205.0940 N.am   49  ASN49      -0.1960
     10  CA       178.3210  245.0370  205.9860 C.3    49  ASN49       0.1819
     11  C        178.7160  243.6780  205.4180 C.2    49  ASN49       0.2622
     12  O        177.8800  242.8740  205.0060 O.2    49  ASN49      -0.2715
     13  CB       176.8170  245.1470  206.1580 C.3    49  ASN49       0.1195
     14  CG       176.3180  244.3460  207.3220 C.2    49  ASN49       0.2630
     15  OD1      177.1000  243.7570  208.0610 O.2    49  ASN49      -0.2716
     16  ND2      175.0080  244.3070  207.4920 N.am   49  ASN49      -0.0877
     17  N        180.0220  243.4190  205.4240 N.am   50  GLY50      -0.1940
     18  CA       180.5150  242.1730  204.8760 C.3    50  GLY50       0.2014
     19  C        180.3000  241.0070  205.8150 C.2    50  GLY50       0.2640
     20  O        180.3260  241.1460  207.0330 O.2    50  GLY50      -0.2714
     21  N        180.0940  239.8300  205.2250 N.am   51  SER51      -0.1935
     22  CA       179.8260  238.6560  206.0430 C.3    51  SER51       0.2055
     23  C        181.0900  238.1650  206.7200 C.2    51  SER51       0.2643
     24  O        181.0440  237.6760  207.8500 O.2    51  SER51      -0.2714
     25  CB       179.1980  237.5520  205.2060 C.3    51  SER51       0.2130
     26  OG       178.9880  236.4030  206.0020 O.3    51  SER51      -0.2179
     27  N        182.2220  238.2790  206.0460 N.am   52  HIS52      -0.1959
     28  CA       183.4790  237.9140  206.6690 C.3    52  HIS52       0.1787
     29  C        184.0910  239.0580  207.4420 C.2    52  HIS52       0.2620
     30  O        184.7140  238.8280  208.4810 O.2    52  HIS52      -0.2715
     31  CB       184.4770  237.4470  205.6180 C.3    52  HIS52       0.0785
     32  CG       185.8170  237.1090  206.1790 C.ar   52  HIS52       0.0821
     33  ND1      186.0560  235.9620  206.8990 N.ar   52  HIS52      -0.2267
     34  CD2      186.9890  237.7830  206.1430 C.ar   52  HIS52       0.1154
     35  CE1      187.3230  235.9370  207.2730 C.ar   52  HIS52       0.1986
     36  NE2      187.9110  237.0300  206.8240 N.ar   52  HIS52      -0.2212
     37  N        183.9090  240.2890  206.9780 N.am   53  SER53      -0.1950
     38  CA       184.5580  241.4260  207.6210 C.3    53  SER53       0.1924
     39  C        183.7120  242.6690  207.3730 C.2    53  SER53       0.2314
     40  O        183.7420  243.2350  206.2770 O.2    53  SER53      -0.2863
     41  CB       185.9740  241.6090  207.1060 C.3    53  SER53       0.2116
     42  OG       186.5700  242.7380  207.7150 O.3    53  SER53      -0.2180
     43  N        183.2690  246.3920  207.4600 N.3    55  ARG55      -0.1245
     44  CA       184.1850  247.5100  207.3650 C.3    55  ARG55       0.1563
     45  C        183.4080  248.7980  207.5650 C.2    55  ARG55       0.2260
     46  O        182.2280  248.8790  207.2260 O.2    55  ARG55      -0.2867
     47  CB       184.8730  247.5380  206.0190 C.3    55  ARG55       0.0307
     48  CG       185.7390  246.3430  205.7830 C.3    55  ARG55       0.0489
     49  CD       186.2940  246.3630  204.3820 C.3    55  ARG55       0.2205
     50  NE       187.1090  245.1870  204.1150 N.pl3  55  ARG55      -0.0865
     51  CZ       186.6250  244.0410  203.6520 C.cat  55  ARG55       0.5346
     52  NH1      187.4390  243.0170  203.4430 N.pl3  55  ARG55       0.1354
     53  NH2      185.3270  243.9170  203.4070 N.pl3  55  ARG55       0.1354
     54  N        175.6950  237.0210  211.0460 N.3   102  PHE102     -0.1241
     55  CA       175.2470  236.4200  209.8090 C.3   102  PHE102      0.1605
     56  C        174.9240  234.9540  210.0240 C.2   102  PHE102      0.2264
     57  O        175.5810  234.2710  210.8130 O.2   102  PHE102     -0.2867
     58  CB       176.3260  236.5490  208.7400 C.3   102  PHE102      0.0534
     59  CG       176.4880  237.9230  208.2180 C.ar  102  PHE102     -0.0203
     60  CD1      175.7390  238.3560  207.1430 C.ar  102  PHE102     -0.0042
     61  CD2      177.3660  238.7930  208.8160 C.ar  102  PHE102     -0.0042
     62  CE1      175.8870  239.6240  206.6540 C.ar  102  PHE102     -0.0003
     63  CE2      177.5090  240.0710  208.3430 C.ar  102  PHE102     -0.0003
     64  CZ       176.7690  240.4880  207.2550 C.ar  102  PHE102     -0.0000
     65  N        174.5340  235.3050  203.2400 N.3   107  GLY107     -0.1225
     66  CA       174.7580  236.6710  203.6620 C.3   107  GLY107      0.1811
     67  C        173.4960  237.4590  203.9340 C.2   107  GLY107      0.2280
     68  O        173.3190  238.5620  203.4180 O.2   107  GLY107     -0.2866
     69  N        174.4040  245.6400  201.4590 N.3   138  GLU138     -0.1245
     70  CA       173.5570  244.4910  201.7450 C.3   138  GLU138      0.1567
     71  C        173.8070  243.4420  200.6730 C.2   138  GLU138      0.2260
     72  O        174.6790  243.6020  199.8180 O.2   138  GLU138     -0.2867
     73  CB       172.0750  244.8550  201.7870 C.3   138  GLU138      0.0388
     74  CG       171.5110  245.2920  200.4550 C.3   138  GLU138      0.1160
     75  CD       170.0520  245.6720  200.5440 C.2   138  GLU138      0.3649
     76  OE1      169.4900  245.6240  201.6570 O.co2 138  GLU138     -0.2457
     77  OE2      169.4620  246.0130  199.4980 O.co2 138  GLU138     -0.2457
     78  N        177.3750  245.9640  197.2540 N.3   168  ASP168     -0.1239
     79  CA       178.7860  246.3350  197.3600 C.3   168  ASP168      0.1674
     80  C        179.5940  246.0080  196.1110 C.2   168  ASP168      0.2266
     81  O        180.5380  246.7360  195.7750 O.2   168  ASP168     -0.2867
     82  CB       179.4010  245.6330  198.5650 C.3   168  ASP168      0.1410
     83  CG       179.1990  244.1300  198.5260 C.2   168  ASP168      0.3668
     84  OD1      178.4810  243.6370  197.6310 O.co2 168  ASP168     -0.2456
     85  OD2      179.7690  243.4330  199.3900 O.co2 168  ASP168     -0.2456
     86  N        181.9710  236.1920  196.5820 N.3   187  SER187     -0.1202
     87  CA       182.0450  236.7500  197.9200 C.3   187  SER187      0.2020
     88  C        182.3490  235.6570  198.9370 C.2   187  SER187      0.2619
     89  O        182.7490  234.5440  198.5940 O.2   187  SER187     -0.2717
     90  CB       180.7490  237.4670  198.2710 C.3   187  SER187      0.2103
     91  OG       180.5310  238.5660  197.4100 O.3   187  SER187     -0.2182
     92  N        182.1710  235.9830  200.2140 N.am  188  TYR188     -0.1961
     93  CA       182.3510  235.0020  201.2680 C.3   188  TYR188      0.1771
     94  C        181.1410  234.1030  201.4390 C.2   188  TYR188      0.2620
     95  O        181.2910  232.9750  201.9130 O.2   188  TYR188     -0.2715
     96  CB       182.6750  235.7130  202.5790 C.3   188  TYR188      0.0574
     97  CG       182.9690  234.7860  203.7290 C.ar  188  TYR188     -0.0198
     98  CD1      184.1820  234.1410  203.8420 C.ar  188  TYR188     -0.0009
     99  CD2      182.0320  234.6010  204.7310 C.ar  188  TYR188     -0.0009
    100  CE1      184.4370  233.3040  204.9010 C.ar  188  TYR188      0.0417
    101  CE2      182.2790  233.7790  205.7900 C.ar  188  TYR188      0.0417
    102  CZ       183.4780  233.1320  205.8720 C.ar  188  TYR188      0.1957
    103  OH       183.7060  232.3040  206.9380 O.3   188  TYR188     -0.2866
    104  N        179.9630  234.5430  201.0200 N.am  189  SER189     -0.1950
    105  CA       178.7420  233.7770  201.2190 C.3   189  SER189      0.1924
    106  C        178.1700  233.2090  199.9320 C.2   189  SER189      0.2314
    107  O        177.6950  232.0770  199.9280 O.2   189  SER189     -0.2863
    108  CB       177.6770  234.6330  201.8990 C.3   189  SER189      0.2116
    109  OG       177.2700  235.6770  201.0440 O.3   189  SER189     -0.2180
    110  N        177.9830  235.9200  192.9730 N.3   192  HIS192     -0.1241
    111  CA       176.9900  236.5730  192.1460 C.3   192  HIS192      0.1621
    112  C        177.5150  236.8160  190.7430 C.2   192  HIS192      0.2264
    113  O        178.7020  237.0710  190.5340 O.2   192  HIS192     -0.2867
    114  CB       176.5930  237.8990  192.7660 C.3   192  HIS192      0.0745
    115  CG       175.9060  237.7500  194.0750 C.ar  192  HIS192      0.0817
    116  ND1      176.5900  237.7100  195.2680 N.ar  192  HIS192     -0.2268
    117  CD2      174.5980  237.6100  194.3830 C.ar  192  HIS192      0.1154
    118  CE1      175.7310  237.5660  196.2590 C.ar  192  HIS192      0.1986
    119  NE2      174.5150  237.5030  195.7490 N.ar  192  HIS192     -0.2212
    120  N        183.4870  231.4380  200.0720 N.3   213  GLY213     -0.1225
    121  CA       184.6870  231.1850  200.8500 C.3   213  GLY213      0.1811
    122  C        184.4190  230.4450  202.1400 C.2   213  GLY213      0.2280
    123  O        185.2510  229.6510  202.5910 O.2   213  GLY213     -0.2866
    124  N        190.4370  227.7960  206.6460 N.3   242  GLU242     -0.1245
    125  CA       190.2830  228.9590  205.7810 C.3   242  GLU242      0.1567
    126  C        191.6190  229.6020  205.4420 C.2   242  GLU242      0.2260
    127  O        191.8690  229.9510  204.2820 O.2   242  GLU242     -0.2867
    128  CB       189.3940  229.9830  206.4660 C.3   242  GLU242      0.0388
    129  CG       189.1480  231.2030  205.6410 C.3   242  GLU242      0.1160
    130  CD       188.2260  232.1630  206.3290 C.2   242  GLU242      0.3649
    131  OE1      187.7840  231.8490  207.4510 O.co2 242  GLU242     -0.2457
    132  OE2      187.9460  233.2340  205.7560 O.co2 242  GLU242     -0.2457
    133  N        193.2620  227.4930  202.8620 N.3   245  VAL245     -0.1231
    134  CA       192.6990  227.7360  201.5350 C.3   245  VAL245      0.1692
    135  C        193.2210  229.0380  200.9500 C.2   245  VAL245      0.2592
    136  O        193.5140  229.1160  199.7500 O.2   245  VAL245     -0.2718
    137  CB       191.1630  227.7200  201.6200 C.3   245  VAL245      0.0266
    138  CG1      190.5290  228.1700  200.3350 C.3   245  VAL245      0.0020
    139  CG2      190.6960  226.3350  201.9200 C.3   245  VAL245      0.0020
    140  N        193.4330  230.0440  201.8020 N.am  246  ARG246     -0.1966
    141  CA       193.8560  231.3650  201.3420 C.3   246  ARG246      0.1729
    142  C        195.2420  231.3440  200.7140 C.2   246  ARG246      0.2616
    143  O        195.4990  232.0870  199.7620 O.2   246  ARG246     -0.2715
    144  CB       193.8060  232.3610  202.4980 C.3   246  ARG246      0.0348
    145  CG       194.1350  233.7850  202.1110 C.3   246  ARG246      0.0492
    146  CD       194.0390  234.7010  203.2920 C.3   246  ARG246      0.2205
    147  NE       192.6620  234.8580  203.7290 N.pl3 246  ARG246     -0.0865
    148  CZ       192.3060  235.5090  204.8280 C.cat 246  ARG246      0.5346
    149  NH1      193.2300  236.0660  205.5950 N.pl3 246  ARG246      0.1354
    150  NH2      191.0260  235.6090  205.1540 N.pl3 246  ARG246      0.1354
    151  N        196.1320  230.4840  201.1900 N.am  247  ASP247     -0.1971
    152  CA       197.5020  230.4990  200.7020 C.3   247  ASP247      0.1709
    153  C        197.9870  229.1630  200.1600 C.2   247  ASP247      0.2293
    154  O        199.1930  229.0080  199.9420 O.2   247  ASP247     -0.2864
    155  CB       198.4410  230.9880  201.7950 C.3   247  ASP247      0.1436
    156  CG       198.2270  232.4380  202.1070 C.2   247  ASP247      0.3671
    157  OD1      197.8000  233.1720  201.1930 O.co2 247  ASP247     -0.2456
    158  OD2      198.4910  232.8500  203.2530 O.co2 247  ASP247     -0.2456
    159  N        186.0550  238.7800  197.2480 N.3   367  GLY367     -0.1210
    160  CA       187.1900  238.3400  198.0310 C.3   367  GLY367      0.1956
    161  C        187.6400  236.9410  197.6870 C.2   367  GLY367      0.2611
    162  O        188.8370  236.6480  197.7020 O.2   367  GLY367     -0.2717
    163  N        186.7090  236.0740  197.3170 N.am  368  ASN368     -0.1974
    164  CA       187.0520  234.7070  196.9480 C.3   368  ASN368      0.1688
    165  C        187.4730  234.6490  195.4840 C.2   368  ASN368      0.2292
    166  O        186.9100  233.8920  194.6900 O.2   368  ASN368     -0.2864
    167  CB       185.8670  233.7780  197.2320 C.3   368  ASN368      0.1181
    168  CG       186.2480  232.3110  197.2180 C.2   368  ASN368      0.2629
    169  OD1      187.4060  231.9600  197.0110 O.2   368  ASN368     -0.2716
    170  ND2      185.2710  231.4470  197.4580 N.am  368  ASN368     -0.0877
    171  N        191.1150  235.9950  194.6770 N.3   370  LEU370     -0.1231
    172  CA       192.5620  236.1520  194.5990 C.3   370  LEU370      0.1693
    173  C        193.2920  234.8140  194.6220 C.2   370  LEU370      0.2592
    174  O        194.1870  234.5940  195.4430 O.2   370  LEU370     -0.2718
    175  CB       193.0570  237.0190  195.7490 C.3   370  LEU370      0.0284
    176  CG       192.4950  238.4290  195.7600 C.3   370  LEU370      0.0019
    177  CD1      192.9690  239.1350  197.0040 C.3   370  LEU370      0.0001
    178  CD2      192.9220  239.1720  194.5170 C.3   370  LEU370      0.0001
    179  N        192.9230  233.9260  193.7110 N.am  371  PHE371     -0.1976
    180  CA       193.6050  232.6710  193.4860 C.3   371  PHE371      0.1639
    181  C        194.4910  232.8090  192.2620 C.2   371  PHE371      0.2290
    182  O        194.2000  233.5880  191.3530 O.2   371  PHE371     -0.2864
    183  CB       192.5950  231.5520  193.2450 C.3   371  PHE371      0.0560
    184  CG       191.7990  231.1770  194.4480 C.ar  371  PHE371     -0.0200
    185  CD1      192.2300  231.4910  195.7160 C.ar  371  PHE371     -0.0042
    186  CD2      190.6050  230.5110  194.3010 C.ar  371  PHE371     -0.0042
    187  CE1      191.4880  231.1460  196.8100 C.ar  371  PHE371     -0.0003
    188  CE2      189.8590  230.1610  195.3920 C.ar  371  PHE371     -0.0003
    189  CZ       190.3010  230.4800  196.6480 C.ar  371  PHE371     -0.0000
    190  N        190.5310  244.2720  195.3850 N.3   400  ALA400     -0.1231
    191  CA       189.3820  243.3650  195.3880 C.3   400  ALA400      0.1694
    192  C        188.6200  243.2120  196.7010 C.2   400  ALA400      0.2591
    193  O        187.3960  243.0550  196.6840 O.2   400  ALA400     -0.2718
    194  CB       189.8490  241.9770  194.9470 C.3   400  ALA400      0.0304
    195  N        189.3110  243.2340  197.8380 N.am  401  ILE401     -0.1980
    196  CA       188.5990  243.1480  199.1070 C.3   401  ILE401      0.1595
    197  C        188.2640  244.5100  199.6950 C.2   401  ILE401      0.2287
    198  O        187.5190  244.5780  200.6820 O.2   401  ILE401     -0.2864
    199  CB       189.4040  242.3170  200.1190 C.3   401  ILE401      0.0276
    200  CG1      190.7560  242.9660  200.3720 C.3   401  ILE401      0.0022
    201  CG2      189.5840  240.9180  199.6100 C.3   401  ILE401      0.0022
    202  CD1      191.5150  242.3330  201.5100 C.3   401  ILE401      0.0001
    203  N        184.9300  247.4460  197.4670 N.3   404  ALA404     -0.1245
    204  CA       183.5150  247.4750  197.8070 C.3   404  ALA404      0.1562
    205  C        183.2000  248.5800  198.8000 C.2   404  ALA404      0.2260
    206  O        182.0900  249.1170  198.7950 O.2   404  ALA404     -0.2867
    207  CB       183.0820  246.1260  198.3640 C.3   404  ALA404      0.0290
@<TRIPOS>BOND
     1   113   112    2
     2   112   111    1
     3   182   181    2
     4   111   114    1
     5   111   110    1
     6   181   180    1
     7   114   115    1
     8   183   180    1
     9   183   184    1
    10   180   179    1
    11   179   173   am
    12   115   117   ar
    13   115   116   ar
    14   186   184   ar
    15   186   188   ar
    16   117   119   ar
    17   184   185   ar
    18   178   176    1
    19   172   173    1
    20   172   171    1
    21   172   175    1
    22   173   174    2
    23   166   165    2
    24   194   191    1
    25   116   118   ar
    26   190   191    1
    27   191   192    1
    28   188   189   ar
    29   165   164    1
    30   185   187   ar
    31   175   176    1
    32   119   118   ar
    33   176   177    1
    34    81    80    2
    35    80    79    1
    36    86    87    1
    37   189   187   ar
    38   193   192    2
    39   192   195   am
    40   164   167    1
    41   164   163    1
    42   169   168    2
    43   168   167    1
    44   168   170   am
    45   159   160    1
    46    78    79    1
    47   163   161   am
    48    79    82    1
    49    91    90    1
    50   203   204    1
    51    84    83   ar
    52   161   162    2
    53   161   160    1
    54   204   207    1
    55   204   205    1
    56   195   196    1
    57    87    90    1
    58    87    88    1
    59    83    82    1
    60    83    85   ar
    61    89    88    2
    62   206   205    2
    63    88    92   am
    64   196   197    1
    65   196   199    1
    66    77    75   ar
    67   201   199    1
    68   197   198    2
    69   136   135    2
    70   143   142    2
    71    72    71    2
    72   107   106    2
    73   106   105    1
    74   154   153    2
    75   120   121    1
    76   199   200    1
    77   153   152    1
    78    92    93    1
    79   138   137    1
    80   200   202    1
    81    74    75    1
    82    74    73    1
    83    75    76   ar
    84    71    70    1
    85   152   151    1
    86   152   155    1
    87   142   151   am
    88   142   141    1
    89   121   122    1
    90   135   134    1
    91   135   140   am
    92   104   105    1
    93   104    94   am
    94   109   108    1
    95   157   156   ar
    96   105   108    1
    97    93    94    1
    98    93    96    1
    99   141   140    1
   100   141   144    1
   101    94    95    2
   102    69    70    1
   103   134   137    1
   104   134   133    1
   105   137   139    1
   106     7     6   ar
   107    70    73    1
   108   155   156    1
   109   156   158   ar
   110   145   144    1
   111   145   146    1
   112   122   123    2
   113    96    97    1
   114     6     8   ar
   115     6     5    1
   116    65    66    1
   117   146   147    1
   118    53    51    1
   119    68    67    2
   120    52    51    1
   121     5     2    1
   122    51    50    2
   123    66    67    1
   124    97    98   ar
   125    97    99   ar
   126   147   148    2
   127    98   100   ar
   128    50    49    1
   129   127   126    2
   130     2     1    1
   131     2     3    1
   132    49    48    1
   133    99   101   ar
   134   148   150    1
   135   148   149    1
   136    18    17    1
   137    18    19    1
   138   100   102   ar
   139    12    11    2
   140     9     3   am
   141     9    10    1
   142    25    26    1
   143    25    22    1
   144     3     4    2
   145    21    19   am
   146    21    22    1
   147    11    17   am
   148    11    10    1
   149   126   125    1
   150    31    32    1
   151    31    28    1
   152   129   130    1
   153   129   128    1
   154   132   130   ar
   155   125   128    1
   156   125   124    1
   157    48    47    1
   158   101   102   ar
   159    19    20    2
   160   102   103    1
   161    10    13    1
   162    47    44    1
   163    22    23    1
   164    27    28    1
   165    27    23   am
   166    34    32   ar
   167    34    36   ar
   168    13    14    1
   169    32    33   ar
   170    40    39    2
   171   130   131   ar
   172    62    60   ar
   173    62    64   ar
   174    28    29    1
   175    23    24    2
   176    36    35   ar
   177    33    35   ar
   178    37    29   am
   179    37    38    1
   180    41    38    1
   181    41    42    1
   182    60    59   ar
   183    46    45    2
   184    64    63   ar
   185    14    16   am
   186    14    15    2
   187    44    43    1
   188    44    45    1
   189    39    38    1
   190    29    30    2
   191    59    58    1
   192    59    61   ar
   193    63    61   ar
   194    58    55    1
   195    55    56    1
   196    55    54    1
   197    56    57    2
