@<TRIPOS>MOLECULE
tmp/6fmlE00.pdb
 184 176 0 0 0
SMALL
GASTEIGER

@<TRIPOS>ATOM
      1  N        208.7580  166.0040  157.3490 N.3     7  ALA7       -0.1231
      2  CA       210.1520  165.7970  156.9940 C.3     7  ALA7        0.1694
      3  C        211.0500  166.9210  157.4840 C.2     7  ALA7        0.2592
      4  O        212.2520  166.9020  157.2080 O.2     7  ALA7       -0.2718
      5  CB       210.2990  165.6470  155.4820 C.3     7  ALA7        0.0304
      6  N        210.4940  167.9160  158.1590 N.am    8  HIS8       -0.1976
      7  CA       211.2820  168.9950  158.7290 C.3     8  HIS8        0.1656
      8  C        210.7730  169.4200  160.0910 C.2     8  HIS8        0.2291
      9  O        210.9040  170.5870  160.4680 O.2     8  HIS8       -0.2864
     10  CB       211.3110  170.1830  157.7860 C.3     8  HIS8        0.0771
     11  CG       212.2000  169.9780  156.6100 C.ar    8  HIS8        0.0820
     12  ND1      211.7910  169.3380  155.4640 N.ar    8  HIS8       -0.2267
     13  CD2      213.4750  170.3690  156.3890 C.ar    8  HIS8        0.1154
     14  CE1      212.7870  169.3140  154.5980 C.ar    8  HIS8        0.1986
     15  NE2      213.8170  169.9420  155.1320 N.ar    8  HIS8       -0.2212
     16  N        212.0440  168.5260  162.8860 N.3    10  HIS10      -0.1241
     17  CA       213.1310  168.4370  163.8470 C.3    10  HIS10       0.1621
     18  C        214.0420  169.6510  163.8420 C.2    10  HIS10       0.2264
     19  O        215.0100  169.6830  164.6060 O.2    10  HIS10      -0.2867
     20  CB       213.9740  167.2010  163.5670 C.3    10  HIS10       0.0745
     21  CG       214.7470  167.2890  162.2940 C.ar   10  HIS10       0.0817
     22  ND1      214.2040  166.9700  161.0700 N.ar   10  HIS10      -0.2268
     23  CD2      216.0280  167.6510  162.0560 C.ar   10  HIS10       0.1154
     24  CE1      215.1170  167.1370  160.1320 C.ar   10  HIS10       0.1986
     25  NE2      216.2330  167.5490  160.7040 N.ar   10  HIS10      -0.2212
     26  N        218.9880  170.8630  165.4780 N.3    29  GLY29      -0.1210
     27  CA       218.5920  170.0190  164.3770 C.3    29  GLY29       0.1956
     28  C        219.5360  170.0260  163.1950 C.2    29  GLY29       0.2612
     29  O        219.8530  168.9630  162.6640 O.2    29  GLY29      -0.2717
     30  N        220.0090  171.1920  162.7760 N.am   30  LEU30      -0.1965
     31  CA       220.8810  171.2680  161.6090 C.3    30  LEU30       0.1728
     32  C        222.2690  170.7760  161.9860 C.2    30  LEU30       0.2616
     33  O        222.9740  171.4170  162.7720 O.2    30  LEU30      -0.2715
     34  CB       220.9360  172.6810  161.0430 C.3    30  LEU30       0.0311
     35  CG       219.6720  173.1640  160.3530 C.3    30  LEU30       0.0022
     36  CD1      219.8600  174.5960  159.9340 C.3    30  LEU30       0.0001
     37  CD2      219.4250  172.3000  159.1430 C.3    30  LEU30       0.0001
     38  N        222.6640  169.6320  161.4360 N.am   31  VAL31      -0.1977
     39  CA       223.8810  168.9510  161.8470 C.3    31  VAL31       0.1596
     40  C        224.7380  168.6890  160.6250 C.2    31  VAL31       0.2287
     41  O        224.3070  167.9930  159.7020 O.2    31  VAL31      -0.2864
     42  CB       223.5820  167.6290  162.5630 C.3    31  VAL31       0.0276
     43  CG1      224.8650  166.9190  162.8670 C.3    31  VAL31       0.0022
     44  CG2      222.8220  167.8830  163.8460 C.3    31  VAL31       0.0022
     45  N        226.4340  170.6700  158.1620 N.3    33  GLN33      -0.1245
     46  CA       226.7630  171.6480  157.1380 C.3    33  GLN33       0.1566
     47  C        227.3480  172.8640  157.8330 C.2    33  GLN33       0.2260
     48  O        226.7280  173.4150  158.7430 O.2    33  GLN33      -0.2867
     49  CB       225.5350  172.0130  156.3240 C.3    33  GLN33       0.0367
     50  CG       225.8880  172.7180  155.0630 C.3    33  GLN33       0.0905
     51  CD       226.6650  171.8170  154.1450 C.2    33  GLN33       0.2608
     52  OE1      227.8790  171.9510  154.0070 O.2    33  GLN33      -0.2717
     53  NE2      225.9730  170.8760  153.5190 N.am   33  GLN33      -0.0878
     54  N        225.9400  177.1290  156.4320 N.3    37  ARG37      -0.1245
     55  CA       225.1990  177.6640  157.5670 C.3    37  ARG37       0.1563
     56  C        225.8220  178.9360  158.1050 C.2    37  ARG37       0.2260
     57  O        225.1000  179.8060  158.5970 O.2    37  ARG37      -0.2867
     58  CB       225.0580  176.6190  158.6680 C.3    37  ARG37       0.0307
     59  CG       223.9460  175.6540  158.3640 C.3    37  ARG37       0.0489
     60  CD       223.8000  174.5170  159.3580 C.3    37  ARG37       0.2205
     61  NE       223.5230  174.9240  160.7250 N.pl3  37  ARG37      -0.0865
     62  CZ       224.3570  174.6990  161.7310 C.cat  37  ARG37       0.5346
     63  NH1      225.4990  174.0660  161.5060 N.pl3  37  ARG37       0.1354
     64  NH2      224.0460  175.0860  162.9580 N.pl3  37  ARG37       0.1354
     65  N        220.6950  167.3860  144.9590 N.3    63  PRO63      -0.2102
     66  CA       219.4830  166.9630  145.6730 C.3    63  PRO63       0.1504
     67  C        219.7760  166.3240  147.0160 C.2    63  PRO63       0.2576
     68  O        220.7600  165.6010  147.1720 O.2    63  PRO63      -0.2718
     69  CB       218.8540  165.9480  144.7180 C.3    63  PRO63       0.0282
     70  CG       219.3350  166.3370  143.4110 C.3    63  PRO63       0.0208
     71  CD       220.7250  166.8200  143.6020 C.3    63  PRO63       0.0893
     72  N        218.9050  166.6340  147.9860 N.am   64  SER64      -0.1938
     73  CA       218.9270  166.0720  149.3380 C.3    64  SER64       0.2055
     74  C        220.2350  166.4020  150.0430 C.2    64  SER64       0.2644
     75  O        220.8630  165.5460  150.6660 O.2    64  SER64      -0.2714
     76  CB       218.6650  164.5680  149.3330 C.3    64  SER64       0.2130
     77  OG       217.3760  164.2970  148.8380 O.3    64  SER64      -0.2179
     78  N        220.6680  167.6520  149.9250 N.am   65  THR65      -0.1936
     79  CA       221.8380  168.1220  150.6490 C.3    65  THR65       0.2028
     80  C        221.4920  169.2370  151.6170 C.2    65  THR65       0.2643
     81  O        222.3730  170.0010  152.0140 O.2    65  THR65      -0.2714
     82  CB       222.9270  168.5910  149.6920 C.3    65  THR65       0.1808
     83  OG1      222.4480  169.7060  148.9420 O.3    65  THR65      -0.2208
     84  CG2      223.2900  167.4850  148.7370 C.3    65  THR65       0.0379
     85  N        220.2230  169.3700  151.9730 N.am   66  GLY66      -0.1939
     86  CA       219.8540  170.3240  152.9940 C.3    66  GLY66       0.2014
     87  C        219.7940  171.7530  152.5210 C.2    66  GLY66       0.2639
     88  O        220.5630  172.6030  152.9670 O.2    66  GLY66      -0.2714
     89  N        218.8710  172.0320  151.6170 N.am   67  LYS67      -0.1963
     90  CA       218.6130  173.3860  151.1650 C.3    67  LYS67       0.1728
     91  C        217.3040  173.9160  151.7110 C.2    67  LYS67       0.2617
     92  O        217.2600  175.0170  152.2620 O.2    67  LYS67      -0.2715
     93  CB       218.6100  173.4390  149.6370 C.3    67  LYS67       0.0311
     94  CG       219.9470  173.0630  149.0790 C.3    67  LYS67       0.0038
     95  CD       220.0070  173.1510  147.5820 C.3    67  LYS67       0.0206
     96  CE       219.3020  171.9880  146.9630 C.3    67  LYS67       0.1093
     97  NZ       219.5400  171.9850  145.5090 N.3    67  LYS67      -0.1314
     98  N        216.2450  173.1190  151.6140 N.am   68  THR68      -0.1937
     99  CA       215.0140  173.4380  152.3170 C.3    68  THR68       0.2028
    100  C        215.2110  173.3760  153.8270 C.2    68  THR68       0.2642
    101  O        214.5440  174.1020  154.5720 O.2    68  THR68      -0.2714
    102  CB       213.9290  172.4580  151.8610 C.3    68  THR68       0.1808
    103  OG1      213.8820  172.4480  150.4320 O.3    68  THR68      -0.2208
    104  CG2      212.5520  172.8480  152.3750 C.3    68  THR68       0.0379
    105  N        216.1780  172.5900  154.2840 N.am   69  ALA69      -0.1977
    106  CA       216.5230  172.5740  155.6960 C.3    69  ALA69       0.1597
    107  C        217.1110  173.8980  156.1730 C.2    69  ALA69       0.2287
    108  O        216.7200  174.4030  157.2300 O.2    69  ALA69      -0.2864
    109  CB       217.4930  171.4330  155.9650 C.3    69  ALA69       0.0319
    110  N        212.6090  176.3890  144.2910 N.3   282  GLU282     -0.1245
    111  CA       212.7320  175.8350  142.9390 C.3   282  GLU282      0.1567
    112  C        212.6260  176.9320  141.8780 C.2   282  GLU282      0.2260
    113  O        211.7050  176.9720  141.0690 O.2   282  GLU282     -0.2867
    114  CB       211.6670  174.7630  142.6990 C.3   282  GLU282      0.0388
    115  CG       211.7450  173.5670  143.6020 C.3   282  GLU282      0.1160
    116  CD       212.9200  172.6750  143.3050 C.2   282  GLU282      0.3649
    117  OE1      213.3070  172.5900  142.1230 O.co2 282  GLU282     -0.2457
    118  OE2      213.4450  172.0420  144.2450 O.co2 282  GLU282     -0.2457
    119  N        218.3610  173.2420  141.8320 N.3   311  ASN311     -0.1240
    120  CA       218.9320  171.9070  141.7480 C.3   311  ASN311      0.1653
    121  C        219.6970  171.6700  140.4630 C.2   311  ASN311      0.2266
    122  O        220.7090  170.9720  140.4810 O.2   311  ASN311     -0.2867
    123  CB       217.8410  170.8520  141.8550 C.3   311  ASN311      0.1155
    124  CG       217.3120  170.7220  143.2390 C.2   311  ASN311      0.2627
    125  OD1      218.0710  170.7070  144.1950 O.2   311  ASN311     -0.2716
    126  ND2      216.0010  170.6270  143.3660 N.am  311  ASN311     -0.0877
    127  N        227.1210  164.7240  152.0770 N.3   344  TYR344     -0.1241
    128  CA       227.3070  164.4570  153.4960 C.3   344  TYR344      0.1605
    129  C        228.2590  163.2930  153.7380 C.2   344  TYR344      0.2264
    130  O        228.1660  162.2520  153.0850 O.2   344  TYR344     -0.2867
    131  CB       225.9630  164.1780  154.1610 C.3   344  TYR344      0.0534
    132  CG       225.1250  165.4060  154.4250 C.ar  344  TYR344     -0.0201
    133  CD1      225.7020  166.6630  154.5050 C.ar  344  TYR344     -0.0009
    134  CD2      223.7510  165.3050  154.5850 C.ar  344  TYR344     -0.0009
    135  CE1      224.9300  167.7880  154.7560 C.ar  344  TYR344      0.0417
    136  CE2      222.9720  166.4180  154.8280 C.ar  344  TYR344      0.0417
    137  CZ       223.5660  167.6550  154.9150 C.ar  344  TYR344      0.1957
    138  OH       222.7860  168.7610  155.1590 O.3   344  TYR344     -0.2866
    139  N        222.4280  162.4330  161.5270 N.3   352  ILE352     -0.1245
    140  CA       221.1570  162.9250  160.9960 C.3   352  ILE352      0.1561
    141  C        220.0780  161.8610  161.1110 C.2   352  ILE352      0.2260
    142  O        218.9350  162.1540  161.4900 O.2   352  ILE352     -0.2867
    143  CB       221.3300  163.4210  159.5500 C.3   352  ILE352      0.0252
    144  CG1      222.0850  164.7430  159.5370 C.3   352  ILE352      0.0019
    145  CG2      220.0070  163.5870  158.8410 C.3   352  ILE352      0.0019
    146  CD1      222.5890  165.1200  158.1820 C.3   352  ILE352      0.0001
    147  N        219.0310  161.9070  164.7280 N.3   355  ILE355     -0.1231
    148  CA       218.0830  162.9730  165.0420 C.3   355  ILE355      0.1692
    149  C        216.6940  162.6460  164.5070 C.2   355  ILE355      0.2591
    150  O        215.6900  162.8230  165.2070 O.2   355  ILE355     -0.2718
    151  CB       218.6000  164.3170  164.5070 C.3   355  ILE355      0.0266
    152  CG1      219.8710  164.6880  165.2450 C.3   355  ILE355      0.0019
    153  CG2      217.5790  165.4140  164.6950 C.3   355  ILE355      0.0020
    154  CD1      219.6520  164.8700  166.7230 C.3   355  ILE355      0.0001
    155  N        216.6130  162.1290  163.2790 N.am  356  ARG356     -0.1980
    156  CA       215.3280  161.7140  162.7310 C.3   356  ARG356      0.1597
    157  C        214.7400  160.5220  163.4580 C.2   356  ARG356      0.2287
    158  O        213.5200  160.3570  163.4580 O.2   356  ARG356     -0.2864
    159  CB       215.4650  161.3600  161.2560 C.3   356  ARG356      0.0334
    160  CG       215.7410  162.5280  160.3500 C.3   356  ARG356      0.0492
    161  CD       214.5790  163.4800  160.3530 C.3   356  ARG356      0.2205
    162  NE       213.3610  162.8110  159.9250 N.pl3 356  ARG356     -0.0865
    163  CZ       212.1430  163.2990  160.1160 C.cat 356  ARG356      0.5346
    164  NH1      211.0830  162.6240  159.6980 N.pl3 356  ARG356      0.1354
    165  NH2      211.9890  164.4700  160.7200 N.pl3 356  ARG356      0.1354
    166  N        219.4370  160.2630  151.9080 N.3   381  LEU381     -0.1231
    167  CA       218.8360  160.4820  153.2170 C.3   381  LEU381      0.1693
    168  C        217.3580  160.1590  153.2400 C.2   381  LEU381      0.2591
    169  O        216.8560  159.6550  154.2470 O.2   381  LEU381     -0.2718
    170  CB       219.0350  161.9260  153.6530 C.3   381  LEU381      0.0284
    171  CG       220.4130  162.2820  154.1730 C.3   381  LEU381      0.0019
    172  CD1      220.5180  163.7710  154.3920 C.3   381  LEU381      0.0001
    173  CD2      220.5820  161.5490  155.4710 C.3   381  LEU381      0.0001
    174  N        216.6550  160.4600  152.1510 N.am  382  ARG382     -0.1980
    175  CA       215.2050  160.3190  152.1230 C.3   382  ARG382      0.1597
    176  C        214.7880  158.8650  152.1990 C.2   382  ARG382      0.2287
    177  O        213.8190  158.5240  152.8940 O.2   382  ARG382     -0.2864
    178  CB       214.6480  160.9590  150.8560 C.3   382  ARG382      0.0334
    179  CG       214.8360  162.4500  150.7800 C.3   382  ARG382      0.0492
    180  CD       213.8630  163.1540  151.6930 C.3   382  ARG382      0.2205
    181  NE       214.0670  164.5960  151.6920 N.pl3 382  ARG382     -0.0865
    182  CZ       213.5390  165.4250  150.7990 C.cat 382  ARG382      0.5346
    183  NH1      212.7870  164.9520  149.8260 N.pl3 382  ARG382      0.1354
    184  NH2      213.7730  166.7290  150.8700 N.pl3 382  ARG382      0.1354
@<TRIPOS>BOND
     1   121   122    2
     2   121   120    1
     3   113   112    2
     4   120   119    1
     5   120   123    1
     6   123   124    1
     7   112   111    1
     8   117   116   ar
     9   114   111    1
    10   114   115    1
    11   111   110    1
    12   124   126   am
    13   124   125    2
    14   116   115    1
    15   116   118   ar
    16    70    71    1
    17    70    69    1
    18    71    65    1
    19    69    66    1
    20    65    66    1
    21    97    96    1
    22    66    67    1
    23    96    95    1
    24    67    68    2
    25    67    72   am
    26    95    94    1
    27    72    73    1
    28    84    82    1
    29    77    76    1
    30    83    82    1
    31    94    93    1
    32    76    73    1
    33    73    74    1
    34    93    90    1
    35    82    79    1
    36   183   182    1
    37    78    74   am
    38    78    79    1
    39    74    75    2
    40   103   102    1
    41    79    80    1
    42   179   178    1
    43   179   180    1
    44   182   184    1
    45   182   181    2
    46   178   175    1
    47    90    89    1
    48    90    91    1
    49    98    91   am
    50    98    99    1
    51    80    85   am
    52    80    81    2
    53    89    87   am
    54   181   180    1
    55    91    92    2
    56   102    99    1
    57   102   104    1
    58   166   167    1
    59    85    86    1
    60   127   128    1
    61   175   174    1
    62   175   176    1
    63   174   168   am
    64   176   177    2
    65    99   100    1
    66    87    88    2
    67    87    86    1
    68   130   129    2
    69   167   168    1
    70   167   170    1
    71   168   169    2
    72   128   129    1
    73   128   131    1
    74    53    51   am
    75   170   171    1
    76   100   105   am
    77   100   101    2
    78    52    51    2
    79    51    50    1
    80   131   132    1
    81   171   172    1
    82   171   173    1
    83   105   106    1
    84   132   133   ar
    85   132   134   ar
    86   133   135   ar
    87   134   136   ar
    88    14    15   ar
    89    14    12   ar
    90   135   137   ar
    91   136   137   ar
    92   137   138    1
    93    50    49    1
    94    15    13   ar
    95    12    11   ar
    96     5     2    1
    97   106   109    1
    98   106   107    1
    99   107   108    2
   100    49    46    1
   101    13    11   ar
   102    54    55    1
   103    11    10    1
   104     2     1    1
   105     2     3    1
   106    46    47    1
   107    46    45    1
   108     4     3    2
   109     3     6   am
   110    55    56    1
   111    55    58    1
   112    10     7    1
   113    47    48    2
   114    56    57    2
   115     6     7    1
   116   146   144    1
   117    59    58    1
   118    59    60    1
   119     7     8    1
   120   145   143    1
   121    37    35    1
   122    60    61    1
   123   144   143    1
   124   143   140    1
   125   164   163    1
   126    41    40    2
   127   162   163    2
   128   162   161    1
   129    36    35    1
   130     8     9    2
   131   163   165    1
   132    24    25   ar
   133    24    22   ar
   134   160   161    1
   135   160   159    1
   136    35    34    1
   137    40    39    1
   138    25    23   ar
   139    61    62    2
   140   140   141    1
   141   140   139    1
   142    34    31    1
   143    22    21   ar
   144   141   142    2
   145   159   156    1
   146    38    39    1
   147    38    32   am
   148    63    62    1
   149    31    32    1
   150    31    30    1
   151    62    64    1
   152    39    42    1
   153    32    33    2
   154    23    21   ar
   155    21    20    1
   156    42    43    1
   157    42    44    1
   158    29    28    2
   159   156   155    1
   160   156   157    1
   161    30    28   am
   162    16    17    1
   163    28    27    1
   164   155   149   am
   165   158   157    2
   166    20    17    1
   167    18    17    1
   168    18    19    2
   169    27    26    1
   170   151   153    1
   171   151   148    1
   172   151   152    1
   173   149   148    1
   174   149   150    2
   175   147   148    1
   176   152   154    1
