@<TRIPOS>MOLECULE
tmp/6fmnA00.pdb
 146 137 0 0 0
SMALL
GASTEIGER

@<TRIPOS>ATOM
      1  N          9.5240   11.8660   22.3590 N.3    92  ASP92      -0.1225
      2  CA        10.2870   12.9340   22.9910 C.3    92  ASP92       0.1805
      3  C          9.3940   13.6280   24.0230 C.2    92  ASP92       0.2598
      4  O          8.1660   13.5500   23.9640 O.2    92  ASP92      -0.2718
      5  CB        10.8280   13.9280   21.9590 C.3    92  ASP92       0.1424
      6  CG        11.9960   14.7550   22.4980 C.2    92  ASP92       0.3668
      7  OD1       12.4250   14.5330   23.6510 O.co2  92  ASP92      -0.2456
      8  OD2       12.5060   15.5960   21.7320 O.co2  92  ASP92      -0.2456
      9  N         10.0330   14.2720   25.0000 N.am   93  SER93      -0.1952
     10  CA         9.3820   14.6950   26.2390 C.3    93  SER93       0.1924
     11  C          8.8260   16.1120   26.1930 C.2    93  SER93       0.2314
     12  O          8.1230   16.5250   27.1240 O.2    93  SER93      -0.2863
     13  CB        10.3880   14.6340   27.3820 C.3    93  SER93       0.2116
     14  OG        11.4920   15.4490   27.0230 O.3    93  SER93      -0.2180
     15  N         12.7250   20.0060   24.2110 N.3    96  TYR96      -0.1227
     16  CA        13.3510   20.6460   23.0610 C.3    96  TYR96       0.1736
     17  C         12.3320   21.3930   22.2100 C.2    96  TYR96       0.2595
     18  O         12.5350   22.5690   21.8970 O.2    96  TYR96      -0.2718
     19  CB        14.0730   19.5810   22.2330 C.3    96  TYR96       0.0548
     20  CG        14.5740   20.0400   20.8790 C.ar   96  TYR96      -0.0200
     21  CD1       13.7740   19.9370   19.7450 C.ar   96  TYR96      -0.0009
     22  CD2       15.8440   20.5480   20.7300 C.ar   96  TYR96      -0.0009
     23  CE1       14.2200   20.3530   18.5190 C.ar   96  TYR96       0.0417
     24  CE2       16.3140   20.9500   19.4940 C.ar   96  TYR96       0.0417
     25  CZ        15.5000   20.8540   18.3910 C.ar   96  TYR96       0.1957
     26  OH        15.9510   21.2660   17.1560 O.3    96  TYR96      -0.2866
     27  N         11.2350   20.7230   21.8480 N.am   97  GLN97      -0.1979
     28  CA        10.2620   21.3070   20.9280 C.3    97  GLN97       0.1601
     29  C          9.5680   22.5330   21.5090 C.2    97  GLN97       0.2287
     30  O          9.2580   23.4620   20.7600 O.2    97  GLN97      -0.2864
     31  CB         9.2270   20.2670   20.4810 C.3    97  GLN97       0.0394
     32  CG         9.7920   19.1000   19.6690 C.3    97  GLN97       0.0908
     33  CD        10.3520   19.4740   18.3050 C.2    97  GLN97       0.2608
     34  OE1       10.0480   20.5240   17.7520 O.2    97  GLN97      -0.2717
     35  NE2       11.1690   18.5820   17.7470 N.am   97  GLN97      -0.0878
     36  N         13.6820   17.3780   29.8290 N.3   146  ASP146     -0.1239
     37  CA        14.9860   18.0190   29.9360 C.3   146  ASP146      0.1674
     38  C         14.9670   19.4180   29.3430 C.2   146  ASP146      0.2266
     39  O         13.9150   19.9160   28.9260 O.2   146  ASP146     -0.2867
     40  CB        16.0450   17.1800   29.1970 C.3   146  ASP146      0.1410
     41  CG        15.8440   17.1600   27.6830 C.2   146  ASP146      0.3668
     42  OD1       14.6770   17.2530   27.2320 O.co2 146  ASP146     -0.2456
     43  OD2       16.8680   17.0870   26.9480 O.co2 146  ASP146     -0.2456
     44  N         17.2770   21.4850   26.4000 N.3   148  CYS148     -0.1235
     45  CA        18.3370   21.4180   25.4030 C.3   148  CYS148      0.1677
     46  C         19.0510   22.7660   25.3850 C.2   148  CYS148      0.2270
     47  O         18.5140   23.7460   24.8720 O.2   148  CYS148     -0.2867
     48  CB        17.7480   21.0950   24.0310 C.3   148  CYS148      0.0956
     49  SG        19.0030   20.9990   22.7110 S.3   148  CYS148     -0.0801
     50  N         18.5200   11.8230   29.6060 N.3   191  ILE191     -0.1245
     51  CA        19.1350   12.6310   28.5500 C.3   191  ILE191      0.1561
     52  C         20.3280   13.3900   29.1140 C.2   191  ILE191      0.2260
     53  O         20.1740   14.2570   29.9850 O.2   191  ILE191     -0.2867
     54  CB        18.1430   13.5950   27.8820 C.3   191  ILE191      0.0252
     55  CG1       16.9000   12.8430   27.3660 C.3   191  ILE191      0.0019
     56  CG2       18.8330   14.3300   26.7490 C.3   191  ILE191      0.0019
     57  CD1       15.7950   13.7720   26.8890 C.3   191  ILE191      0.0001
     58  N         23.1880   16.1450   29.1380 N.3   193  GLN193     -0.1245
     59  CA        23.4150   17.5120   28.6720 C.3   193  GLN193      0.1566
     60  C         24.8460   17.9280   29.0210 C.2   193  GLN193      0.2260
     61  O         25.6860   17.0630   29.2890 O.2   193  GLN193     -0.2867
     62  CB        22.3430   18.4650   29.2260 C.3   193  GLN193      0.0367
     63  CG        20.9170   18.1100   28.7480 C.3   193  GLN193      0.0905
     64  CD        20.6510   18.4310   27.2790 C.2   193  GLN193      0.2608
     65  OE1       21.4220   19.1370   26.6280 O.2   193  GLN193     -0.2717
     66  NE2       19.5700   17.8800   26.7460 N.am  193  GLN193     -0.0878
     67  N         21.8020   14.3440   24.5240 N.3   219  GLY219     -0.1210
     68  CA        21.0690   15.5220   24.1300 C.3   219  GLY219      0.1956
     69  C         22.0020   16.6820   23.8770 C.2   219  GLY219      0.2612
     70  O         23.2140   16.5910   24.0480 O.2   219  GLY219     -0.2717
     71  N         21.4130   17.7930   23.4580 N.am  220  GLY220     -0.1942
     72  CA        22.1720   19.0240   23.3280 C.3   220  GLY220      0.2014
     73  C         23.0420   19.1140   22.0980 C.2   220  GLY220      0.2639
     74  O         23.8500   20.0460   22.0000 O.2   220  GLY220     -0.2714
     75  N         22.9180   18.1770   21.1630 N.am  221  LEU221     -0.1963
     76  CA        23.6620   18.2180   19.9180 C.3   221  LEU221      0.1728
     77  C         22.6770   18.3440   18.7500 C.2   221  LEU221      0.2616
     78  O         21.4580   18.4230   18.9340 O.2   221  LEU221     -0.2715
     79  CB        24.6220   17.0250   19.7960 C.3   221  LEU221      0.0311
     80  CG        25.7090   16.9470   20.8690 C.3   221  LEU221      0.0022
     81  CD1       26.4740   15.6570   20.7450 C.3   221  LEU221      0.0001
     82  CD2       26.6620   18.1400   20.8290 C.3   221  LEU221      0.0001
     83  N         23.2150   18.3990   17.5360 N.am  222  ALA222     -0.1963
     84  CA        22.4220   18.7490   16.3610 C.3   222  ALA222      0.1728
     85  C         21.6510   20.0460   16.6100 C.2   222  ALA222      0.2616
     86  O         20.4410   20.1440   16.3900 O.2   222  ALA222     -0.2715
     87  CB        21.5170   17.6010   15.8950 C.3   222  ALA222      0.0334
     88  N         22.3930   21.0520   17.0860 N.am  223  VAL223     -0.1977
     89  CA        21.8740   22.3800   17.4100 C.3   223  VAL223      0.1596
     90  C         22.7050   23.4620   16.7310 C.2   223  VAL223      0.2287
     91  O         22.7350   24.6070   17.1940 O.2   223  VAL223     -0.2864
     92  CB        21.8290   22.6060   18.9320 C.3   223  VAL223      0.0276
     93  CG1       20.7360   21.7560   19.5600 C.3   223  VAL223      0.0022
     94  CG2       23.1870   22.3200   19.5710 C.3   223  VAL223      0.0022
     95  N         19.9500   12.1850   19.7950 N.3   250  MET250     -0.1230
     96  CA        18.6800   12.7960   19.4270 C.3   250  MET250      0.1702
     97  C         18.8430   13.7510   18.2450 C.2   250  MET250      0.2592
     98  O         19.6960   14.6460   18.2690 O.2   250  MET250     -0.2718
     99  CB        18.0870   13.5370   20.6310 C.3   250  MET250      0.0401
    100  CG        18.0230   12.6830   21.9230 C.3   250  MET250      0.0596
    101  SD        16.9840   13.3920   23.2170 S.3   250  MET250     -0.1393
    102  CE        15.3640   13.0750   22.5120 C.3   250  MET250      0.0692
    103  N         18.0000   13.5660   17.2300 N.am  251  GLY251     -0.1957
    104  CA        17.9080   14.4580   16.0880 C.3   251  GLY251      0.1869
    105  C         18.9370   14.2500   14.9950 C.2   251  GLY251      0.2309
    106  O         19.0140   15.0780   14.0800 O.2   251  GLY251     -0.2863
    107  N         17.1090    9.3660   15.3650 N.3   270  ASP270     -0.1225
    108  CA        15.8880    9.8560   14.7220 C.3   270  ASP270      0.1805
    109  C         16.2150   11.1450   13.9880 C.2   270  ASP270      0.2598
    110  O         17.0730   11.9110   14.4260 O.2   270  ASP270     -0.2718
    111  CB        14.7960   10.1920   15.7430 C.3   270  ASP270      0.1424
    112  CG        15.0560   11.5110   16.4610 C.2   270  ASP270      0.3668
    113  OD1       15.8580   11.5180   17.4210 O.co2 270  ASP270     -0.2456
    114  OD2       14.4770   12.5360   16.0410 O.co2 270  ASP270     -0.2456
    115  N         15.4770   11.4030   12.9060 N.am  271  CYS271     -0.1956
    116  CA        15.7300   12.5990   12.1240 C.3   271  CYS271      0.1843
    117  C         14.5830   12.8360   11.1520 C.2   271  CYS271      0.2625
    118  O         14.0420   11.8810   10.5880 O.2   271  CYS271     -0.2714
    119  CB        17.0420   12.4150   11.3600 C.3   271  CYS271      0.0997
    120  SG        17.6690   13.9110   10.7430 S.3   271  CYS271     -0.0797
    121  N         14.2180   14.1100   10.9500 N.am  272  VAL272     -0.1963
    122  CA        13.2330   14.4320    9.9190 C.3   272  VAL272      0.1727
    123  C         13.8110   14.4580    8.5090 C.2   272  VAL272      0.2616
    124  O         13.0440   14.5430    7.5490 O.2   272  VAL272     -0.2715
    125  CB        12.4970   15.7670   10.1610 C.3   272  VAL272      0.0290
    126  CG1       11.7590   15.7320   11.4910 C.3   272  VAL272      0.0023
    127  CG2       13.4560   16.9410   10.0960 C.3   272  VAL272      0.0023
    128  N         15.1260   14.3770    8.3420 N.am  273  LEU273     -0.1977
    129  CA        15.7100   14.5700    7.0160 C.3   273  LEU273      0.1596
    130  C         15.1080   13.6670    5.9420 C.2   273  LEU273      0.2287
    131  O         14.7340   14.1840    4.8750 O.2   273  LEU273     -0.2864
    132  CB        17.2380   14.4420    7.0910 C.3   273  LEU273      0.0297
    133  CG        18.0740   14.7430    5.8440 C.3   273  LEU273      0.0022
    134  CD1       17.9260   16.2030    5.4410 C.3   273  LEU273      0.0001
    135  CD2       19.5340   14.4140    6.1140 C.3   273  LEU273      0.0001
    136  N         11.2370   14.9060    5.4310 N.3   276  ARG276     -0.1245
    137  CA        11.1080   16.2920    5.0050 C.3   276  ARG276      0.1563
    138  C         11.8290   16.5440    3.6880 C.2   276  ARG276      0.2260
    139  O         11.2830   17.1710    2.7720 O.2   276  ARG276     -0.2867
    140  CB        11.6540   17.2060    6.0960 C.3   276  ARG276      0.0307
    141  CG        11.4040   18.6630    5.7910 C.3   276  ARG276      0.0489
    142  CD        11.5590   19.5130    7.0160 C.3   276  ARG276      0.2205
    143  NE        12.9420   19.6640    7.3970 N.pl3 276  ARG276     -0.0865
    144  CZ        13.3340   20.2410    8.5300 C.cat 276  ARG276      0.5346
    145  NH1       12.4370   20.7080    9.4010 N.pl3 276  ARG276      0.1354
    146  NH2       14.6260   20.3440    8.8000 N.pl3 276  ARG276      0.1354
@<TRIPOS>BOND
     1   139   138    2
     2   138   137    1
     3   131   130    2
     4   137   136    1
     5   137   140    1
     6   134   133    1
     7   141   140    1
     8   141   142    1
     9   133   135    1
    10   133   132    1
    11   130   129    1
    12   142   143    1
    13   129   132    1
    14   129   128    1
    15   143   144    2
    16   124   123    2
    17   128   123   am
    18   123   122    1
    19   144   146    1
    20   144   145    1
    21   122   125    1
    22   122   121    1
    23   127   125    1
    24   125   126    1
    25   118   117    2
    26   120   119    1
    27   121   117   am
    28   117   116    1
    29   119   116    1
    30   116   115    1
    31   115   109   am
    32   109   110    2
    33   109   108    1
    34   106   105    2
    35   108   107    1
    36   108   111    1
    37   105   104    1
    38   111   112    1
    39    87    84    1
    40   114   112   ar
    41   104   103    1
    42    84    85    1
    43    84    83    1
    44    86    85    2
    45   112   113   ar
    46    85    88   am
    47    90    91    2
    48    90    89    1
    49    88    89    1
    50    26    25    1
    51   103    97   am
    52    89    92    1
    53    83    77   am
    54    35    33   am
    55    34    33    2
    56    97    98    2
    57    97    96    1
    58    33    32    1
    59    25    23   ar
    60    25    24   ar
    61    23    21   ar
    62    77    78    2
    63    77    76    1
    64    92    93    1
    65    92    94    1
    66    96    95    1
    67    96    99    1
    68    24    22   ar
    69    32    31    1
    70    21    20   ar
    71    79    76    1
    72    79    80    1
    73    76    75    1
    74    31    28    1
    75    99   100    1
    76    22    20   ar
    77    81    80    1
    78    30    29    2
    79    82    80    1
    80    20    19    1
    81    28    29    1
    82    28    27    1
    83    75    73   am
    84     8     6   ar
    85    27    17   am
    86    18    17    2
    87   100   101    1
    88     5     6    1
    89     5     2    1
    90    74    73    2
    91    73    72    1
    92    17    16    1
    93    19    16    1
    94     1     2    1
    95     6     7   ar
    96   102   101    1
    97    49    48    1
    98     2     3    1
    99    16    15    1
   100    72    71    1
   101    71    69   am
   102    69    70    2
   103    69    68    1
   104     4     3    2
   105     3     9   am
   106    48    45    1
   107    68    67    1
   108    47    46    2
   109     9    10    1
   110    46    45    1
   111    45    44    1
   112    11    10    1
   113    11    12    2
   114    10    13    1
   115    65    64    2
   116    66    64   am
   117    56    54    1
   118    57    55    1
   119    43    41   ar
   120    14    13    1
   121    42    41   ar
   122    64    63    1
   123    55    54    1
   124    41    40    1
   125    54    51    1
   126    51    52    1
   127    51    50    1
   128    59    60    1
   129    59    58    1
   130    59    62    1
   131    63    62    1
   132    39    38    2
   133    60    61    2
   134    52    53    2
   135    40    37    1
   136    38    37    1
   137    36    37    1
