@<TRIPOS>MOLECULE
tmp/6fmoA01.pdb
 207 195 0 0 0
SMALL
GASTEIGER

@<TRIPOS>ATOM
      1  N        -45.0810  -16.9970   19.3990 N.3    73  TYR73      -0.1241
      2  CA       -44.4240  -15.7460   19.0320 C.3    73  TYR73       0.1605
      3  C        -44.2990  -15.5850   17.5210 C.2    73  TYR73       0.2264
      4  O        -43.3340  -15.0040   17.0270 O.2    73  TYR73      -0.2867
      5  CB       -43.0380  -15.6360   19.6700 C.3    73  TYR73       0.0534
      6  CG       -43.0320  -15.6940   21.1800 C.ar   73  TYR73      -0.0201
      7  CD1      -44.0300  -15.0750   21.9210 C.ar   73  TYR73      -0.0009
      8  CD2      -41.9240  -16.1820   21.8620 C.ar   73  TYR73      -0.0009
      9  CE1      -43.9810  -15.0420   23.3000 C.ar   73  TYR73       0.0417
     10  CE2      -41.8670  -16.1600   23.2420 C.ar   73  TYR73       0.0417
     11  CZ       -42.9000  -15.5900   23.9530 C.ar   73  TYR73       0.1957
     12  OH       -42.8630  -15.5810   25.3260 O.3    73  TYR73      -0.2866
     13  N        -46.3800  -13.7510   15.9790 N.3    75  PHE75      -0.1227
     14  CA       -46.7970  -12.3640   15.8100 C.3    75  PHE75       0.1736
     15  C        -45.6080  -11.4280   15.6120 C.2    75  PHE75       0.2595
     16  O        -45.7790  -10.2620   15.2540 O.2    75  PHE75      -0.2718
     17  CB       -47.5880  -11.9010   17.0340 C.3    75  PHE75       0.0547
     18  CG       -46.7250  -11.5650   18.2160 C.ar   75  PHE75      -0.0202
     19  CD1      -46.2200  -10.2850   18.3750 C.ar   75  PHE75      -0.0042
     20  CD2      -46.3390  -12.5470   19.1130 C.ar   75  PHE75      -0.0042
     21  CE1      -45.4010   -9.9730   19.4440 C.ar   75  PHE75      -0.0003
     22  CE2      -45.5250  -12.2410   20.1870 C.ar   75  PHE75      -0.0003
     23  CZ       -45.0730  -10.9490   20.3660 C.ar   75  PHE75      -0.0000
     24  N        -44.4090  -11.9250   15.8970 N.am   76  MET76      -0.1979
     25  CA       -43.2130  -11.0890   15.8960 C.3    76  MET76       0.1605
     26  C        -42.5620  -10.9880   14.5190 C.2    76  MET76       0.2287
     27  O        -41.7590  -10.0870   14.2750 O.2    76  MET76      -0.2864
     28  CB       -42.1960  -11.6360   16.8990 C.3    76  MET76       0.0413
     29  CG       -41.2870  -10.5750   17.4950 C.3    76  MET76       0.0598
     30  SD       -42.1790   -9.5300   18.6610 S.3    76  MET76      -0.1393
     31  CE       -41.0030   -8.2020   18.9140 C.3    76  MET76       0.0692
     32  N        -39.6160   -8.2720   12.4430 N.3    80  PHE80      -0.1241
     33  CA       -38.2640   -8.5660   11.9830 C.3    80  PHE80       0.1605
     34  C        -38.2690   -9.0310   10.5310 C.2    80  PHE80       0.2264
     35  O        -37.4810   -8.5550    9.7150 O.2    80  PHE80      -0.2867
     36  CB       -37.6070   -9.6250   12.8700 C.3    80  PHE80       0.0534
     37  CG       -37.6300   -9.2850   14.3320 C.ar   80  PHE80      -0.0203
     38  CD1      -37.2040   -8.0450   14.7780 C.ar   80  PHE80      -0.0042
     39  CD2      -37.9980  -10.2350   15.2690 C.ar   80  PHE80      -0.0042
     40  CE1      -37.2200   -7.7300   16.1240 C.ar   80  PHE80      -0.0003
     41  CE2      -38.0140   -9.9290   16.6180 C.ar   80  PHE80      -0.0003
     42  CZ       -37.6100   -8.6790   17.0480 C.ar   80  PHE80      -0.0000
     43  N        -35.8310  -14.7090   10.7120 N.3    84  VAL84      -0.1231
     44  CA       -35.3740  -13.9950   11.8980 C.3    84  VAL84       0.1692
     45  C        -36.2670  -14.3060   13.0920 C.2    84  VAL84       0.2592
     46  O        -37.4640  -14.5550   12.9440 O.2    84  VAL84      -0.2718
     47  CB       -35.3390  -12.4740   11.6630 C.3    84  VAL84       0.0266
     48  CG1      -34.0450  -12.0830   10.9670 C.3    84  VAL84       0.0020
     49  CG2      -36.5450  -12.0370   10.8470 C.3    84  VAL84       0.0020
     50  N        -35.6660  -14.2930   14.2770 N.am   85  ALA85      -0.1966
     51  CA       -36.3640  -14.6550   15.5040 C.3    85  ALA85       0.1728
     52  C        -36.9770  -16.0490   15.3840 C.2    85  ALA85       0.2616
     53  O        -36.2920  -17.0000   15.0090 O.2    85  ALA85      -0.2715
     54  CB       -37.4210  -13.6140   15.8450 C.3    85  ALA85       0.0334
     55  N        -38.2820  -16.1500   15.6140 N.am   86  TYR86      -0.1974
     56  CA       -38.9210  -17.4540   15.7730 C.3    86  TYR86       0.1639
     57  C        -39.5130  -17.9950   14.4740 C.2    86  TYR86       0.2290
     58  O        -40.3070  -18.9360   14.4910 O.2    86  TYR86      -0.2864
     59  CB       -39.9940  -17.3830   16.8620 C.3    86  TYR86       0.0560
     60  CG       -39.4520  -16.9360   18.2020 C.ar   86  TYR86      -0.0198
     61  CD1      -38.8160  -17.8320   19.0510 C.ar   86  TYR86      -0.0009
     62  CD2      -39.5060  -15.6020   18.5820 C.ar   86  TYR86      -0.0009
     63  CE1      -38.2690  -17.4160   20.2510 C.ar   86  TYR86       0.0417
     64  CE2      -38.9640  -15.1770   19.7800 C.ar   86  TYR86       0.0417
     65  CZ       -38.3420  -16.0860   20.6090 C.ar   86  TYR86       0.1957
     66  OH       -37.8300  -15.6610   21.8130 O.3    86  TYR86      -0.2866
     67  N        -32.3140  -20.2260   14.2380 N.3    93  MET93      -0.1245
     68  CA       -32.4480  -19.2350   15.3010 C.3    93  MET93       0.1570
     69  C        -31.2270  -19.2960   16.2150 C.2    93  MET93       0.2261
     70  O        -30.6770  -18.2650   16.5920 O.2    93  MET93      -0.2867
     71  CB       -33.7360  -19.3940   16.1090 C.3    93  MET93       0.0387
     72  CG       -33.9790  -18.1890   17.0080 C.3    93  MET93       0.0595
     73  SD       -35.5500  -18.1430   17.8910 S.3    93  MET93      -0.1393
     74  CE       -35.1330  -19.0380   19.3850 C.3    93  MET93       0.0692
     75  N        -28.2970  -17.4860   14.3120 N.3    96  GLN96      -0.1231
     76  CA       -28.3350  -16.0310   14.4780 C.3    96  GLN96       0.1698
     77  C        -28.0880  -15.5350   15.9220 C.2    96  GLN96       0.2592
     78  O        -27.4690  -14.5050   16.1930 O.2    96  GLN96      -0.2718
     79  CB       -29.7380  -15.4990   14.1730 C.3    96  GLN96       0.0381
     80  CG       -30.1840  -15.6160   12.7240 C.3    96  GLN96       0.0905
     81  CD       -31.6060  -15.1390   12.5030 C.2    96  GLN96       0.2608
     82  OE1      -32.4200  -15.1480   13.4250 O.2    96  GLN96      -0.2717
     83  NE2      -31.9080  -14.6990   11.2860 N.am   96  GLN96      -0.0878
     84  N        -28.5250  -16.3860   16.8460 N.am   97  LEU97      -0.1980
     85  CA       -28.4400  -16.1070   18.2750 C.3    97  LEU97       0.1596
     86  C        -26.9520  -16.0610   18.6010 C.2    97  LEU97       0.2287
     87  O        -26.4980  -15.1620   19.3070 O.2    97  LEU97      -0.2864
     88  CB       -29.1480  -17.0740   19.2280 C.3    97  LEU97       0.0297
     89  CG       -30.6400  -16.7940   19.4230 C.3    97  LEU97       0.0022
     90  CD1      -31.3750  -18.0380   19.8990 C.3    97  LEU97       0.0001
     91  CD2      -30.8360  -15.6330   20.3850 C.3    97  LEU97       0.0001
     92  N        -25.0820  -13.0220   17.4600 N.3   100  LEU100     -0.1245
     93  CA       -25.2660  -11.9470   18.4290 C.3   100  LEU100      0.1561
     94  C        -24.3680  -12.1830   19.6390 C.2   100  LEU100      0.2260
     95  O        -23.6430  -11.2890   20.0770 O.2   100  LEU100     -0.2867
     96  CB       -26.7310  -11.8790   18.8640 C.3   100  LEU100      0.0270
     97  CG       -27.0820  -10.8590   19.9510 C.3   100  LEU100      0.0019
     98  CD1      -26.7790   -9.4400   19.4930 C.3   100  LEU100      0.0001
     99  CD2      -28.5450  -10.9960   20.3460 C.3   100  LEU100      0.0001
    100  N        -51.0210  -10.2610   20.1040 N.3   183  VAL183     -0.1245
    101  CA       -50.2370  -11.4750   20.3260 C.3   183  VAL183      0.1561
    102  C        -51.1260  -12.6930   20.5590 C.2   183  VAL183      0.2260
    103  O        -50.9220  -13.7520   19.9600 O.2   183  VAL183     -0.2867
    104  CB       -49.2650  -11.3310   21.5140 C.3   183  VAL183      0.0252
    105  CG1      -47.8910  -10.9080   21.0260 C.3   183  VAL183      0.0019
    106  CG2      -49.7830  -10.3370   22.5410 C.3   183  VAL183      0.0019
    107  N        -20.7120   -6.5420   14.0460 N.3   231  LEU231     -0.1245
    108  CA       -21.8060   -7.4690   13.7820 C.3   231  LEU231      0.1561
    109  C        -22.1650   -7.5020   12.2980 C.2   231  LEU231      0.2260
    110  O        -22.1220   -8.5560   11.6650 O.2   231  LEU231     -0.2867
    111  CB       -23.0350   -7.1050   14.6180 C.3   231  LEU231      0.0270
    112  CG       -24.2400   -8.0410   14.4860 C.3   231  LEU231      0.0019
    113  CD1      -23.8470   -9.4940   14.7100 C.3   231  LEU231      0.0001
    114  CD2      -25.3360   -7.6390   15.4610 C.3   231  LEU231      0.0001
    115  N        -32.4180   -8.6150   10.6670 N.3   254  MET254     -0.1245
    116  CA       -31.6170   -8.8940   11.8550 C.3   254  MET254      0.1570
    117  C        -31.1510   -7.6020   12.5200 C.2   254  MET254      0.2261
    118  O        -31.2960   -7.4300   13.7290 O.2   254  MET254     -0.2867
    119  CB       -30.4100   -9.7630   11.5000 C.3   254  MET254      0.0387
    120  CG       -30.7650  -11.2240   11.2740 C.3   254  MET254      0.0595
    121  SD       -29.4050  -12.3580   11.6070 S.3   254  MET254     -0.1393
    122  CE       -29.1430  -12.0790   13.3560 C.3   254  MET254      0.0692
    123  N        -33.7690   -6.2800   14.5780 N.3   257  ALA257     -0.1231
    124  CA       -33.9820   -7.0240   15.8180 C.3   257  ALA257      0.1694
    125  C        -32.9250   -6.7100   16.8730 C.2   257  ALA257      0.2591
    126  O        -33.2540   -6.4640   18.0330 O.2   257  ALA257     -0.2718
    127  CB       -34.0140   -8.5180   15.5400 C.3   257  ALA257      0.0304
    128  N        -31.6570   -6.7620   16.4790 N.am  258  ALA258     -0.1980
    129  CA       -30.5610   -6.4700   17.3960 C.3   258  ALA258      0.1597
    130  C        -30.7490   -5.1050   18.0530 C.2   258  ALA258      0.2287
    131  O        -30.5540   -4.9530   19.2590 O.2   258  ALA258     -0.2864
    132  CB       -29.2320   -6.5240   16.6610 C.3   258  ALA258      0.0319
    133  N        -33.6650   -3.4860   18.3040 N.3   260  PHE260     -0.1227
    134  CA       -34.9000   -3.5240   19.0820 C.3   260  PHE260      0.1736
    135  C        -34.6210   -3.9720   20.5120 C.2   260  PHE260      0.2595
    136  O        -34.9430   -3.2720   21.4720 O.2   260  PHE260     -0.2718
    137  CB       -35.9160   -4.4670   18.4330 C.3   260  PHE260      0.0547
    138  CG       -37.2760   -4.4290   19.0700 C.ar  260  PHE260     -0.0202
    139  CD1      -37.9840   -3.2410   19.1440 C.ar  260  PHE260     -0.0042
    140  CD2      -37.8900   -5.5970   19.4920 C.ar  260  PHE260     -0.0042
    141  CE1      -39.2350   -3.1980   19.7310 C.ar  260  PHE260     -0.0003
    142  CE2      -39.1570   -5.5690   20.0450 C.ar  260  PHE260     -0.0003
    143  CZ       -39.8270   -4.3670   20.1710 C.ar  260  PHE260     -0.0000
    144  N        -34.0220   -5.1510   20.6380 N.am  261  ALA261     -0.1980
    145  CA       -33.6630   -5.6970   21.9440 C.3   261  ALA261      0.1597
    146  C        -32.7030   -4.7630   22.6750 C.2   261  ALA261      0.2287
    147  O        -32.8580   -4.4970   23.8680 O.2   261  ALA261     -0.2864
    148  CB       -33.0350   -7.0720   21.7850 C.3   261  ALA261      0.0319
    149  N        -36.5250   -2.1600   25.2980 N.3   265  THR265     -0.1218
    150  CA       -36.6700   -2.5570   26.6960 C.3   265  THR265      0.1862
    151  C        -35.7010   -1.7850   27.5860 C.2   265  THR265      0.2287
    152  O        -36.0340   -1.4280   28.7160 O.2   265  THR265     -0.2866
    153  CB       -36.4230   -4.0640   26.8990 C.3   265  THR265      0.1770
    154  OG1      -35.1970   -4.4430   26.2620 O.3   265  THR265     -0.2211
    155  CG2      -37.5690   -4.8790   26.3190 C.3   265  THR265      0.0375
    156  N        -41.7330   -6.4860   29.6080 N.3   326  LEU326     -0.1245
    157  CA       -42.4750   -7.5400   28.9240 C.3   326  LEU326      0.1561
    158  C        -43.4640   -8.1850   29.8920 C.2   326  LEU326      0.2260
    159  O        -43.0620   -8.8490   30.8460 O.2   326  LEU326     -0.2867
    160  CB       -41.5260   -8.5890   28.3410 C.3   326  LEU326      0.0270
    161  CG       -40.3290   -8.0630   27.5430 C.3   326  LEU326      0.0019
    162  CD1      -39.6130   -9.2100   26.8470 C.3   326  LEU326      0.0001
    163  CD2      -40.7460   -7.0030   26.5330 C.3   326  LEU326      0.0001
    164  N        -46.0720  -10.5500   29.4180 N.3   328  MET328     -0.1230
    165  CA       -46.4240  -11.9630   29.3070 C.3   328  MET328      0.1702
    166  C        -45.4170  -12.7740   28.4990 C.2   328  MET328      0.2592
    167  O        -45.2420  -12.5560   27.3010 O.2   328  MET328     -0.2718
    168  CB       -47.8030  -12.1110   28.6590 C.3   328  MET328      0.0401
    169  CG       -48.9540  -11.5530   29.4800 C.3   328  MET328      0.0596
    170  SD       -49.5200  -12.6710   30.7770 S.3   328  MET328     -0.1393
    171  CE       -50.2090  -14.0210   29.8230 C.3   328  MET328      0.0692
    172  N        -44.7500  -13.7040   29.1740 N.am  329  VAL329     -0.1966
    173  CA       -43.9550  -14.7210   28.5030 C.3   329  VAL329      0.1727
    174  C        -44.8800  -15.9030   28.2290 C.2   329  VAL329      0.2616
    175  O        -45.6810  -16.2800   29.0820 O.2   329  VAL329     -0.2715
    176  CB       -42.7600  -15.1650   29.3650 C.3   329  VAL329      0.0290
    177  CG1      -42.0590  -16.3550   28.7310 C.3   329  VAL329      0.0023
    178  CG2      -41.7850  -14.0110   29.5430 C.3   329  VAL329      0.0023
    179  N        -44.7930  -16.4670   27.0300 N.am  330  MET330     -0.1977
    180  CA       -45.7680  -17.4590   26.5840 C.3   330  MET330      0.1605
    181  C        -45.1200  -18.6610   25.9030 C.2   330  MET330      0.2287
    182  O        -44.0380  -18.5510   25.3270 O.2   330  MET330     -0.2864
    183  CB       -46.7600  -16.8090   25.6200 C.3   330  MET330      0.0413
    184  CG       -47.2340  -15.4290   26.0460 C.3   330  MET330      0.0598
    185  SD       -48.3700  -14.6880   24.8600 S.3   330  MET330     -0.1393
    186  CE       -48.3370  -12.9770   25.3920 C.3   330  MET330      0.0692
    187  N        -32.9080  -14.4110   29.1540 N.3   392  CYS392     -0.1235
    188  CA       -32.3690  -13.3150   28.3560 C.3   392  CYS392      0.1677
    189  C        -30.8470  -13.3720   28.3220 C.2   392  CYS392      0.2270
    190  O        -30.1950  -13.4450   29.3630 O.2   392  CYS392     -0.2867
    191  CB       -32.8330  -11.9710   28.9200 C.3   392  CYS392      0.0956
    192  SG       -32.3180  -10.5350   27.9510 S.3   392  CYS392     -0.0801
    193  N        -48.0340   -3.6530   24.4590 N.3   430  MET430     -0.1230
    194  CA       -47.6950   -4.9010   25.1380 C.3   430  MET430      0.1702
    195  C        -46.2970   -4.7980   25.7420 C.2   430  MET430      0.2592
    196  O        -46.0090   -5.4120   26.7670 O.2   430  MET430     -0.2718
    197  CB       -47.7850   -6.1010   24.1940 C.3   430  MET430      0.0401
    198  CG       -49.0240   -6.9600   24.4020 C.3   430  MET430      0.0596
    199  SD       -49.1480   -7.6670   26.0580 S.3   430  MET430     -0.1393
    200  CE       -47.5740   -8.5110   26.1970 C.3   430  MET430      0.0692
    201  N        -45.4120   -4.0840   25.0530 N.am  431  VAL431     -0.1980
    202  CA       -44.1140   -3.7140   25.6060 C.3   431  VAL431      0.1595
    203  C        -44.2950   -2.4360   26.4230 C.2   431  VAL431      0.2287
    204  O        -44.2970   -1.3280   25.8870 O.2   431  VAL431     -0.2864
    205  CB       -43.0630   -3.5150   24.4990 C.3   431  VAL431      0.0276
    206  CG1      -41.7420   -3.0320   25.0820 C.3   431  VAL431      0.0022
    207  CG2      -42.8660   -4.8150   23.7340 C.3   431  VAL431      0.0022
@<TRIPOS>BOND
     1    35    34    2
     2    34    33    1
     3   115   116    1
     4    43    44    1
     5    49    47    1
     6    48    47    1
     7   120   119    1
     8   120   121    1
     9    83    81   am
    10   119   116    1
    11   121   122    1
    12    47    44    1
    13   110   109    2
    14   116   117    1
    15    44    45    1
    16    33    32    1
    17    33    36    1
    18   109   108    1
    19    81    80    1
    20    81    82    2
    21   117   118    2
    22    80    79    1
    23    36    37    1
    24    46    45    2
    25    45    50   am
    26   108   107    1
    27   108   111    1
    28    79    76    1
    29    67    68    1
    30    27    26    2
    31    50    51    1
    32    75    76    1
    33    37    38   ar
    34    37    39   ar
    35    57    58    2
    36    57    56    1
    37    76    77    1
    38   112   111    1
    39   112   113    1
    40   112   114    1
    41    26    25    1
    42   123   124    1
    43    38    40   ar
    44    53    52    2
    45    16    15    2
    46    39    41   ar
    47    68    71    1
    48    68    69    1
    49    52    51    1
    50    52    55   am
    51    51    54    1
    52   127   124    1
    53    15    14    1
    54    15    24   am
    55    55    56    1
    56    56    59    1
    57    14    13    1
    58    14    17    1
    59   124   125    1
    60    25    24    1
    61    25    28    1
    62    77    78    2
    63    77    84   am
    64    71    72    1
    65    40    42   ar
    66    69    70    2
    67   128   125   am
    68   128   129    1
    69    41    42   ar
    70   132   129    1
    71    84    85    1
    72    59    60    1
    73   125   126    2
    74    28    29    1
    75    72    73    1
    76     4     3    2
    77    17    18    1
    78   129   130    1
    79    92    93    1
    80    29    30    1
    81     3     2    1
    82    73    74    1
    83   130   131    2
    84    60    62   ar
    85    60    61   ar
    86    18    19   ar
    87    18    20   ar
    88    85    86    1
    89    85    88    1
    90   133   134    1
    91    19    21   ar
    92    93    96    1
    93    93    94    1
    94   137   138    1
    95   137   134    1
    96    62    64   ar
    97    86    87    2
    98    30    31    1
    99    96    97    1
   100     2     1    1
   101     2     5    1
   102    61    63   ar
   103   138   139   ar
   104   138   140   ar
   105   134   135    1
   106    20    22   ar
   107   139   141   ar
   108    88    89    1
   109    89    90    1
   110    89    91    1
   111    21    23   ar
   112   140   142   ar
   113    98    97    1
   114    94    95    2
   115     5     6    1
   116   141   143   ar
   117    64    65   ar
   118    97    99    1
   119   103   102    2
   120   142   143   ar
   121   100   101    1
   122    22    23   ar
   123    63    65   ar
   124   101   102    1
   125   101   104    1
   126   135   144   am
   127   135   136    2
   128    65    66    1
   129   144   145    1
   130   105   104    1
   131     6     8   ar
   132     6     7   ar
   133   104   106    1
   134   148   145    1
   135     8    10   ar
   136     7     9   ar
   137   145   146    1
   138   146   147    2
   139    10    11   ar
   140     9    11   ar
   141   207   205    1
   142    11    12    1
   143   197   198    1
   144   197   194    1
   145   198   199    1
   146   193   194    1
   147   205   206    1
   148   205   202    1
   149   185   186    1
   150   185   184    1
   151   201   202    1
   152   201   195   am
   153   194   195    1
   154   149   150    1
   155   182   181    2
   156   202   203    1
   157   183   184    1
   158   183   180    1
   159   195   196    2
   160   204   203    2
   161   181   180    1
   162   199   200    1
   163   154   153    1
   164   155   153    1
   165   163   161    1
   166   180   179    1
   167   150   153    1
   168   150   151    1
   169   162   161    1
   170   179   174   am
   171   167   166    2
   172   161   160    1
   173   151   152    2
   174   192   191    1
   175   174   173    1
   176   174   175    2
   177   189   188    1
   178   189   190    2
   179   160   157    1
   180   188   191    1
   181   188   187    1
   182   166   172   am
   183   166   165    1
   184   173   172    1
   185   173   176    1
   186   168   165    1
   187   168   169    1
   188   177   176    1
   189   157   156    1
   190   157   158    1
   191   165   164    1
   192   176   178    1
   193   169   170    1
   194   171   170    1
   195   158   159    2
