@<TRIPOS>MOLECULE
tmp/6fmpA00.pdb
 84 82 0 0 0
SMALL
GASTEIGER

@<TRIPOS>ATOM
      1  N          2.9890   14.8370  -17.4800 N.3    10  TYR10      -0.1241
      2  CA         3.5920   14.0560  -18.5390 C.3    10  TYR10       0.1605
      3  C          4.2020   14.9810  -19.5770 C.2    10  TYR10       0.2264
      4  O          3.5510   15.9340  -20.0160 O.2    10  TYR10      -0.2867
      5  CB         2.5590   13.1270  -19.1790 C.3    10  TYR10       0.0534
      6  CG         3.1550   12.3280  -20.2800 C.ar   10  TYR10      -0.0201
      7  CD1        3.7410   11.1000  -20.0350 C.ar   10  TYR10      -0.0009
      8  CD2        3.1930   12.8370  -21.5570 C.ar   10  TYR10      -0.0009
      9  CE1        4.3220   10.4030  -21.0520 C.ar   10  TYR10       0.0417
     10  CE2        3.7620   12.1570  -22.5610 C.ar   10  TYR10       0.0417
     11  CZ         4.3220   10.9440  -22.3250 C.ar   10  TYR10       0.1957
     12  OH         4.8670   10.2860  -23.3970 O.3    10  TYR10      -0.2866
     13  N          7.0070   13.5370  -22.6320 N.3    12  ARG12      -0.1231
     14  CA         7.9410   12.4860  -23.0550 C.3    12  ARG12       0.1694
     15  C          7.9990   11.2870  -22.0940 C.2    12  ARG12       0.2591
     16  O          8.5140   10.2260  -22.4650 O.2    12  ARG12      -0.2718
     17  CB         9.3650   13.0570  -23.2520 C.3    12  ARG12       0.0321
     18  CG         9.6030   13.9570  -24.5230 C.3    12  ARG12       0.0489
     19  CD        11.1170   14.1870  -24.8740 C.3    12  ARG12       0.2205
     20  NE        11.4850   15.2870  -25.8080 N.pl3  12  ARG12      -0.0865
     21  CZ        10.8240   15.7190  -26.9060 C.cat  12  ARG12       0.5346
     22  NH1        9.6370   15.2150  -27.2910 N.pl3  12  ARG12       0.1354
     23  NH2       11.3660   16.7150  -27.6280 N.pl3  12  ARG12       0.1354
     24  N          7.4230   11.4130  -20.8940 N.am   13  GLN13      -0.1979
     25  CA         7.6830   10.5410  -19.7500 C.3    13  GLN13       0.1601
     26  C          6.8330   11.0040  -18.5730 C.2    13  GLN13       0.2287
     27  O          6.5700   12.2000  -18.4470 O.2    13  GLN13      -0.2864
     28  CB         9.1480   10.6300  -19.3880 C.3    13  GLN13       0.0394
     29  CG         9.6350    9.6710  -18.3610 C.3    13  GLN13       0.0908
     30  CD        11.1460    9.7740  -18.2420 C.2    13  GLN13       0.2608
     31  OE1       11.7100   10.7760  -18.6800 O.2    13  GLN13      -0.2717
     32  NE2       11.8080    8.7490  -17.6620 N.am   13  GLN13      -0.0878
     33  N         -0.4510    6.9770  -13.7210 N.3    56  ARG56      -0.1245
     34  CA         0.3240    6.0100  -14.4790 C.3    56  ARG56       0.1563
     35  C          1.7750    6.4510  -14.4640 C.2    56  ARG56       0.2260
     36  O          2.0640    7.6490  -14.3740 O.2    56  ARG56      -0.2867
     37  CB        -0.2000    5.9070  -15.9150 C.3    56  ARG56       0.0307
     38  CG         0.5910    5.0010  -16.8170 C.3    56  ARG56       0.0489
     39  CD        -0.2260    4.5680  -18.0230 C.3    56  ARG56       0.2205
     40  NE        -0.4890    3.1250  -17.9990 N.pl3  56  ARG56      -0.0865
     41  CZ        -0.2700    2.3120  -19.0260 C.cat  56  ARG56       0.5346
     42  NH1        0.2120    2.8260  -20.1590 N.pl3  56  ARG56       0.1354
     43  NH2       -0.5390    1.0030  -18.9140 N.pl3  56  ARG56       0.1354
     44  N          4.6740    6.1090  -16.9500 N.3    58  ASN58      -0.1225
     45  CA         5.3230    5.7900  -18.2210 C.3    58  ASN58       0.1785
     46  C          6.7970    6.1360  -18.0880 C.2    58  ASN58       0.2598
     47  O          7.1770    7.3110  -18.1160 O.2    58  ASN58      -0.2718
     48  CB         4.7080    6.5760  -19.3700 C.3    58  ASN58       0.1169
     49  CG         3.2550    6.2370  -19.6150 C.2    58  ASN58       0.2627
     50  OD1        2.8860    5.0650  -19.7420 O.2    58  ASN58      -0.2716
     51  ND2        2.4190    7.2750  -19.7160 N.am   58  ASN58      -0.0877
     52  N          7.6250    5.1300  -17.9080 N.am   59  SER59      -0.1938
     53  CA         9.0610    5.3650  -17.8760 C.3    59  SER59       0.2040
     54  C          9.5890    4.5510  -19.0450 C.2    59  SER59       0.2485
     55  O          8.8040    3.8160  -19.6710 O.2    59  SER59      -0.2729
     56  CB         9.6770    4.9570  -16.5290 C.3    59  SER59       0.2129
     57  OG         9.2810    3.6450  -16.1450 O.3    59  SER59      -0.2179
     58  N         10.8690    4.6770  -19.4170 N.am   60  PRO60      -0.2715
     59  CA        11.4210    3.7700  -20.4350 C.3    60  PRO60       0.1536
     60  C         11.6920    2.3610  -19.9100 C.2    60  PRO60       0.2599
     61  O         12.1050    1.4890  -20.6890 O.2    60  PRO60      -0.2715
     62  CB        12.7150    4.4850  -20.8790 C.3    60  PRO60       0.0310
     63  CG        12.5900    5.8900  -20.3770 C.3    60  PRO60       0.0237
     64  CD        11.7900    5.7890  -19.1190 C.3    60  PRO60       0.0939
     65  N         11.4330    2.1120  -18.6220 N.am   61  ASP61      -0.1958
     66  CA        11.4700    0.7760  -18.0310 C.3    61  ASP61       0.1840
     67  C         10.1340    0.0470  -18.0790 C.2    61  ASP61       0.2623
     68  O         10.1080   -1.1650  -17.8350 O.2    61  ASP61      -0.2715
     69  CB        11.9150    0.8540  -16.5760 C.3    61  ASP61       0.1450
     70  CG        13.3160    1.3830  -16.4360 C.2    61  ASP61       0.3671
     71  OD1       14.2370    0.7470  -17.0070 O.co2  61  ASP61      -0.2456
     72  OD2       13.4890    2.4320  -15.7590 O.co2  61  ASP61      -0.2456
     73  N          9.0410    0.7450  -18.3520 N.am   62  GLY62      -0.1940
     74  CA         7.7590    0.0960  -18.5500 C.3    62  GLY62       0.2014
     75  C          6.6120    0.9650  -18.0790 C.2    62  GLY62       0.2638
     76  O          6.7950    2.0390  -17.5120 O.2    62  GLY62      -0.2714
     77  N          5.4060    0.4620  -18.3400 N.am   63  ASN63      -0.1972
     78  CA         4.1500    1.0360  -17.8810 C.3    63  ASN63       0.1688
     79  C          3.7430    0.4160  -16.5700 C.2    63  ASN63       0.2292
     80  O          3.9420   -0.7900  -16.3760 O.2    63  ASN63      -0.2864
     81  CB         3.0590    0.7280  -18.8780 C.3    63  ASN63       0.1181
     82  CG         3.2960    1.3950  -20.1710 C.2    63  ASN63       0.2629
     83  OD1        2.6180    1.1070  -21.1700 O.2    63  ASN63      -0.2716
     84  ND2        4.2500    2.3390  -20.1800 N.am   63  ASN63      -0.0877
@<TRIPOS>BOND
     1    23    21    1
     2    22    21    1
     3    21    20    2
     4    20    19    1
     5    19    18    1
     6    18    17    1
     7    12    11    1
     8    17    14    1
     9    14    13    1
    10    14    15    1
    11    10    11   ar
    12    10     8   ar
    13    16    15    2
    14    11     9   ar
    15    15    24   am
    16     8     6   ar
    17    83    82    2
    18     9     7   ar
    19    24    25    1
    20    62    59    1
    21    62    63    1
    22    61    60    2
    23    59    60    1
    24    59    58    1
    25    63    64    1
    26     6     7   ar
    27     6     5    1
    28    84    82   am
    29    82    81    1
    30    42    41    1
    31     4     3    2
    32    60    65   am
    33    25    28    1
    34    25    26    1
    35    50    49    2
    36    51    49   am
    37    55    54    2
    38    49    48    1
    39     3     2    1
    40    58    64    1
    41    58    54   am
    42    28    29    1
    43    48    45    1
    44     5     2    1
    45    54    53    1
    46    41    43    1
    47    41    40    2
    48    81    78    1
    49    31    30    2
    50    65    66    1
    51    26    27    2
    52    74    73    1
    53    74    75    1
    54     2     1    1
    55    29    30    1
    56    73    67   am
    57    77    75   am
    58    77    78    1
    59    30    32   am
    60    45    46    1
    61    45    44    1
    62    47    46    2
    63    46    52   am
    64    75    76    2
    65    67    66    1
    66    67    68    2
    67    66    69    1
    68    39    40    1
    69    39    38    1
    70    52    53    1
    71    78    79    1
    72    53    56    1
    73    71    70   ar
    74    38    37    1
    75    69    70    1
    76    79    80    2
    77    56    57    1
    78    70    72   ar
    79    37    34    1
    80    34    35    1
    81    34    33    1
    82    35    36    2
