@<TRIPOS>MOLECULE
tmp/6fmpB00.pdb
 187 174 0 0 0
SMALL
GASTEIGER

@<TRIPOS>ATOM
      1  N          5.2830    3.8420  -34.7340 N.3    10  TYR10      -0.1241
      2  CA         5.0700    4.5190  -33.4530 C.3    10  TYR10       0.1605
      3  C          6.4000    5.0510  -32.9770 C.2    10  TYR10       0.2264
      4  O          7.3550    4.2890  -32.8330 O.2    10  TYR10      -0.2867
      5  CB         4.4770    3.5730  -32.3930 C.3    10  TYR10       0.0534
      6  CG         4.5170    4.0930  -30.9610 C.ar   10  TYR10      -0.0201
      7  CD1        5.6820    4.0060  -30.1950 C.ar   10  TYR10      -0.0009
      8  CD2        3.3920    4.6400  -30.3710 C.ar   10  TYR10      -0.0009
      9  CE1        5.7280    4.4880  -28.9170 C.ar   10  TYR10       0.0417
     10  CE2        3.4310    5.1230  -29.0780 C.ar   10  TYR10       0.0417
     11  CZ         4.5950    5.0420  -28.3470 C.ar   10  TYR10       0.1957
     12  OH         4.6290    5.5320  -27.0330 O.3    10  TYR10      -0.2866
     13  N          7.0020    7.9880  -29.8660 N.3    12  ARG12      -0.1245
     14  CA         6.2790    8.8940  -28.9690 C.3    12  ARG12       0.1563
     15  C          4.7630    8.7760  -29.1460 C.2    12  ARG12       0.2260
     16  O          4.0480    8.7150  -28.1440 O.2    12  ARG12      -0.2867
     17  CB         6.7820   10.3380  -29.1250 C.3    12  ARG12       0.0307
     18  CG         8.2620   10.3890  -28.8060 C.3    12  ARG12       0.0489
     19  CD         8.7460   11.5930  -28.0320 C.3    12  ARG12       0.2205
     20  NE         9.4080   12.5410  -28.9390 N.pl3  12  ARG12      -0.0865
     21  CZ        10.7050   12.8640  -28.8850 C.cat  12  ARG12       0.5346
     22  NH1       11.4960   12.2890  -27.9330 N.pl3  12  ARG12       0.1354
     23  NH2       11.1910   13.7520  -29.7870 N.pl3  12  ARG12       0.1354
     24  N         -0.0510    2.0220  -35.2160 N.3    39  SER39      -0.1202
     25  CA         1.1140    1.1610  -35.0690 C.3    39  SER39       0.2020
     26  C          0.6300   -0.2610  -34.8130 C.2    39  SER39       0.2619
     27  O         -0.5380   -0.4930  -34.4670 O.2    39  SER39      -0.2717
     28  CB         2.0470    1.6270  -33.9600 C.3    39  SER39       0.2103
     29  OG         1.3330    2.0050  -32.7990 O.3    39  SER39      -0.2182
     30  N          1.5250   -1.2210  -35.0310 N.am   40  GLY40      -0.1956
     31  CA         1.0930   -2.6040  -35.0180 C.3    40  GLY40       0.1869
     32  C          0.0250   -2.8820  -36.0510 C.2    40  GLY40       0.2309
     33  O         -0.8230   -3.7600  -35.8500 O.2    40  GLY40      -0.2863
     34  N         -3.4710    0.0280  -34.0490 N.3    56  ARG56      -0.1245
     35  CA        -4.0550    0.8300  -32.9750 C.3    56  ARG56       0.1563
     36  C         -3.5380    2.2580  -33.0500 C.2    56  ARG56       0.2260
     37  O         -2.3720    2.4660  -33.3980 O.2    56  ARG56      -0.2867
     38  CB        -3.7060    0.2640  -31.6060 C.3    56  ARG56       0.0307
     39  CG        -4.2890    1.0340  -30.4850 C.3    56  ARG56       0.0489
     40  CD        -3.8810    0.4650  -29.1430 C.3    56  ARG56       0.2205
     41  NE        -2.4450    0.5590  -28.9350 N.pl3  56  ARG56      -0.0865
     42  CZ        -1.8570    0.2920  -27.7750 C.cat  56  ARG56       0.5346
     43  NH1       -2.6070   -0.0800  -26.7460 N.pl3  56  ARG56       0.1354
     44  NH2       -0.5360    0.4080  -27.6420 N.pl3  56  ARG56       0.1354
     45  N         -2.3810    4.9930  -30.9130 N.3    58  ASN58      -0.1225
     46  CA        -1.8920    5.4150  -29.6000 C.3    58  ASN58       0.1785
     47  C         -1.5610    6.9010  -29.6870 C.2    58  ASN58       0.2597
     48  O         -0.5230    7.2730  -30.2410 O.2    58  ASN58      -0.2718
     49  CB        -0.6740    4.5780  -29.2080 C.3    58  ASN58       0.1169
     50  CG        -0.0940    4.9270  -27.8170 C.2    58  ASN58       0.2627
     51  OD1        0.3090    6.0600  -27.5310 O.2    58  ASN58      -0.2716
     52  ND2        0.0080    3.9160  -26.9750 N.am   58  ASN58      -0.0877
     53  N         -2.4820    7.7780  -29.1710 N.am   59  SER59      -0.1952
     54  CA        -2.2510    9.2120  -28.9980 C.3    59  SER59       0.1924
     55  C         -1.9580    9.5180  -27.5380 C.2    59  SER59       0.2314
     56  O         -2.2990    8.7270  -26.6530 O.2    59  SER59      -0.2863
     57  CB        -3.4600   10.0180  -29.4650 C.3    59  SER59       0.2116
     58  OG        -4.0840    9.4210  -30.5780 O.3    59  SER59      -0.2180
     59  N         -5.9840    5.8250  -26.6530 N.3    63  ASN63      -0.1240
     60  CA        -5.7850    4.7650  -27.6310 C.3    63  ASN63       0.1653
     61  C         -7.1250    4.3650  -28.2040 C.2    63  ASN63       0.2266
     62  O         -8.1400    4.4490  -27.5150 O.2    63  ASN63      -0.2867
     63  CB        -5.1360    3.5320  -27.0080 C.3    63  ASN63       0.1155
     64  CG        -3.8500    3.8490  -26.2950 C.2    63  ASN63       0.2627
     65  OD1       -3.3850    5.0050  -26.2910 O.2    63  ASN63      -0.2716
     66  ND2       -3.2580    2.8320  -25.6720 N.am   63  ASN63      -0.0877
     67  N         -1.6410   -5.2900  -33.2870 N.3    91  ARG91      -0.1245
     68  CA        -0.5670   -6.3020  -33.3620 C.3    91  ARG91       0.1563
     69  C         -1.0250   -7.5200  -34.1580 C.2    91  ARG91       0.2260
     70  O         -0.7450   -8.6660  -33.7980 O.2    91  ARG91      -0.2867
     71  CB        -0.0930   -6.7290  -31.9840 C.3    91  ARG91       0.0307
     72  CG         0.2170   -5.5950  -31.0630 C.3    91  ARG91       0.0489
     73  CD         1.6910   -5.5080  -30.9090 C.3    91  ARG91       0.2205
     74  NE         2.0970   -6.3820  -29.8220 N.pl3  91  ARG91      -0.0865
     75  CZ         3.2510   -7.0480  -29.8140 C.cat  91  ARG91       0.5346
     76  NH1        4.1030   -6.9250  -30.8530 N.pl3  91  ARG91       0.1354
     77  NH2        3.5400   -7.8390  -28.7730 N.pl3  91  ARG91       0.1354
     78  N          1.5230  -13.7930  -28.5870 N.3   154  PHE154     -0.1241
     79  CA         1.1920  -13.6170  -27.1870 C.3   154  PHE154      0.1605
     80  C         -0.2720  -13.9600  -27.0380 C.2   154  PHE154      0.2264
     81  O         -1.0820  -13.5050  -27.8630 O.2   154  PHE154     -0.2867
     82  CB         1.4170  -12.1820  -26.7680 C.3   154  PHE154      0.0534
     83  CG         1.0580  -11.9140  -25.3580 C.ar  154  PHE154     -0.0203
     84  CD1        1.7360  -12.5450  -24.3370 C.ar  154  PHE154     -0.0042
     85  CD2        0.0520  -11.0250  -25.0530 C.ar  154  PHE154     -0.0042
     86  CE1        1.4260  -12.2920  -23.0630 C.ar  154  PHE154     -0.0003
     87  CE2       -0.2610  -10.7790  -23.7650 C.ar  154  PHE154     -0.0003
     88  CZ         0.4260  -11.4170  -22.7650 C.ar  154  PHE154     -0.0000
     89  N          3.8080  -15.6160  -23.7060 N.3   159  ARG159     -0.1245
     90  CA         4.4210  -15.4430  -24.9930 C.3   159  ARG159      0.1563
     91  C          4.7110  -16.8240  -25.5430 C.2   159  ARG159      0.2260
     92  O          4.9560  -17.7770  -24.8000 O.2   159  ARG159     -0.2867
     93  CB         5.6690  -14.5720  -24.8730 C.3   159  ARG159      0.0307
     94  CG         5.3110  -13.1330  -24.5770 C.3   159  ARG159      0.0489
     95  CD         6.3870  -12.3860  -23.8140 C.3   159  ARG159      0.2205
     96  NE         5.9790  -11.0010  -23.5730 N.pl3 159  ARG159     -0.0865
     97  CZ         5.7610  -10.4870  -22.3720 C.cat 159  ARG159      0.5346
     98  NH1        5.9270  -11.2450  -21.2840 N.pl3 159  ARG159      0.1354
     99  NH2        5.3860   -9.2140  -22.2650 N.pl3 159  ARG159      0.1354
    100  N          7.3430  -13.3550  -29.3530 N.3   184  SER184     -0.1202
    101  CA         6.2320  -12.4430  -29.5200 C.3   184  SER184      0.2020
    102  C          6.7840  -11.1870  -30.1720 C.2   184  SER184      0.2619
    103  O          7.8110  -10.6640  -29.7330 O.2   184  SER184     -0.2717
    104  CB         5.5980  -12.1470  -28.1650 C.3   184  SER184      0.2103
    105  OG         4.4750  -11.3130  -28.3220 O.3   184  SER184     -0.2182
    106  N          6.1400  -10.7340  -31.2370 N.am  185  GLY185     -0.1956
    107  CA         6.5820   -9.5150  -31.8790 C.3   185  GLY185      0.1869
    108  C          7.7150   -9.7120  -32.8570 C.2   185  GLY185      0.2309
    109  O          8.4590   -8.7590  -33.1340 O.2   185  GLY185     -0.2863
    110  N         10.4980  -10.7890  -29.0100 N.3   201  TYR201     -0.1241
    111  CA        10.7330  -10.6520  -27.5690 C.3   201  TYR201      0.1605
    112  C         10.3410  -11.9480  -26.8800 C.2   201  TYR201      0.2264
    113  O          9.2720  -12.4960  -27.1730 O.2   201  TYR201     -0.2867
    114  CB         9.9270   -9.4840  -26.9720 C.3   201  TYR201      0.0534
    115  CG        10.0850   -9.2660  -25.4820 C.ar  201  TYR201     -0.0201
    116  CD1       11.3100   -8.8520  -24.9400 C.ar  201  TYR201     -0.0009
    117  CD2        8.9960   -9.4320  -24.6140 C.ar  201  TYR201     -0.0009
    118  CE1       11.4500   -8.6270  -23.5770 C.ar  201  TYR201      0.0417
    119  CE2        9.1260   -9.2090  -23.2480 C.ar  201  TYR201      0.0417
    120  CZ        10.3600   -8.8060  -22.7310 C.ar  201  TYR201      0.1957
    121  OH        10.4950   -8.5900  -21.3690 O.3   201  TYR201     -0.2866
    122  N         12.0330  -11.9040  -21.5090 N.3   204  GLN204     -0.1245
    123  CA        13.1140  -11.2630  -20.7740 C.3   204  GLN204      0.1566
    124  C         13.7970  -10.1880  -21.6040 C.2   204  GLN204      0.2260
    125  O         13.8400   -9.0280  -21.1670 O.2   204  GLN204     -0.2867
    126  CB        14.1270  -12.3120  -20.2980 C.3   204  GLN204      0.0367
    127  CG        13.5330  -13.2910  -19.2970 C.3   204  GLN204      0.0905
    128  CD        14.4390  -14.4790  -19.0410 C.2   204  GLN204      0.2608
    129  OE1       14.6710  -15.3060  -19.9410 O.2   204  GLN204     -0.2717
    130  NE2       14.9630  -14.5740  -17.8110 N.am  204  GLN204     -0.0878
    131  N         14.5180   -8.4460  -25.7740 N.3   206  GLN206     -0.1245
    132  CA        14.4500   -8.4210  -27.2300 C.3   206  GLN206      0.1566
    133  C         15.6030   -9.2230  -27.8230 C.2   206  GLN206      0.2260
    134  O         16.6980   -9.2910  -27.2520 O.2   206  GLN206     -0.2867
    135  CB        14.5130   -6.9890  -27.7650 C.3   206  GLN206      0.0367
    136  CG        13.3370   -6.1250  -27.3630 C.3   206  GLN206      0.0905
    137  CD        13.6120   -5.4150  -26.0810 C.2   206  GLN206      0.2608
    138  OE1       14.7640   -5.1610  -25.7530 O.2   206  GLN206     -0.2717
    139  NE2       12.5710   -5.1070  -25.3330 N.am  206  GLN206     -0.0878
    140  N         12.5210   -5.8620  -31.6580 N.3   231  SER231     -0.1202
    141  CA        11.1980   -6.4360  -31.4980 C.3   231  SER231      0.2020
    142  C         10.1750   -5.4280  -32.0120 C.2   231  SER231      0.2618
    143  O         10.4330   -4.2250  -32.0580 O.2   231  SER231     -0.2717
    144  CB        10.9550   -6.7760  -30.0440 C.3   231  SER231      0.2103
    145  OG         9.5840   -6.8320  -29.8280 O.3   231  SER231     -0.2182
    146  N          9.0080   -5.9140  -32.4070 N.am  232  ALA232     -0.1979
    147  CA         8.0260   -5.0790  -33.1010 C.3   232  ALA232      0.1597
    148  C          8.6370   -4.4350  -34.3400 C.2   232  ALA232      0.2287
    149  O          8.5050   -3.2390  -34.5700 O.2   232  ALA232     -0.2864
    150  CB         7.4370   -4.0150  -32.1900 C.3   232  ALA232      0.0319
    151  N         11.7820   -1.7540  -31.6450 N.3   248  TYR248     -0.1241
    152  CA        12.2070   -1.3180  -30.3060 C.3   248  TYR248      0.1605
    153  C         13.2420   -2.3180  -29.8060 C.2   248  TYR248      0.2264
    154  O         13.0120   -3.5340  -29.8820 O.2   248  TYR248     -0.2867
    155  CB        11.0070   -1.2230  -29.3370 C.3   248  TYR248      0.0534
    156  CG        11.2930   -0.8910  -27.8590 C.ar  248  TYR248     -0.0201
    157  CD1       11.8570    0.3240  -27.4740 C.ar  248  TYR248     -0.0009
    158  CD2       10.9510   -1.7830  -26.8390 C.ar  248  TYR248     -0.0009
    159  CE1       12.1070    0.6260  -26.1080 C.ar  248  TYR248      0.0417
    160  CE2       11.2060   -1.4900  -25.4830 C.ar  248  TYR248      0.0417
    161  CZ        11.7800   -0.2810  -25.1270 C.ar  248  TYR248      0.1957
    162  OH        12.0310    0.0040  -23.7940 O.3   248  TYR248     -0.2866
    163  N         14.6360   -2.2810  -26.7000 N.3   250  GLY250     -0.1225
    164  CA        14.6770   -2.1710  -25.2630 C.3   250  GLY250      0.1811
    165  C         15.0130   -0.7850  -24.7470 C.2   250  GLY250      0.2280
    166  O         14.6280   -0.4470  -23.6100 O.2   250  GLY250     -0.2866
    167  N         14.2310    3.4190  -30.3810 N.3   253  PHE253     -0.1241
    168  CA        13.4670    2.9420  -31.5230 C.3   253  PHE253      0.1605
    169  C         14.3400    3.0640  -32.7680 C.2   253  PHE253      0.2264
    170  O         14.7500    4.1690  -33.1310 O.2   253  PHE253     -0.2867
    171  CB        12.1810    3.7360  -31.7120 C.3   253  PHE253      0.0534
    172  CG        11.2350    3.6610  -30.5550 C.ar  253  PHE253     -0.0203
    173  CD1       11.4370    4.4330  -29.4280 C.ar  253  PHE253     -0.0042
    174  CD2       10.0930    2.8650  -30.6270 C.ar  253  PHE253     -0.0042
    175  CE1       10.5470    4.3780  -28.3840 C.ar  253  PHE253     -0.0003
    176  CE2        9.1910    2.8030  -29.5610 C.ar  253  PHE253     -0.0003
    177  CZ         9.4270    3.5550  -28.4430 C.ar  253  PHE253     -0.0000
    178  N          8.7240    1.9360  -34.4320 N.3   278  SER278     -0.1202
    179  CA         8.3960    0.5420  -34.1760 C.3   278  SER278      0.2020
    180  C          7.0020    0.2280  -34.7190 C.2   278  SER278      0.2619
    181  O          6.1720    1.1230  -34.8820 O.2   278  SER278     -0.2717
    182  CB         8.4730    0.2430  -32.6760 C.3   278  SER278      0.2103
    183  OG         7.1970    0.3450  -32.0630 O.3   278  SER278     -0.2182
    184  N          6.7480   -1.0410  -35.0240 N.am  279  GLY279     -0.1956
    185  CA         5.3920   -1.4510  -35.3170 C.3   279  GLY279      0.1869
    186  C          4.8720   -0.9710  -36.6440 C.2   279  GLY279      0.2309
    187  O          3.6700   -0.7200  -36.7810 O.2   279  GLY279     -0.2863
@<TRIPOS>BOND
     1   187   186    2
     2   186   185    1
     3    32    33    2
     4    32    31    1
     5   185   184    1
     6    24    25    1
     7    25    26    1
     8    25    28    1
     9    30    31    1
    10    30    26   am
    11   184   180   am
    12   181   180    2
    13    26    27    2
    14     1     2    1
    15   180   179    1
    16   149   148    2
    17   178   179    1
    18   148   147    1
    19   179   182    1
    20    69    70    2
    21    69    68    1
    22    34    35    1
    23    28    29    1
    24     2     3    1
    25     2     5    1
    26    37    36    2
    27    68    67    1
    28    68    71    1
    29   109   108    2
    30   170   169    2
    31   147   146    1
    32   147   150    1
    33    36    35    1
    34     3     4    2
    35    35    38    1
    36   108   107    1
    37   169   168    1
    38   182   183    1
    39   146   142   am
    40     5     6    1
    41   143   142    2
    42   142   141    1
    43    71    72    1
    44   107   106    1
    45   171   168    1
    46   171   172    1
    47   140   141    1
    48   151   152    1
    49    38    39    1
    50   168   167    1
    51   141   144    1
    52   106   102   am
    53    72    73    1
    54     6     8   ar
    55     6     7   ar
    56    45    46    1
    57    73    74    1
    58    76    75    1
    59   174   172   ar
    60   174   176   ar
    61    58    57    1
    62   172   173   ar
    63    39    40    1
    64     8    10   ar
    65   152   153    1
    66   152   155    1
    67    48    47    2
    68     7     9   ar
    69   102   103    2
    70   102   101    1
    71   144   145    1
    72   154   153    2
    73    13    14    1
    74    74    75    2
    75    75    77    1
    76    23    21    1
    77    47    46    1
    78    47    53   am
    79    46    49    1
    80   176   177   ar
    81   101   100    1
    82   101   104    1
    83    57    54    1
    84   173   175   ar
    85   155   156    1
    86    49    50    1
    87    53    54    1
    88    15    14    1
    89    15    16    2
    90    40    41    1
    91    17    14    1
    92    17    18    1
    93    10    11   ar
    94   110   111    1
    95    54    55    1
    96    20    21    2
    97    20    19    1
    98    41    42    2
    99     9    11   ar
   100    21    22    1
   101    18    19    1
   102    78    79    1
   103   177   175   ar
   104    11    12    1
   105   105   104    1
   106    61    60    1
   107    61    62    2
   108    81    80    2
   109   156   157   ar
   110   156   158   ar
   111   133   134    2
   112   133   132    1
   113    50    51    2
   114    50    52   am
   115    42    44    1
   116    42    43    1
   117   135   136    1
   118   135   132    1
   119    60    63    1
   120    60    59    1
   121   111   114    1
   122   111   112    1
   123    55    56    2
   124   157   159   ar
   125   136   137    1
   126   132   131    1
   127    79    80    1
   128    79    82    1
   129   113   112    2
   130    63    64    1
   131   114   115    1
   132   158   160   ar
   133    82    83    1
   134   163   164    1
   135    64    65    2
   136    64    66   am
   137   159   161   ar
   138   137   138    2
   139   137   139   am
   140    91    90    1
   141    91    92    2
   142   160   161   ar
   143   115   116   ar
   144   115   117   ar
   145    83    85   ar
   146    83    84   ar
   147   164   165    1
   148   161   162    1
   149    85    87   ar
   150    90    93    1
   151    90    89    1
   152   116   118   ar
   153    93    94    1
   154   165   166    2
   155   117   119   ar
   156    94    95    1
   157    84    86   ar
   158    95    96    1
   159    87    88   ar
   160   118   120   ar
   161    96    97    2
   162   119   120   ar
   163    86    88   ar
   164   120   121    1
   165    97    99    1
   166    97    98    1
   167   124   125    2
   168   124   123    1
   169   122   123    1
   170   123   126    1
   171   126   127    1
   172   129   128    2
   173   127   128    1
   174   128   130   am
