@<TRIPOS>MOLECULE
tmp/6fmqA00.pdb
 84 82 0 0 0
SMALL
GASTEIGER

@<TRIPOS>ATOM
      1  N          4.3200  -22.6260  -34.7830 N.3    10  TYR10      -0.1241
      2  CA         5.0950  -23.0660  -33.6260 C.3    10  TYR10       0.1605
      3  C          4.1540  -23.7150  -32.6320 C.2    10  TYR10       0.2264
      4  O          3.2050  -23.0680  -32.1790 O.2    10  TYR10      -0.2867
      5  CB         5.8130  -21.9080  -32.9360 C.3    10  TYR10       0.0534
      6  CG         6.6570  -22.3990  -31.7480 C.ar   10  TYR10      -0.0201
      7  CD1        7.9380  -22.8790  -31.9420 C.ar   10  TYR10      -0.0009
      8  CD2        6.1320  -22.4310  -30.4570 C.ar   10  TYR10      -0.0009
      9  CE1        8.6950  -23.3420  -30.8780 C.ar   10  TYR10       0.0417
     10  CE2        6.8830  -22.8760  -29.3780 C.ar   10  TYR10       0.0417
     11  CZ         8.1570  -23.3390  -29.5980 C.ar   10  TYR10       0.1957
     12  OH         8.9010  -23.7940  -28.5340 O.3    10  TYR10      -0.2866
     13  N          5.5110  -26.2830  -29.5730 N.3    12  ARG12      -0.1231
     14  CA         6.6600  -27.0460  -29.0540 C.3    12  ARG12       0.1694
     15  C          7.8590  -27.0800  -30.0010 C.2    12  ARG12       0.2591
     16  O          8.9840  -27.3260  -29.5580 O.2    12  ARG12      -0.2718
     17  CB         6.2260  -28.4670  -28.6630 C.3    12  ARG12       0.0321
     18  CG         4.9780  -28.4110  -27.7380 C.3    12  ARG12       0.0489
     19  CD         4.9550  -29.4630  -26.6720 C.3    12  ARG12       0.2205
     20  NE         3.7070  -29.5220  -25.8850 N.pl3  12  ARG12      -0.0865
     21  CZ         3.2010  -28.5670  -25.0860 C.cat  12  ARG12       0.5346
     22  NH1        3.8030  -27.3780  -24.9220 N.pl3  12  ARG12       0.1354
     23  NH2        2.0520  -28.8140  -24.4460 N.pl3  12  ARG12       0.1354
     24  N          7.6550  -26.7870  -31.2810 N.am   13  GLN13      -0.1979
     25  CA         8.7340  -26.6550  -32.2550 C.3    13  GLN13       0.1601
     26  C          8.1460  -26.0740  -33.5370 C.2    13  GLN13       0.2287
     27  O          6.9310  -26.0030  -33.7000 O.2    13  GLN13      -0.2864
     28  CB         9.4010  -27.9860  -32.5500 C.3    13  GLN13       0.0394
     29  CG         8.4550  -28.9900  -33.1840 C.3    13  GLN13       0.0908
     30  CD         9.1660  -30.2880  -33.5510 C.2    13  GLN13       0.2608
     31  OE1       10.3080  -30.2730  -34.0220 O.2    13  GLN13      -0.2717
     32  NE2        8.5050  -31.4140  -33.3120 N.am   13  GLN13      -0.0878
     33  N         12.1190  -19.3200  -38.6860 N.3    56  ARG56      -0.1245
     34  CA        13.1180  -20.0290  -37.8860 C.3    56  ARG56       0.1563
     35  C         12.7900  -21.5210  -37.8590 C.2    56  ARG56       0.2260
     36  O         11.6350  -21.9020  -37.6640 O.2    56  ARG56      -0.2867
     37  CB        13.2010  -19.4820  -36.4400 C.3    56  ARG56       0.0307
     38  CG        13.8180  -20.5010  -35.4440 C.3    56  ARG56       0.0489
     39  CD        14.1660  -19.9280  -34.0390 C.3    56  ARG56       0.2205
     40  NE        15.4460  -19.2600  -34.1330 N.pl3  56  ARG56      -0.0865
     41  CZ        16.3890  -19.2090  -33.2040 C.cat  56  ARG56       0.5346
     42  NH1       16.2460  -19.7830  -32.0060 N.pl3  56  ARG56       0.1354
     43  NH2       17.4940  -18.5560  -33.5030 N.pl3  56  ARG56       0.1354
     44  N         13.5220  -25.2400  -36.0700 N.3    58  ASN58      -0.1225
     45  CA        14.0450  -26.0860  -34.9960 C.3    58  ASN58       0.1785
     46  C         14.3030  -27.4870  -35.5330 C.2    58  ASN58       0.2598
     47  O         13.3980  -28.1140  -36.0950 O.2    58  ASN58      -0.2718
     48  CB        13.0530  -26.1500  -33.8480 C.3    58  ASN58       0.1169
     49  CG        12.7130  -24.8030  -33.3420 C.2    58  ASN58       0.2627
     50  OD1       11.5550  -24.4170  -33.3390 O.2    58  ASN58      -0.2716
     51  ND2       13.7260  -24.0460  -32.9270 N.am   58  ASN58      -0.0877
     52  N         15.5230  -27.9720  -35.3830 N.am   59  SER59      -0.1938
     53  CA        15.8580  -29.3120  -35.8410 C.3    59  SER59       0.2040
     54  C         16.6310  -30.0410  -34.7490 C.2    59  SER59       0.2485
     55  O         17.1050  -29.4190  -33.7860 O.2    59  SER59      -0.2729
     56  CB        16.6630  -29.2680  -37.1510 C.3    59  SER59       0.2129
     57  OG        18.0520  -29.1250  -36.8990 O.3    59  SER59      -0.2179
     58  N         16.7540  -31.3730  -34.8530 N.am   60  PRO60      -0.2715
     59  CA        17.5490  -32.1100  -33.8540 C.3    60  PRO60       0.1536
     60  C         18.9230  -31.5120  -33.6050 C.2    60  PRO60       0.2599
     61  O         19.3940  -31.5260  -32.4600 O.2    60  PRO60      -0.2715
     62  CB        17.6430  -33.5130  -34.4660 C.3    60  PRO60       0.0310
     63  CG        16.3860  -33.6530  -35.2470 C.3    60  PRO60       0.0237
     64  CD        16.0570  -32.2830  -35.7850 C.3    60  PRO60       0.0939
     65  N         19.5550  -30.9470  -34.6420 N.am   61  ASP61      -0.1958
     66  CA        20.9160  -30.4310  -34.5510 C.3    61  ASP61       0.1840
     67  C         20.9900  -29.0380  -33.9470 C.2    61  ASP61       0.2623
     68  O         22.0550  -28.6480  -33.4530 O.2    61  ASP61      -0.2715
     69  CB        21.5750  -30.4080  -35.9380 C.3    61  ASP61       0.1450
     70  CG        22.0710  -31.7930  -36.3730 C.2    61  ASP61       0.3671
     71  OD1       22.5840  -31.9120  -37.5160 O.co2  61  ASP61      -0.2456
     72  OD2       21.9570  -32.7590  -35.5740 O.co2  61  ASP61      -0.2456
     73  N         19.9080  -28.2830  -33.9750 N.am   62  GLY62      -0.1940
     74  CA        19.9210  -26.9320  -33.4600 C.3    62  GLY62       0.2014
     75  C         18.9170  -26.0710  -34.1970 C.2    62  GLY62       0.2638
     76  O         18.0820  -26.5600  -34.9530 O.2    62  GLY62      -0.2714
     77  N         19.0240  -24.7780  -33.9460 N.am   63  ASN63      -0.1972
     78  CA        18.1100  -23.7790  -34.4600 C.3    63  ASN63       0.1688
     79  C         18.7910  -23.0280  -35.5970 C.2    63  ASN63       0.2292
     80  O         19.9980  -22.7820  -35.5540 O.2    63  ASN63      -0.2864
     81  CB        17.6880  -22.8160  -33.3430 C.3    63  ASN63       0.1181
     82  CG        17.2460  -23.5560  -32.0810 C.2    63  ASN63       0.2629
     83  OD1       16.4310  -24.4610  -32.1510 O.2    63  ASN63      -0.2716
     84  ND2       17.8390  -23.2150  -30.9410 N.am   63  ASN63      -0.0877
@<TRIPOS>BOND
     1    33    34    1
     2    34    35    1
     3    34    37    1
     4    35    36    2
     5    71    70   ar
     6    56    57    1
     7    56    53    1
     8    37    38    1
     9    70    69    1
    10    70    72   ar
    11    47    46    2
    12    44    45    1
    13    69    66    1
    14    53    52    1
    15    53    54    1
    16    64    63    1
    17    64    58    1
    18    79    80    2
    19    79    78    1
    20    46    52   am
    21    46    45    1
    22    38    39    1
    23    63    62    1
    24    45    48    1
    25    76    75    2
    26    58    54   am
    27    58    59    1
    28     1     2    1
    29    54    55    2
    30    65    66    1
    31    65    60   am
    32    66    67    1
    33    62    59    1
    34    78    77    1
    35    78    81    1
    36    75    77   am
    37    75    74    1
    38    40    39    1
    39    40    41    2
    40    31    30    2
    41    73    67   am
    42    73    74    1
    43    67    68    2
    44    59    60    1
    45    48    49    1
    46    27    26    2
    47     2     5    1
    48     2     3    1
    49    60    61    2
    50    30    32   am
    51    30    29    1
    52    26    25    1
    53    43    41    1
    54    81    82    1
    55    49    50    2
    56    49    51   am
    57    41    42    1
    58    29    28    1
    59     5     6    1
    60     3     4    2
    61    28    25    1
    62    25    24    1
    63    83    82    2
    64    82    84   am
    65     7     6   ar
    66     7     9   ar
    67     6     8   ar
    68    24    15   am
    69     9    11   ar
    70     8    10   ar
    71    15    16    2
    72    15    14    1
    73    11    10   ar
    74    11    12    1
    75    13    14    1
    76    14    17    1
    77    17    18    1
    78    18    19    1
    79    19    20    1
    80    20    21    2
    81    21    22    1
    82    21    23    1
