@<TRIPOS>MOLECULE
tmp/6fmqB00.pdb
 168 157 0 0 0
SMALL
GASTEIGER

@<TRIPOS>ATOM
      1  N         15.0020  -24.5960  -17.6140 N.3    10  TYR10      -0.1241
      2  CA        14.3560  -24.5270  -18.9150 C.3    10  TYR10       0.1605
      3  C         13.7380  -25.8640  -19.2710 C.2    10  TYR10       0.2264
      4  O         14.4230  -26.8920  -19.2580 O.2    10  TYR10      -0.2867
      5  CB        15.3500  -24.1560  -20.0210 C.3    10  TYR10       0.0534
      6  CG        14.7360  -24.0370  -21.4130 C.ar   10  TYR10      -0.0201
      7  CD1       14.6390  -25.1420  -22.2480 C.ar   10  TYR10      -0.0009
      8  CD2       14.2690  -22.7970  -21.8980 C.ar   10  TYR10      -0.0009
      9  CE1       14.1020  -25.0360  -23.5330 C.ar   10  TYR10       0.0417
     10  CE2       13.7310  -22.6810  -23.1850 C.ar   10  TYR10       0.0417
     11  CZ        13.6640  -23.7940  -23.9940 C.ar   10  TYR10       0.1957
     12  OH        13.1590  -23.6820  -25.2790 O.3    10  TYR10      -0.2866
     13  N         10.7430  -26.3180  -22.4050 N.3    12  ARG12      -0.1245
     14  CA         9.8080  -25.5720  -23.2820 C.3    12  ARG12       0.1563
     15  C          9.9130  -24.0540  -23.1610 C.2    12  ARG12       0.2260
     16  O          9.7250  -23.3650  -24.1690 O.2    12  ARG12      -0.2867
     17  CB         8.3420  -25.9780  -23.0560 C.3    12  ARG12       0.0307
     18  CG         8.1860  -27.5160  -23.0320 C.3    12  ARG12       0.0489
     19  CD         7.0320  -27.9650  -23.8380 C.3    12  ARG12       0.2205
     20  NE         6.7880  -29.4040  -23.7900 N.pl3  12  ARG12      -0.0865
     21  CZ         7.3960  -30.3260  -24.5430 C.cat  12  ARG12       0.5346
     22  NH1        8.3480  -30.0020  -25.4360 N.pl3  12  ARG12       0.1354
     23  NH2        7.0300  -31.5960  -24.3890 N.pl3  12  ARG12       0.1354
     24  N         16.6240  -19.2200  -17.0400 N.3    39  SER39      -0.1202
     25  CA        17.5030  -20.3510  -17.1940 C.3    39  SER39       0.2020
     26  C         18.8810  -19.7870  -17.5020 C.2    39  SER39       0.2619
     27  O         19.0150  -18.6270  -17.9020 O.2    39  SER39      -0.2717
     28  CB        17.0200  -21.2880  -18.3060 C.3    39  SER39       0.2103
     29  OG        16.8030  -20.5740  -19.5350 O.3    39  SER39      -0.2182
     30  N         19.9050  -20.6150  -17.3210 N.am   40  GLY40      -0.1956
     31  CA        21.2480  -20.1050  -17.4790 C.3    40  GLY40       0.1869
     32  C         21.6840  -19.1950  -16.3610 C.2    40  GLY40       0.2309
     33  O         22.6590  -18.4600  -16.5200 O.2    40  GLY40      -0.2863
     34  N         18.7210  -15.7990  -18.4140 N.3    56  ARG56      -0.1245
     35  CA        17.9100  -15.2710  -19.4990 C.3    56  ARG56       0.1563
     36  C         16.5130  -15.8790  -19.4270 C.2    56  ARG56       0.2260
     37  O         16.3570  -17.0920  -19.2040 O.2    56  ARG56      -0.2867
     38  CB        18.5580  -15.5790  -20.8450 C.3    56  ARG56       0.0307
     39  CG        17.6700  -15.2940  -22.0380 C.3    56  ARG56       0.0489
     40  CD        18.4190  -15.6110  -23.3060 C.3    56  ARG56       0.2205
     41  NE        18.2900  -17.0120  -23.6460 N.pl3  56  ARG56      -0.0865
     42  CZ        18.5660  -17.4870  -24.8490 C.cat  56  ARG56       0.5346
     43  NH1       19.0300  -16.6480  -25.7690 N.pl3  56  ARG56       0.1354
     44  NH2       18.3980  -18.7820  -25.1260 N.pl3  56  ARG56       0.1354
     45  N         13.8190  -16.9740  -21.5710 N.3    58  ASN58      -0.1240
     46  CA        13.4420  -17.4210  -22.8990 C.3    58  ASN58       0.1653
     47  C         11.9840  -17.8730  -22.8450 C.2    58  ASN58       0.2266
     48  O         11.6840  -18.9310  -22.2810 O.2    58  ASN58      -0.2867
     49  CB        14.3590  -18.5590  -23.3300 C.3    58  ASN58       0.1155
     50  CG        14.0270  -19.1040  -24.6960 C.2    58  ASN58       0.2627
     51  OD1       12.9140  -18.9410  -25.1820 O.2    58  ASN58      -0.2716
     52  ND2       14.9950  -19.7660  -25.3270 N.am   58  ASN58      -0.0877
     53  N         13.0150  -13.2710  -25.9250 N.3    63  ASN63      -0.1240
     54  CA        14.0640  -13.4790  -24.9440 C.3    63  ASN63       0.1653
     55  C         14.5160  -12.1670  -24.3150 C.2    63  ASN63       0.2266
     56  O         14.5850  -11.1220  -24.9770 O.2    63  ASN63      -0.2867
     57  CB        15.2570  -14.1400  -25.5900 C.3    63  ASN63       0.1155
     58  CG        14.8830  -15.3780  -26.3400 C.2    63  ASN63       0.2627
     59  OD1       14.0290  -16.1510  -25.9040 O.2    63  ASN63      -0.2716
     60  ND2       15.5000  -15.5780  -27.4780 N.am   63  ASN63      -0.0877
     61  N         24.0120  -17.4170  -18.8580 N.3    91  ARG91      -0.1245
     62  CA        24.9870  -18.5320  -18.7830 C.3    91  ARG91       0.1563
     63  C         26.2460  -18.0740  -18.0570 C.2    91  ARG91       0.2260
     64  O         27.3750  -18.2220  -18.5220 O.2    91  ARG91      -0.2867
     65  CB        25.3030  -19.1030  -20.1500 C.3    91  ARG91       0.0307
     66  CG        23.9950  -19.5830  -20.8300 C.3    91  ARG91       0.0489
     67  CD        24.2970  -20.3810  -22.0750 C.3    91  ARG91       0.2205
     68  NE        24.9060  -21.6560  -21.7230 N.pl3  91  ARG91      -0.0865
     69  CZ        25.7660  -22.3180  -22.4850 C.cat  91  ARG91       0.5346
     70  NH1       26.1070  -21.8350  -23.6750 N.pl3  91  ARG91       0.1354
     71  NH2       26.2810  -23.4710  -22.0560 N.pl3  91  ARG91       0.1354
     72  N         32.5380  -20.8480  -23.6810 N.3   154  PHE154     -0.1241
     73  CA        32.4000  -20.5080  -25.0960 C.3   154  PHE154      0.1605
     74  C         32.7980  -19.0510  -25.2560 C.2   154  PHE154      0.2264
     75  O         32.2670  -18.1840  -24.5470 O.2   154  PHE154     -0.2867
     76  CB        30.9490  -20.7380  -25.5690 C.3   154  PHE154      0.0534
     77  CG        30.7220  -20.3920  -27.0110 C.ar  154  PHE154     -0.0203
     78  CD1       31.2590  -21.1770  -28.0130 C.ar  154  PHE154     -0.0042
     79  CD2       29.9850  -19.2690  -27.3680 C.ar  154  PHE154     -0.0042
     80  CE1       31.0640  -20.8570  -29.3600 C.ar  154  PHE154     -0.0003
     81  CE2       29.7890  -18.9470  -28.7200 C.ar  154  PHE154     -0.0003
     82  CZ        30.3360  -19.7440  -29.7030 C.ar  154  PHE154     -0.0000
     83  N         34.3850  -23.1970  -28.4940 N.3   159  ARG159     -0.1245
     84  CA        34.2630  -23.7870  -27.1790 C.3   159  ARG159      0.1563
     85  C         35.6480  -24.0710  -26.6170 C.2   159  ARG159      0.2260
     86  O         36.6110  -24.2700  -27.3590 O.2   159  ARG159     -0.2867
     87  CB        33.4090  -25.0350  -27.2710 C.3   159  ARG159      0.0307
     88  CG        31.9880  -24.6270  -27.5650 C.3   159  ARG159      0.0489
     89  CD        31.1580  -25.7540  -28.0680 C.3   159  ARG159      0.2205
     90  NE        29.7730  -25.3340  -28.2070 N.pl3 159  ARG159     -0.0865
     91  CZ        29.1600  -25.1860  -29.3740 C.cat 159  ARG159      0.5346
     92  NH1       29.7990  -25.4400  -30.5200 N.pl3 159  ARG159      0.1354
     93  NH2       27.8990  -24.8050  -29.3820 N.pl3 159  ARG159      0.1354
     94  N         31.8890  -26.7140  -22.7470 N.3   184  SER184     -0.1202
     95  CA        31.0680  -25.5400  -22.4990 C.3   184  SER184      0.2020
     96  C         29.7510  -26.0130  -21.9050 C.2   184  SER184      0.2619
     97  O         29.1350  -26.9470  -22.4280 O.2   184  SER184     -0.2717
     98  CB        30.8310  -24.7360  -23.7780 C.3   184  SER184      0.2103
     99  OG        30.2070  -25.5320  -24.7620 O.3   184  SER184     -0.2182
    100  N         29.3370  -25.3800  -20.8110 N.am  185  GLY185     -0.1956
    101  CA        28.1560  -25.8050  -20.0880 C.3   185  GLY185      0.1869
    102  C         28.3550  -27.0230  -19.2120 C.2   185  GLY185      0.2309
    103  O         27.4080  -27.7830  -19.0060 O.2   185  GLY185     -0.2863
    104  N         29.4760  -29.7830  -23.2340 N.3   201  TYR201     -0.1241
    105  CA        29.3970  -29.9900  -24.6780 C.3   201  TYR201      0.1605
    106  C         30.7570  -29.6680  -25.2670 C.2   201  TYR201      0.2264
    107  O         31.3110  -28.5910  -25.0020 O.2   201  TYR201     -0.2867
    108  CB        28.3110  -29.0980  -25.3160 C.3   201  TYR201      0.0534
    109  CG        28.0360  -29.3920  -26.7790 C.ar  201  TYR201     -0.0201
    110  CD1       27.4300  -30.5800  -27.1610 C.ar  201  TYR201     -0.0009
    111  CD2       28.3840  -28.4780  -27.7750 C.ar  201  TYR201     -0.0009
    112  CE1       27.1710  -30.8650  -28.5170 C.ar  201  TYR201      0.0417
    113  CE2       28.1240  -28.7380  -29.1360 C.ar  201  TYR201      0.0417
    114  CZ        27.5240  -29.9260  -29.5000 C.ar  201  TYR201      0.1957
    115  OH        27.2800  -30.1800  -30.8440 O.3   201  TYR201     -0.2866
    116  N         27.2950  -33.9800  -26.2690 N.3   206  GLN206     -0.1245
    117  CA        27.1690  -33.8290  -24.8270 C.3   206  GLN206      0.1566
    118  C         27.9620  -34.9400  -24.1590 C.2   206  GLN206      0.2260
    119  O         28.0300  -36.0680  -24.6630 O.2   206  GLN206     -0.2867
    120  CB        25.7030  -33.8640  -24.3730 C.3   206  GLN206      0.0367
    121  CG        24.8520  -32.6750  -24.9040 C.3   206  GLN206      0.0905
    122  CD        24.3610  -32.9480  -26.3090 C.2   206  GLN206      0.2608
    123  OE1       24.3020  -34.0990  -26.7170 O.2   206  GLN206     -0.2717
    124  NE2       24.0020  -31.9030  -27.0510 N.am  206  GLN206     -0.0878
    125  N         24.6450  -31.6400  -20.5280 N.3   231  SER231     -0.1202
    126  CA        25.2150  -30.3070  -20.5780 C.3   231  SER231      0.2020
    127  C         24.2030  -29.3360  -19.9980 C.2   231  SER231      0.2618
    128  O         23.0050  -29.6140  -19.9570 O.2   231  SER231     -0.2717
    129  CB        25.5930  -29.9010  -22.0060 C.3   231  SER231      0.2103
    130  OG        24.5380  -30.1920  -22.8970 O.3   231  SER231     -0.2182
    131  N         24.6980  -28.1830  -19.5590 N.am  232  ALA232     -0.1979
    132  CA        23.8830  -27.2100  -18.8300 C.3   232  ALA232      0.1597
    133  C         23.2250  -27.8990  -17.6260 C.2   232  ALA232      0.2287
    134  O         22.0330  -27.7620  -17.3640 O.2   232  ALA232     -0.2864
    135  CB        22.8450  -26.5410  -19.7550 C.3   232  ALA232      0.0319
    136  N         20.7230  -31.2560  -20.3960 N.3   248  TYR248     -0.1241
    137  CA        20.2230  -31.6390  -21.7150 C.3   248  TYR248      0.1605
    138  C         21.1660  -32.6860  -22.2900 C.2   248  TYR248      0.2264
    139  O         22.3880  -32.5540  -22.1660 O.2   248  TYR248     -0.2867
    140  CB        20.1420  -30.3990  -22.6240 C.3   248  TYR248      0.0534
    141  CG        19.6930  -30.6410  -24.0510 C.ar  248  TYR248     -0.0201
    142  CD1       18.3850  -31.0480  -24.3420 C.ar  248  TYR248     -0.0009
    143  CD2       20.5540  -30.4260  -25.1050 C.ar  248  TYR248     -0.0009
    144  CE1       17.9560  -31.2410  -25.6730 C.ar  248  TYR248      0.0417
    145  CE2       20.1440  -30.6100  -26.4380 C.ar  248  TYR248      0.0417
    146  CZ        18.8430  -31.0190  -26.7110 C.ar  248  TYR248      0.1957
    147  OH        18.4290  -31.2040  -28.0280 O.3   248  TYR248     -0.2866
    148  N         15.5050  -33.3900  -21.8440 N.3   253  PHE253     -0.1241
    149  CA        15.8150  -32.6280  -20.6510 C.3   253  PHE253      0.1605
    150  C         15.7400  -33.5930  -19.4790 C.2   253  PHE253      0.2264
    151  O         14.6980  -34.2090  -19.2510 O.2   253  PHE253     -0.2867
    152  CB        14.8560  -31.4510  -20.5090 C.3   253  PHE253      0.0534
    153  CG        14.9840  -30.4630  -21.6380 C.ar  253  PHE253     -0.0203
    154  CD1       14.2590  -30.6350  -22.8050 C.ar  253  PHE253     -0.0042
    155  CD2       15.8820  -29.4060  -21.5560 C.ar  253  PHE253     -0.0042
    156  CE1       14.3980  -29.7430  -23.8800 C.ar  253  PHE253     -0.0003
    157  CE2       16.0230  -28.4970  -22.6130 C.ar  253  PHE253     -0.0003
    158  CZ        15.2840  -28.6700  -23.7840 C.ar  253  PHE253     -0.0000
    159  N         16.9300  -28.0940  -17.9920 N.3   278  SER278     -0.1202
    160  CA        18.3430  -27.7330  -18.0690 C.3   278  SER278      0.2020
    161  C         18.5250  -26.3070  -17.5690 C.2   278  SER278      0.2619
    162  O         17.5560  -25.5830  -17.2970 O.2   278  SER278     -0.2717
    163  CB        18.8940  -27.8820  -19.5010 C.3   278  SER278      0.2103
    164  OG        18.4110  -26.8060  -20.3010 O.3   278  SER278     -0.2182
    165  N         19.7910  -25.9240  -17.3950 N.am  279  GLY279     -0.1956
    166  CA        20.1420  -24.5510  -17.0180 C.3   279  GLY279      0.1869
    167  C         19.6750  -24.0690  -15.6590 C.2   279  GLY279      0.2309
    168  O         19.4120  -22.8690  -15.5050 O.2   279  GLY279     -0.2863
@<TRIPOS>BOND
     1   115   114    1
     2    92    91    1
     3    82    80   ar
     4    82    81   ar
     5   114   113   ar
     6   114   112   ar
     7    93    91    1
     8    91    90    2
     9    80    78   ar
    10   113   111   ar
    11    81    79   ar
    12   112   110   ar
    13    83    84    1
    14    90    89    1
    15    89    88    1
    16   147   146    1
    17    78    77   ar
    18   111   109   ar
    19    88    87    1
    20    60    58   am
    21    79    77   ar
    22    86    85    2
    23    87    84    1
    24    84    85    1
    25   110   109   ar
    26   124   122   am
    27    77    76    1
    28   109   108    1
    29   123   122    2
    30   146   145   ar
    31   146   144   ar
    32   145   143   ar
    33    58    59    2
    34    58    57    1
    35   122   121    1
    36   116   117    1
    37    53    54    1
    38    43    42    1
    39   144   142   ar
    40    57    54    1
    41    76    73    1
    42    22    21    1
    43    52    50   am
    44   108   105    1
    45    12    11    1
    46   106   107    2
    47   106   105    1
    48    74    73    1
    49    74    75    2
    50    51    50    2
    51    44    42    1
    52   143   141   ar
    53    73    72    1
    54    56    55    2
    55    54    55    1
    56   121   120    1
    57    42    41    2
    58   117   120    1
    59   117   118    1
    60    99    98    1
    61    50    49    1
    62   105   104    1
    63   119   118    2
    64    21    23    1
    65    21    20    2
    66   142   141   ar
    67    16    15    2
    68   141   140    1
    69    11     9   ar
    70    11    10   ar
    71   156   158   ar
    72   156   154   ar
    73    19    20    1
    74    19    18    1
    75   158   157   ar
    76    98    95    1
    77    70    69    1
    78    41    40    1
    79     9     7   ar
    80    49    46    1
    81    40    39    1
    82    14    15    1
    83    14    17    1
    84    14    13    1
    85    10     8   ar
    86    17    18    1
    87    46    47    1
    88    46    45    1
    89   130   129    1
    90    47    48    2
    91   154   153   ar
    92    94    95    1
    93   140   137    1
    94   157   155   ar
    95    95    96    1
    96    69    71    1
    97    69    68    2
    98    97    96    2
    99   138   139    2
   100   138   137    1
   101     7     6   ar
   102    67    68    1
   103    67    66    1
   104    39    38    1
   105   129   126    1
   106    96   100   am
   107     8     6   ar
   108   148   149    1
   109   137   136    1
   110   153   155   ar
   111   153   152    1
   112     6     5    1
   113    38    35    1
   114    66    65    1
   115   100   101    1
   116   149   152    1
   117   149   150    1
   118   126   125    1
   119   126   127    1
   120   164   163    1
   121    65    62    1
   122   101   102    1
   123     5     2    1
   124   127   128    2
   125   127   131   am
   126   135   132    1
   127   131   132    1
   128    29    28    1
   129   163   160    1
   130    35    36    1
   131    35    34    1
   132   150   151    2
   133    36    37    2
   134     3     4    2
   135     3     2    1
   136   102   103    2
   137     2     1    1
   138    61    62    1
   139   132   133    1
   140    62    63    1
   141    64    63    2
   142    28    25    1
   143   160   159    1
   144   160   161    1
   145    27    26    2
   146   133   134    2
   147   161   165   am
   148   161   162    2
   149    26    30   am
   150    26    25    1
   151    31    30    1
   152    31    32    1
   153   165   166    1
   154    25    24    1
   155   166   167    1
   156    33    32    2
   157   167   168    2
