@<TRIPOS>MOLECULE
tmp/6fmrA06.pdb
 85 81 0 0 0
SMALL
GASTEIGER

@<TRIPOS>ATOM
      1  N         92.5020   66.2440    4.8370 N.3   320  TYR320     -0.1241
      2  CA        93.3020   67.2330    5.5520 C.3   320  TYR320      0.1605
      3  C         93.0690   67.1960    7.0580 C.2   320  TYR320      0.2264
      4  O         93.9520   67.5990    7.8230 O.2   320  TYR320     -0.2867
      5  CB        93.0040   68.6400    5.0300 C.3   320  TYR320      0.0534
      6  CG        93.5780   68.9530    3.6650 C.ar  320  TYR320     -0.0201
      7  CD1       94.4580   68.0820    3.0380 C.ar  320  TYR320     -0.0009
      8  CD2       93.2440   70.1310    3.0100 C.ar  320  TYR320     -0.0009
      9  CE1       94.9840   68.3740    1.7920 C.ar  320  TYR320      0.0417
     10  CE2       93.7650   70.4310    1.7670 C.ar  320  TYR320      0.0417
     11  CZ        94.6340   69.5510    1.1620 C.ar  320  TYR320      0.1957
     12  OH        95.1530   69.8500   -0.0780 O.3   320  TYR320     -0.2866
     13  N         95.6740   79.7850   -9.9620 N.3   354  LEU354     -0.1245
     14  CA        96.0200   78.5550  -10.6640 C.3   354  LEU354      0.1561
     15  C         95.1110   78.3190  -11.8620 C.2   354  LEU354      0.2260
     16  O         95.5540   77.7740  -12.8790 O.2   354  LEU354     -0.2867
     17  CB        95.9490   77.3670   -9.7040 C.3   354  LEU354      0.0270
     18  CG        96.2660   75.9920  -10.2940 C.3   354  LEU354      0.0019
     19  CD1       97.7440   75.8870  -10.6350 C.3   354  LEU354      0.0001
     20  CD2       95.8460   74.8800   -9.3480 C.3   354  LEU354      0.0001
     21  N         97.1060   77.5510  -22.9630 N.3   361  TYR361     -0.1241
     22  CA        96.4950   76.7480  -24.0140 C.3   361  TYR361      0.1605
     23  C         95.3800   77.4660  -24.7620 C.2   361  TYR361      0.2264
     24  O         95.0230   77.0380  -25.8650 O.2   361  TYR361     -0.2867
     25  CB        95.9240   75.4470  -23.4340 C.3   361  TYR361      0.0534
     26  CG        96.9120   74.6070  -22.6560 C.ar  361  TYR361     -0.0201
     27  CD1       97.8580   73.8290  -23.3090 C.ar  361  TYR361     -0.0009
     28  CD2       96.8820   74.5750  -21.2670 C.ar  361  TYR361     -0.0009
     29  CE1       98.7570   73.0530  -22.6000 C.ar  361  TYR361      0.0417
     30  CE2       97.7750   73.8020  -20.5510 C.ar  361  TYR361      0.0417
     31  CZ        98.7100   73.0430  -21.2220 C.ar  361  TYR361      0.1957
     32  OH        99.6010   72.2720  -20.5120 O.3   361  TYR361     -0.2866
     33  N         93.4570   69.4440  -18.8050 N.3   368  SER368     -0.1217
     34  CA        93.4850   68.2590  -17.9630 C.3   368  SER368      0.1889
     35  C         92.5830   68.4510  -16.7460 C.2   368  SER368      0.2288
     36  O         92.4990   69.5560  -16.2010 O.2   368  SER368     -0.2866
     37  CB        94.9110   67.9580  -17.5080 C.3   368  SER368      0.2089
     38  OG        94.9370   66.8790  -16.5920 O.3   368  SER368     -0.2183
     39  N         93.2490   67.6620  -13.8970 N.3   370  LEU370     -0.1231
     40  CA        94.0920   67.9030  -12.7330 C.3   370  LEU370      0.1693
     41  C         94.1540   69.3760  -12.3500 C.2   370  LEU370      0.2592
     42  O         94.5800   69.6930  -11.2340 O.2   370  LEU370     -0.2718
     43  CB        95.5020   67.3710  -12.9870 C.3   370  LEU370      0.0284
     44  CG        95.6040   65.9000  -13.3940 C.3   370  LEU370      0.0019
     45  CD1       97.0570   65.4660  -13.4710 C.3   370  LEU370      0.0001
     46  CD2       94.8280   65.0180  -12.4300 C.3   370  LEU370      0.0001
     47  N         93.7500   70.2800  -13.2450 N.am  371  TRP371     -0.1976
     48  CA        93.7200   71.6960  -12.8950 C.3   371  TRP371      0.1640
     49  C         92.6730   71.9770  -11.8250 C.2   371  TRP371      0.2290
     50  O         92.8880   72.8160  -10.9430 O.2   371  TRP371     -0.2864
     51  CB        93.4540   72.5450  -14.1380 C.3   371  TRP371      0.0576
     52  CG        94.5880   72.5530  -15.1130 C.ar  371  TRP371      0.0006
     53  CD1       94.6630   71.8650  -16.2890 C.ar  371  TRP371      0.0946
     54  CD2       95.8150   73.2810  -14.9940 C.ar  371  TRP371      0.0152
     55  NE1       95.8610   72.1230  -16.9120 N.ar  371  TRP371     -0.2442
     56  CE2       96.5860   72.9890  -16.1370 C.ar  371  TRP371      0.0810
     57  CE3       96.3370   74.1520  -14.0320 C.ar  371  TRP371      0.0012
     58  CZ2       97.8500   73.5370  -16.3440 C.ar  371  TRP371      0.0191
     59  CZ3       97.5910   74.6950  -14.2400 C.ar  371  TRP371      0.0001
     60  CH2       98.3340   74.3860  -15.3870 C.ar  371  TRP371      0.0015
     61  N         93.7680   70.4850   -8.4110 N.3   374  GLY374     -0.1225
     62  CA        94.7660   71.3440   -7.8010 C.3   374  GLY374      0.1811
     63  C         94.1820   72.6290   -7.2620 C.2   374  GLY374      0.2280
     64  O         94.6470   73.1410   -6.2390 O.2   374  GLY374     -0.2866
     65  N         92.4080   71.6750   -4.0810 N.3   377  ALA377     -0.1231
     66  CA        93.3900   71.3690   -3.0470 C.3   377  ALA377      0.1694
     67  C         93.9040   72.6340   -2.3720 C.2   377  ALA377      0.2591
     68  O         94.1980   72.6210   -1.1710 O.2   377  ALA377     -0.2718
     69  CB        94.5520   70.5740   -3.6430 C.3   377  ALA377      0.0304
     70  N         94.0100   73.7340   -3.1190 N.am  378  LEU378     -0.1980
     71  CA        94.5070   74.9800   -2.5480 C.3   378  LEU378      0.1596
     72  C         93.4440   75.6890   -1.7170 C.2   378  LEU378      0.2287
     73  O         93.7360   76.1740   -0.6190 O.2   378  LEU378     -0.2864
     74  CB        95.0090   75.9030   -3.6580 C.3   378  LEU378      0.0297
     75  CG        96.2650   75.4570   -4.4040 C.3   378  LEU378      0.0022
     76  CD1       96.5570   76.3990   -5.5640 C.3   378  LEU378      0.0001
     77  CD2       97.4490   75.3850   -3.4510 C.3   378  LEU378      0.0001
     78  N         92.9780   74.0000    1.6230 N.3   381  LEU381     -0.1245
     79  CA        94.0700   74.3470    2.5260 C.3   381  LEU381      0.1561
     80  C         93.7960   75.6710    3.2280 C.2   381  LEU381      0.2260
     81  O         94.1550   75.8500    4.3980 O.2   381  LEU381     -0.2867
     82  CB        95.3920   74.4160    1.7630 C.3   381  LEU381      0.0270
     83  CG        96.2860   73.1790    1.8200 C.3   381  LEU381      0.0019
     84  CD1       97.6470   73.4860    1.2180 C.3   381  LEU381      0.0001
     85  CD2       96.4260   72.6930    3.2520 C.3   381  LEU381      0.0001
@<TRIPOS>BOND
     1    24    23    2
     2    23    22    1
     3    22    25    1
     4    22    21    1
     5    25    26    1
     6    27    26   ar
     7    27    29   ar
     8    26    28   ar
     9    29    31   ar
    10    28    30   ar
    11    31    30   ar
    12    31    32    1
    13    33    34    1
    14    34    37    1
    15    34    35    1
    16    37    38    1
    17    55    53   ar
    18    55    56   ar
    19    35    36    2
    20    58    56   ar
    21    58    60   ar
    22    53    52   ar
    23    56    54   ar
    24    60    59   ar
    25    52    54   ar
    26    52    51    1
    27    54    57   ar
    28    59    57   ar
    29    51    48    1
    30    39    40    1
    31    45    44    1
    32    44    43    1
    33    44    46    1
    34    47    48    1
    35    47    41   am
    36    43    40    1
    37    48    49    1
    38    16    15    2
    39    40    41    1
    40    41    42    2
    41    15    14    1
    42    49    50    2
    43    14    13    1
    44    14    17    1
    45    19    18    1
    46    18    17    1
    47    18    20    1
    48    61    62    1
    49    62    63    1
    50    63    64    2
    51    76    75    1
    52    75    74    1
    53    75    77    1
    54    65    66    1
    55    74    71    1
    56    69    66    1
    57    70    71    1
    58    70    67   am
    59    66    67    1
    60    71    72    1
    61    67    68    2
    62    72    73    2
    63    12    11    1
    64    11    10   ar
    65    11     9   ar
    66    84    83    1
    67    78    79    1
    68    82    83    1
    69    82    79    1
    70    10     8   ar
    71     9     7   ar
    72    83    85    1
    73    79    80    1
    74     8     6   ar
    75     7     6   ar
    76    80    81    2
    77     6     5    1
    78     1     2    1
    79     5     2    1
    80     2     3    1
    81     3     4    2
