@<TRIPOS>MOLECULE
tmp/6fmrA10.pdb
 83 81 0 0 0
SMALL
GASTEIGER

@<TRIPOS>ATOM
      1  N         58.7660   96.9650   -0.1010 N.3   222  ILE222     -0.1245
      2  CA        59.8840   97.1520   -1.0230 C.3   222  ILE222      0.1561
      3  C         59.6090   96.4410   -2.3410 C.2   222  ILE222      0.2260
      4  O         59.8950   96.9710   -3.4220 O.2   222  ILE222     -0.2867
      5  CB        61.1980   96.6700   -0.3790 C.3   222  ILE222      0.0252
      6  CG1       61.5530   97.5390    0.8290 C.3   222  ILE222      0.0019
      7  CG2       62.3330   96.6880   -1.3900 C.3   222  ILE222      0.0019
      8  CD1       62.8260   97.1170    1.5310 C.3   222  ILE222      0.0001
      9  N         59.2140   99.4250  -12.0510 N.3   229  GLY229     -0.1210
     10  CA        59.5500   98.6070  -13.2040 C.3   229  GLY229      0.1956
     11  C         60.6820   97.6250  -12.9820 C.2   229  GLY229      0.2612
     12  O         61.0180   96.8780  -13.9120 O.2   229  GLY229     -0.2717
     13  N         61.2910   97.5850  -11.7970 N.am  230  TRP230     -0.1962
     14  CA        62.3880   96.6590  -11.5140 C.3   230  TRP230      0.1771
     15  C         61.8130   95.3260  -11.0320 C.2   230  TRP230      0.2620
     16  O         61.9320   94.9340   -9.8700 O.2   230  TRP230     -0.2715
     17  CB        63.3420   97.2660  -10.4920 C.3   230  TRP230      0.0590
     18  CG        63.9100   98.5930  -10.9060 C.ar  230  TRP230      0.0006
     19  CD1       64.0310   99.0730  -12.1780 C.ar  230  TRP230      0.0946
     20  CD2       64.4260   99.6140  -10.0420 C.ar  230  TRP230      0.0152
     21  NE1       64.5940  100.3260  -12.1600 N.ar  230  TRP230     -0.2442
     22  CE2       64.8450  100.6810  -10.8610 C.ar  230  TRP230      0.0810
     23  CE3       64.5750   99.7290   -8.6560 C.ar  230  TRP230      0.0012
     24  CZ2       65.4040  101.8470  -10.3410 C.ar  230  TRP230      0.0191
     25  CZ3       65.1310  100.8870   -8.1420 C.ar  230  TRP230      0.0001
     26  CH2       65.5380  101.9300   -8.9830 C.ar  230  TRP230      0.0015
     27  N         61.1750   94.6210  -11.9670 N.am  231  ASN231     -0.1958
     28  CA        60.4590   93.3870  -11.6640 C.3   231  ASN231      0.1819
     29  C         61.0160   92.1940  -12.4360 C.2   231  ASN231      0.2622
     30  O         60.2930   91.2350  -12.7140 O.2   231  ASN231     -0.2715
     31  CB        58.9640   93.5530  -11.9380 C.3   231  ASN231      0.1195
     32  CG        58.6790   94.1580  -13.3010 C.2   231  ASN231      0.2630
     33  OD1       59.4870   94.0550  -14.2250 O.2   231  ASN231     -0.2716
     34  ND2       57.5220   94.7980  -13.4320 N.am  231  ASN231     -0.0877
     35  N         62.2970   92.2360  -12.7880 N.am  232  SER232     -0.1950
     36  CA        62.9400   91.1100  -13.4470 C.3   232  SER232      0.1924
     37  C         63.5850   90.1940  -12.4110 C.2   232  SER232      0.2314
     38  O         63.7580   90.5550  -11.2450 O.2   232  SER232     -0.2863
     39  CB        63.9840   91.5960  -14.4520 C.3   232  SER232      0.2116
     40  OG        65.0880   92.1930  -13.7930 O.3   232  SER232     -0.2180
     41  N         66.8240   89.1950  -12.3220 N.3   234  PRO234     -0.2102
     42  CA        68.0210   89.8590  -11.7810 C.3   234  PRO234      0.1504
     43  C         67.7020   90.9970  -10.8280 C.2   234  PRO234      0.2575
     44  O         68.5420   91.3290   -9.9830 O.2   234  PRO234     -0.2718
     45  CB        68.7410   90.3670  -13.0380 C.3   234  PRO234      0.0282
     46  CG        68.2850   89.4570  -14.1170 C.3   234  PRO234      0.0208
     47  CD        66.8520   89.1600  -13.7960 C.3   234  PRO234      0.0893
     48  N         66.5170   91.6050  -10.9320 N.am  235  ALA235     -0.1980
     49  CA        66.1480   92.6610   -9.9960 C.3   235  ALA235      0.1597
     50  C         65.8790   92.0980   -8.6060 C.2   235  ALA235      0.2287
     51  O         66.2950   92.6860   -7.6010 O.2   235  ALA235     -0.2864
     52  CB        64.9290   93.4230  -10.5140 C.3   235  ALA235      0.0319
     53  N         69.1370   91.0200   -6.9610 N.3   238  ASN238     -0.1225
     54  CA        69.8360   92.1750   -6.4090 C.3   238  ASN238      0.1785
     55  C         69.2370   92.6100   -5.0770 C.2   238  ASN238      0.2597
     56  O         69.9700   93.0560   -4.1870 O.2   238  ASN238     -0.2718
     57  CB        69.8150   93.3320   -7.4080 C.3   238  ASN238      0.1169
     58  CG        70.6650   93.0580   -8.6330 C.2   238  ASN238      0.2627
     59  OD1       71.1010   91.9300   -8.8610 O.2   238  ASN238     -0.2716
     60  ND2       70.9030   94.0910   -9.4300 N.am  238  ASN238     -0.0877
     61  N         67.9160   92.4870   -4.9200 N.am  239  LEU239     -0.1980
     62  CA        67.2900   92.8150   -3.6430 C.3   239  LEU239      0.1596
     63  C         67.7970   91.9020   -2.5350 C.2   239  LEU239      0.2287
     64  O         68.2370   92.3720   -1.4790 O.2   239  LEU239     -0.2864
     65  CB        65.7690   92.7200   -3.7590 C.3   239  LEU239      0.0297
     66  CG        64.9930   92.7050   -2.4370 C.3   239  LEU239      0.0022
     67  CD1       65.2010   93.9970   -1.6550 C.3   239  LEU239      0.0001
     68  CD2       63.5110   92.4510   -2.6760 C.3   239  LEU239      0.0001
     69  N         71.2440   92.7890   -1.5240 N.3   242  ILE242     -0.1231
     70  CA        71.4000   93.9740   -0.6870 C.3   242  ILE242      0.1692
     71  C         70.9680   93.6850    0.7450 C.2   242  ILE242      0.2591
     72  O         71.6410   94.0870    1.7010 O.2   242  ILE242     -0.2718
     73  CB        70.6230   95.1570   -1.2940 C.3   242  ILE242      0.0266
     74  CG1       71.2300   95.5440   -2.6440 C.3   242  ILE242      0.0019
     75  CG2       70.6270   96.3450   -0.3470 C.3   242  ILE242      0.0020
     76  CD1       70.5510   96.7120   -3.3110 C.3   242  ILE242      0.0001
     77  N         69.8490   92.9770    0.9220 N.am  243  VAL243     -0.1980
     78  CA        69.3740   92.6890    2.2700 C.3   243  VAL243      0.1595
     79  C         70.2760   91.6900    2.9830 C.2   243  VAL243      0.2287
     80  O         70.2950   91.6540    4.2180 O.2   243  VAL243     -0.2864
     81  CB        67.9180   92.1830    2.2470 C.3   243  VAL243      0.0276
     82  CG1       67.0280   93.1540    1.4850 C.3   243  VAL243      0.0022
     83  CG2       67.8390   90.7890    1.6470 C.3   243  VAL243      0.0022
@<TRIPOS>BOND
     1    39    40    1
     2    39    36    1
     3    33    32    2
     4    46    47    1
     5    46    45    1
     6    12    11    2
     7    47    41    1
     8    36    35    1
     9    36    37    1
    10    34    32   am
    11    32    31    1
    12    10    11    1
    13    10     9    1
    14    45    42    1
    15    11    13   am
    16    35    29   am
    17    30    29    2
    18    29    28    1
    19    37    38    2
    20    41    42    1
    21    19    21   ar
    22    19    18   ar
    23    21    22   ar
    24    27    28    1
    25    27    15   am
    26    31    28    1
    27    13    14    1
    28    42    43    1
    29    14    15    1
    30    14    17    1
    31    15    16    2
    32    48    43   am
    33    48    49    1
    34    18    17    1
    35    18    20   ar
    36    22    24   ar
    37    22    20   ar
    38    43    44    2
    39    52    49    1
    40    24    26   ar
    41    20    23   ar
    42    49    50    1
    43    60    58   am
    44    26    25   ar
    45    59    58    2
    46    23    25   ar
    47    58    57    1
    48    50    51    2
    49    57    54    1
    50    53    54    1
    51    54    55    1
    52    55    61   am
    53    55    56    2
    54    61    62    1
    55    65    62    1
    56    65    66    1
    57    62    63    1
    58     4     3    2
    59    76    74    1
    60    68    66    1
    61    74    73    1
    62    63    64    2
    63    66    67    1
    64     3     2    1
    65    69    70    1
    66     7     5    1
    67    73    70    1
    68    73    75    1
    69     2     5    1
    70     2     1    1
    71    70    71    1
    72     5     6    1
    73    71    77   am
    74    71    72    2
    75     6     8    1
    76    77    78    1
    77    82    81    1
    78    83    81    1
    79    81    78    1
    80    78    79    1
    81    79    80    2
