@<TRIPOS>MOLECULE
tmp/6fmrA08.pdb
 96 96 0 0 0
SMALL
GASTEIGER

@<TRIPOS>ATOM
      1  N         64.3700   69.4590   18.9950 N.3    75  ARG75      -0.1231
      2  CA        64.0880   68.1800   18.3540 C.3    75  ARG75       0.1679
      3  C         62.9460   68.2780   17.3420 C.2    75  ARG75       0.2434
      4  O         63.0510   67.6930   16.2570 O.2    75  ARG75      -0.2733
      5  CB        63.8000   67.1040   19.4080 C.3    75  ARG75       0.0321
      6  CG        65.0590   66.5770   20.0880 C.3    75  ARG75       0.0489
      7  CD        64.7410   65.6080   21.2150 C.3    75  ARG75       0.2205
      8  NE        63.9720   64.4540   20.7580 N.pl3  75  ARG75      -0.0865
      9  CZ        63.6430   63.4260   21.5330 C.cat  75  ARG75       0.5346
     10  NH1       64.0190   63.4060   22.8040 N.pl3  75  ARG75       0.1354
     11  NH2       62.9380   62.4180   21.0390 N.pl3  75  ARG75       0.1354
     12  N         61.8450   68.9840   17.6330 N.am   76  PRO76      -0.2729
     13  CA        60.8390   69.1890   16.5760 C.3    76  PRO76       0.1401
     14  C         61.3460   70.0260   15.4130 C.2    76  PRO76       0.2269
     15  O         60.8230   69.9010   14.2980 O.2    76  PRO76      -0.2865
     16  CB        59.6890   69.8870   17.3150 C.3    76  PRO76       0.0296
     17  CG        59.8510   69.4760   18.7280 C.3    76  PRO76       0.0237
     18  CD        61.3320   69.4180   18.9460 C.3    76  PRO76       0.0939
     19  N         63.1500   67.5840   12.9920 N.3    79  PHE79      -0.1227
     20  CA        62.2150   66.7210   12.2770 C.3    79  PHE79       0.1736
     21  C         61.4790   67.4910   11.1870 C.2    79  PHE79       0.2595
     22  O         61.5450   67.1360   10.0040 O.2    79  PHE79      -0.2718
     23  CB        61.2250   66.0920   13.2590 C.3    79  PHE79       0.0547
     24  CG        60.2000   65.2100   12.6020 C.ar   79  PHE79      -0.0202
     25  CD1       60.4800   63.8810   12.3360 C.ar   79  PHE79      -0.0042
     26  CD2       58.9560   65.7110   12.2500 C.ar   79  PHE79      -0.0042
     27  CE1       59.5410   63.0670   11.7310 C.ar   79  PHE79      -0.0003
     28  CE2       58.0140   64.9040   11.6420 C.ar   79  PHE79      -0.0003
     29  CZ        58.3060   63.5800   11.3850 C.ar   79  PHE79      -0.0000
     30  N         60.7620   68.5510   11.5690 N.am   80  TRP80      -0.1976
     31  CA        59.9910   69.3060   10.5860 C.3    80  TRP80       0.1640
     32  C         60.8920   70.0600    9.6190 C.2    80  TRP80       0.2290
     33  O         60.4890   70.3270    8.4820 O.2    80  TRP80      -0.2864
     34  CB        59.0300   70.2620   11.2900 C.3    80  TRP80       0.0576
     35  CG        57.9290   69.5450   12.0020 C.ar   80  TRP80       0.0006
     36  CD1       57.7270   69.4810   13.3480 C.ar   80  TRP80       0.0946
     37  CD2       56.8870   68.7630   11.4020 C.ar   80  TRP80       0.0152
     38  NE1       56.6170   68.7200   13.6250 N.ar   80  TRP80      -0.2442
     39  CE2       56.0840   68.2660   12.4470 C.ar   80  TRP80       0.0810
     40  CE3       56.5540   68.4400   10.0820 C.ar   80  TRP80       0.0012
     41  CZ2       54.9680   67.4650   12.2140 C.ar   80  TRP80       0.0191
     42  CZ3       55.4460   67.6440    9.8530 C.ar   80  TRP80       0.0001
     43  CH2       54.6670   67.1660   10.9140 C.ar   80  TRP80       0.0015
     44  N         66.6760   59.3930   12.4900 N.3   181  TYR181     -0.1227
     45  CA        66.5560   60.4400   13.4990 C.3   181  TYR181      0.1736
     46  C         65.3370   60.2230   14.3880 C.2   181  TYR181      0.2595
     47  O         65.4240   60.3640   15.6140 O.2   181  TYR181     -0.2718
     48  CB        66.4870   61.8120   12.8310 C.3   181  TYR181      0.0548
     49  CG        66.0640   62.9070   13.7770 C.ar  181  TYR181     -0.0200
     50  CD1       64.7990   63.4730   13.6930 C.ar  181  TYR181     -0.0009
     51  CD2       66.9210   63.3600   14.7700 C.ar  181  TYR181     -0.0009
     52  CE1       64.4050   64.4680   14.5630 C.ar  181  TYR181      0.0417
     53  CE2       66.5380   64.3550   15.6440 C.ar  181  TYR181      0.0417
     54  CZ        65.2790   64.9040   15.5350 C.ar  181  TYR181      0.1957
     55  OH        64.8940   65.8940   16.4050 O.3   181  TYR181     -0.2866
     56  N         64.1930   59.8860   13.7910 N.am  182  TYR182     -0.1976
     57  CA        62.9680   59.7220   14.5670 C.3   182  TYR182      0.1639
     58  C         63.0730   58.5350   15.5170 C.2   182  TYR182      0.2290
     59  O         62.9380   58.6850   16.7370 O.2   182  TYR182     -0.2864
     60  CB        61.7720   59.5610   13.6250 C.3   182  TYR182      0.0560
     61  CG        60.4450   59.4030   14.3330 C.ar  182  TYR182     -0.0198
     62  CD1       59.7060   60.5130   14.7220 C.ar  182  TYR182     -0.0009
     63  CD2       59.9270   58.1420   14.6090 C.ar  182  TYR182     -0.0009
     64  CE1       58.4930   60.3730   15.3680 C.ar  182  TYR182      0.0417
     65  CE2       58.7160   57.9930   15.2550 C.ar  182  TYR182      0.0417
     66  CZ        58.0020   59.1100   15.6310 C.ar  182  TYR182      0.1957
     67  OH        56.7950   58.9650   16.2750 O.3   182  TYR182     -0.2866
     68  N         66.2730   58.8150   17.7750 N.3   185  GLY185     -0.1210
     69  CA        66.2050   59.8650   18.7760 C.3   185  GLY185      0.1956
     70  C         65.2790   59.5340   19.9260 C.2   185  GLY185      0.2611
     71  O         65.4600   60.0380   21.0380 O.2   185  GLY185     -0.2717
     72  N         64.2820   58.6820   19.6840 N.am  186  LYS186     -0.1979
     73  CA        63.3610   58.2750   20.7360 C.3   186  LYS186      0.1596
     74  C         64.0230   57.4240   21.8090 C.2   186  LYS186      0.2287
     75  O         63.4240   57.2240   22.8710 O.2   186  LYS186     -0.2864
     76  CB        62.1820   57.5070   20.1360 C.3   186  LYS186      0.0298
     77  CG        61.0210   58.3820   19.6990 C.3   186  LYS186      0.0038
     78  CD        59.8480   57.5370   19.2310 C.3   186  LYS186      0.0206
     79  CE        58.6220   58.3910   18.9580 C.3   186  LYS186      0.1093
     80  NZ        57.4850   57.5660   18.4700 N.3   186  LYS186     -0.1314
     81  N         68.0370   60.3440   22.8640 N.3   189  LEU189     -0.1245
     82  CA        67.9910   61.7920   23.0060 C.3   189  LEU189      0.1561
     83  C         67.1680   62.1880   24.2250 C.2   189  LEU189      0.2260
     84  O         66.1770   61.5400   24.5700 O.2   189  LEU189     -0.2867
     85  CB        67.4140   62.4520   21.7520 C.3   189  LEU189      0.0270
     86  CG        68.2880   62.3920   20.4990 C.3   189  LEU189      0.0019
     87  CD1       67.6770   63.2200   19.3790 C.3   189  LEU189      0.0001
     88  CD2       69.7050   62.8550   20.8040 C.3   189  LEU189      0.0001
     89  N         62.2830   68.2830   23.5310 N.3   194  LEU194     -0.1245
     90  CA        61.0680   68.2360   22.7280 C.3   194  LEU194      0.1561
     91  C         60.2800   69.5370   22.7910 C.2   194  LEU194      0.2260
     92  O         59.3470   69.7190   22.0010 O.2   194  LEU194     -0.2867
     93  CB        60.1800   67.0760   23.1850 C.3   194  LEU194      0.0270
     94  CG        60.7210   65.6680   22.9360 C.3   194  LEU194      0.0019
     95  CD1       59.8730   64.6340   23.6570 C.3   194  LEU194      0.0001
     96  CD2       60.7650   65.3770   21.4450 C.3   194  LEU194      0.0001
@<TRIPOS>BOND
     1    33    32    2
     2    32    31    1
     3    42    40   ar
     4    42    43   ar
     5    22    21    2
     6    40    37   ar
     7    31    34    1
     8    31    30    1
     9    43    41   ar
    10    21    30   am
    11    21    20    1
    12    34    35    1
    13    29    28   ar
    14    29    27   ar
    15    37    35   ar
    16    37    39   ar
    17    28    26   ar
    18    27    25   ar
    19    35    36   ar
    20    41    39   ar
    21    26    24   ar
    22    20    19    1
    23    20    23    1
    24    25    24   ar
    25    39    38   ar
    26    44    45    1
    27    24    23    1
    28    48    45    1
    29    48    49    1
    30    36    38   ar
    31    45    46    1
    32    60    61    1
    33    60    57    1
    34    50    49   ar
    35    50    52   ar
    36    49    51   ar
    37    56    46   am
    38    56    57    1
    39    15    14    2
    40    61    63   ar
    41    61    62   ar
    42    46    47    2
    43    52    54   ar
    44    57    58    1
    45    63    65   ar
    46    62    64   ar
    47    51    53   ar
    48    65    66   ar
    49    64    66   ar
    50    14    13    1
    51    58    59    2
    52    54    53   ar
    53    54    55    1
    54    66    67    1
    55     4     3    2
    56    13    16    1
    57    13    12    1
    58    16    17    1
    59     3    12   am
    60     3     2    1
    61    12    18    1
    62    68    69    1
    63     2     1    1
    64     2     5    1
    65    80    79    1
    66    17    18    1
    67    69    70    1
    68    79    78    1
    69    78    77    1
    70    87    86    1
    71     5     6    1
    72    72    70   am
    73    72    73    1
    74    77    76    1
    75    70    71    2
    76     6     7    1
    77    76    73    1
    78    86    88    1
    79    86    85    1
    80    73    74    1
    81     8     7    1
    82     8     9    2
    83    11     9    1
    84    96    94    1
    85     9    10    1
    86    85    82    1
    87    74    75    2
    88    92    91    2
    89    90    91    1
    90    90    93    1
    91    90    89    1
    92    81    82    1
    93    94    93    1
    94    94    95    1
    95    82    83    1
    96    83    84    2
