@<TRIPOS>MOLECULE
tmp/6fmrA09.pdb
 128 120 0 0 0
SMALL
GASTEIGER

@<TRIPOS>ATOM
      1  N         62.9810   77.3520  -19.3780 N.3    41  LEU41      -0.1245
      2  CA        63.4410   78.3700  -18.4410 C.3    41  LEU41       0.1561
      3  C         64.0060   79.5380  -19.2390 C.2    41  LEU41       0.2260
      4  O         64.9760   79.3710  -19.9870 O.2    41  LEU41      -0.2867
      5  CB        64.4910   77.7980  -17.4880 C.3    41  LEU41       0.0270
      6  CG        65.0920   78.7380  -16.4420 C.3    41  LEU41       0.0019
      7  CD1       64.0040   79.3840  -15.6000 C.3    41  LEU41       0.0001
      8  CD2       66.0740   77.9800  -15.5620 C.3    41  LEU41       0.0001
      9  N         65.8660   82.3140  -18.8430 N.3    43  ILE43      -0.1245
     10  CA        66.9380   83.0980  -18.2420 C.3    43  ILE43       0.1561
     11  C         68.2410   82.7490  -18.9500 C.2    43  ILE43       0.2260
     12  O         68.3180   81.7960  -19.7280 O.2    43  ILE43      -0.2867
     13  CB        67.0820   82.8570  -16.7220 C.3    43  ILE43       0.0252
     14  CG1       67.5840   81.4370  -16.4480 C.3    43  ILE43       0.0019
     15  CG2       65.7690   83.1160  -15.9970 C.3    43  ILE43       0.0019
     16  CD1       67.8630   81.1610  -14.9850 C.3    43  ILE43       0.0001
     17  N         71.5080   82.5230   -9.4580 N.3    51  ILE51      -0.1245
     18  CA        70.5140   81.8400   -8.6350 C.3    51  ILE51       0.1561
     19  C         71.1960   80.8830   -7.6670 C.2    51  ILE51       0.2260
     20  O         70.8710   80.8430   -6.4760 O.2    51  ILE51      -0.2867
     21  CB        69.4910   81.1090   -9.5230 C.3    51  ILE51       0.0252
     22  CG1       68.6820   82.1150  -10.3430 C.3    51  ILE51       0.0019
     23  CG2       68.5730   80.2400   -8.6750 C.3    51  ILE51       0.0019
     24  CD1       67.6620   81.4760  -11.2550 C.3    51  ILE51       0.0001
     25  N         72.8950   83.0330   -4.8300 N.3    53  ILE53      -0.1231
     26  CA        71.9400   83.6180   -3.8970 C.3    53  ILE53       0.1692
     27  C         71.1160   82.5420   -3.2000 C.2    53  ILE53       0.2592
     28  O         70.6000   82.7740   -2.1000 O.2    53  ILE53      -0.2718
     29  CB        71.0390   84.6380   -4.6230 C.3    53  ILE53       0.0266
     30  CG1       70.3890   85.5930   -3.6190 C.3    53  ILE53       0.0019
     31  CG2       69.9850   83.9340   -5.4630 C.3    53  ILE53       0.0020
     32  CD1       71.3770   86.4980   -2.9150 C.3    53  ILE53       0.0001
     33  N         70.9830   81.3630   -3.8140 N.am   54  TYR54      -0.1976
     34  CA        70.3550   80.2310   -3.1390 C.3    54  TYR54       0.1639
     35  C         71.1320   79.8580   -1.8840 C.2    54  TYR54       0.2290
     36  O         70.5670   79.7840   -0.7860 O.2    54  TYR54      -0.2864
     37  CB        70.2710   79.0440   -4.1040 C.3    54  TYR54       0.0560
     38  CG        69.4680   77.8460   -3.6400 C.ar   54  TYR54      -0.0198
     39  CD1       68.7520   77.8640   -2.4490 C.ar   54  TYR54      -0.0009
     40  CD2       69.4350   76.6860   -4.4040 C.ar   54  TYR54      -0.0009
     41  CE1       68.0280   76.7620   -2.0350 C.ar   54  TYR54       0.0417
     42  CE2       68.7140   75.5830   -3.9990 C.ar   54  TYR54       0.0417
     43  CZ        68.0130   75.6250   -2.8160 C.ar   54  TYR54       0.1957
     44  OH        67.2950   74.5230   -2.4150 O.3    54  TYR54      -0.2866
     45  N         60.3500   74.5120  -14.8820 N.3    97  ALA97      -0.1245
     46  CA        60.8240   75.7270  -14.2310 C.3    97  ALA97       0.1562
     47  C         59.8640   76.2440  -13.1690 C.2    97  ALA97       0.2260
     48  O         60.3020   76.9360  -12.2430 O.2    97  ALA97      -0.2867
     49  CB        61.0740   76.8150  -15.2760 C.3    97  ALA97       0.0290
     50  N         60.8790   75.3580   -9.5660 N.3   100  LEU100     -0.1231
     51  CA        62.1820   75.7480   -9.0370 C.3   100  LEU100      0.1693
     52  C         62.0390   76.6440   -7.8130 C.2   100  LEU100      0.2592
     53  O         62.7200   76.4410   -6.8020 O.2   100  LEU100     -0.2718
     54  CB        63.0010   76.4460  -10.1220 C.3   100  LEU100      0.0284
     55  CG        63.4500   75.5730  -11.2940 C.3   100  LEU100      0.0019
     56  CD1       64.1130   76.4200  -12.3680 C.3   100  LEU100      0.0001
     57  CD2       64.3890   74.4780  -10.8130 C.3   100  LEU100      0.0001
     58  N         61.1600   77.6460   -7.8850 N.am  101  PHE101     -0.1976
     59  CA        61.0310   78.5800   -6.7710 C.3   101  PHE101      0.1639
     60  C         60.3840   77.9170   -5.5600 C.2   101  PHE101      0.2290
     61  O         60.7750   78.1850   -4.4180 O.2   101  PHE101     -0.2864
     62  CB        60.2330   79.8110   -7.2000 C.3   101  PHE101      0.0560
     63  CG        60.1790   80.8890   -6.1560 C.ar  101  PHE101     -0.0200
     64  CD1       61.2770   81.7040   -5.9280 C.ar  101  PHE101     -0.0042
     65  CD2       59.0360   81.0860   -5.4000 C.ar  101  PHE101     -0.0042
     66  CE1       61.2340   82.6960   -4.9670 C.ar  101  PHE101     -0.0003
     67  CE2       58.9860   82.0770   -4.4380 C.ar  101  PHE101     -0.0003
     68  CZ        60.0870   82.8840   -4.2210 C.ar  101  PHE101     -0.0000
     69  N         63.0590   75.7260   -3.9100 N.3   104  ILE104     -0.1231
     70  CA        64.1220   76.4870   -3.2630 C.3   104  ILE104      0.1692
     71  C         63.6540   77.0310   -1.9180 C.2   104  ILE104      0.2591
     72  O         64.4020   77.0160   -0.9330 O.2   104  ILE104     -0.2718
     73  CB        64.6100   77.6070   -4.2030 C.3   104  ILE104      0.0266
     74  CG1       65.4770   77.0230   -5.3210 C.3   104  ILE104      0.0019
     75  CG2       65.3720   78.6750   -3.4370 C.3   104  ILE104      0.0020
     76  CD1       65.9570   78.0520   -6.3190 C.3   104  ILE104      0.0001
     77  N         62.4080   77.5040   -1.8480 N.am  105  ILE105     -0.1980
     78  CA        61.8890   78.0510   -0.5980 C.3   105  ILE105      0.1595
     79  C         61.7930   76.9650    0.4680 C.2   105  ILE105      0.2287
     80  O         62.1370   77.1920    1.6350 O.2   105  ILE105     -0.2864
     81  CB        60.5300   78.7340   -0.8430 C.3   105  ILE105      0.0276
     82  CG1       60.7180   80.0100   -1.6650 C.3   105  ILE105      0.0022
     83  CG2       59.8420   79.0550    0.4710 C.3   105  ILE105      0.0022
     84  CD1       61.5520   81.0640   -0.9670 C.3   105  ILE105      0.0001
     85  N         65.2920   76.2120    1.7740 N.3   108  ILE108     -0.1245
     86  CA        65.8250   77.3380    2.5390 C.3   108  ILE108      0.1561
     87  C         65.2510   77.3380    3.9500 C.2   108  ILE108      0.2260
     88  O         65.9840   77.4480    4.9400 O.2   108  ILE108     -0.2867
     89  CB        65.5410   78.6660    1.8140 C.3   108  ILE108      0.0252
     90  CG1       66.4590   78.8250    0.6010 C.3   108  ILE108      0.0019
     91  CG2       65.7070   79.8460    2.7640 C.3   108  ILE108      0.0019
     92  CD1       66.1700   80.0640   -0.2170 C.3   108  ILE108      0.0001
     93  N         63.9370   88.9860  -12.8500 N.3   233  LEU233     -0.1245
     94  CA        64.6260   88.0620  -11.9540 C.3   233  LEU233      0.1561
     95  C         65.9750   88.5940  -11.4800 C.2   233  LEU233      0.2260
     96  O         66.2690   88.4540  -10.2800 O.2   233  LEU233     -0.2867
     97  CB        64.7770   86.6900  -12.6250 C.3   233  LEU233      0.0270
     98  CG        65.4450   85.6110  -11.7720 C.3   233  LEU233      0.0019
     99  CD1       64.7170   85.4500  -10.4450 C.3   233  LEU233      0.0001
    100  CD2       65.4970   84.2890  -12.5200 C.3   233  LEU233      0.0001
    101  N         65.1840   90.9600   -8.5270 N.3   236  TYR236     -0.1227
    102  CA        64.9340   90.3420   -7.2280 C.3   236  TYR236      0.1736
    103  C         66.2210   89.8090   -6.6140 C.2   236  TYR236      0.2595
    104  O         66.4320   89.9300   -5.4010 O.2   236  TYR236     -0.2718
    105  CB        63.9010   89.2230   -7.3610 C.3   236  TYR236      0.0548
    106  CG        62.5020   89.7020   -7.6800 C.ar  236  TYR236     -0.0200
    107  CD1       61.7200   90.3180   -6.7120 C.ar  236  TYR236     -0.0009
    108  CD2       61.9580   89.5250   -8.9460 C.ar  236  TYR236     -0.0009
    109  CE1       60.4390   90.7540   -6.9990 C.ar  236  TYR236      0.0417
    110  CE2       60.6780   89.9570   -9.2420 C.ar  236  TYR236      0.0417
    111  CZ        59.9230   90.5700   -8.2640 C.ar  236  TYR236      0.1957
    112  OH        58.6490   91.0010   -8.5550 O.3   236  TYR236     -0.2866
    113  N         67.0940   89.2160   -7.4330 N.am  237  ILE237     -0.1980
    114  CA        68.3650   88.7040   -6.9240 C.3   237  ILE237      0.1595
    115  C         69.2000   89.8380   -6.3430 C.2   237  ILE237      0.2287
    116  O         69.8920   89.6660   -5.3320 O.2   237  ILE237     -0.2864
    117  CB        69.1180   87.9460   -8.0340 C.3   237  ILE237      0.0276
    118  CG1       68.3420   86.6900   -8.4380 C.3   237  ILE237      0.0022
    119  CG2       70.5250   87.5780   -7.5850 C.3   237  ILE237      0.0022
    120  CD1       69.0540   85.8330   -9.4620 C.3   237  ILE237      0.0001
    121  N         67.7360   90.5860   -2.7560 N.3   240  LEU240     -0.1245
    122  CA        68.2350   89.6450   -1.7610 C.3   240  LEU240      0.1561
    123  C         69.7370   89.7820   -1.5510 C.2   240  LEU240      0.2260
    124  O         70.2380   89.4230   -0.4810 O.2   240  LEU240     -0.2867
    125  CB        67.8840   88.2100   -2.1620 C.3   240  LEU240      0.0270
    126  CG        66.4500   87.7440   -1.8780 C.3   240  LEU240      0.0019
    127  CD1       65.4520   88.3110   -2.8790 C.3   240  LEU240      0.0001
    128  CD2       66.3730   86.2290   -1.8510 C.3   240  LEU240      0.0001
@<TRIPOS>BOND
     1     4     3    2
     2    12    11    2
     3     1     2    1
     4     3     2    1
     5    11    10    1
     6     9    10    1
     7     2     5    1
     8    10    13    1
     9     5     6    1
    10    13    14    1
    11    13    15    1
    12    14    16    1
    13     6     7    1
    14     6     8    1
    15    49    46    1
    16    45    46    1
    17    46    47    1
    18    47    48    2
    19    93    94    1
    20    97    94    1
    21    97    98    1
    22   100    98    1
    23    56    55    1
    24    94    95    1
    25    98    99    1
    26    95    96    2
    27    55    57    1
    28    55    54    1
    29    24    22    1
    30    22    21    1
    31    54    51    1
    32    50    51    1
    33    21    23    1
    34    21    18    1
    35   120   118    1
    36    17    18    1
    37   110   108   ar
    38   110   111   ar
    39    51    52    1
    40   108   106   ar
    41    18    19    1
    42   112   111    1
    43   101   102    1
    44   118   117    1
    45   111   109   ar
    46   117   119    1
    47   117   114    1
    48    58    52   am
    49    58    59    1
    50    52    53    2
    51   106   105    1
    52   106   107   ar
    53    19    20    2
    54   113   114    1
    55   113   103   am
    56   105   102    1
    57   102   103    1
    58    62    59    1
    59    62    63    1
    60   109   107   ar
    61   114   115    1
    62    59    60    1
    63   103   104    2
    64   115   116    2
    65    76    74    1
    66    63    64   ar
    67    63    65   ar
    68    64    66   ar
    69    60    61    2
    70    31    29    1
    71    65    67   ar
    72    74    73    1
    73    66    68   ar
    74    25    26    1
    75    29    26    1
    76    29    30    1
    77    67    68   ar
    78    40    42   ar
    79    40    38   ar
    80    73    75    1
    81    73    70    1
    82    37    38    1
    83    37    34    1
    84    42    43   ar
    85    69    70    1
    86    26    27    1
    87    33    27   am
    88    33    34    1
    89    38    39   ar
    90    30    32    1
    91    70    71    1
    92    27    28    2
    93    34    35    1
    94   127   126    1
    95    43    44    1
    96    43    41   ar
    97   121   122    1
    98    39    41   ar
    99   125   126    1
   100   125   122    1
   101    71    77   am
   102    71    72    2
   103    35    36    2
   104   126   128    1
   105    77    78    1
   106   122   123    1
   107    82    84    1
   108    82    81    1
   109   123   124    2
   110    81    78    1
   111    81    83    1
   112    78    79    1
   113    92    90    1
   114    79    80    2
   115    90    89    1
   116    85    86    1
   117    89    86    1
   118    89    91    1
   119    86    87    1
   120    87    88    2
