@<TRIPOS>MOLECULE
tmp/6fmsC09.pdb
 82 76 0 0 0
SMALL
GASTEIGER

@<TRIPOS>ATOM
      1  N         10.3430   15.8670   16.6350 N.3    59  ARG59      -0.1231
      2  CA        11.4620   16.7990   16.7420 C.3    59  ARG59       0.1694
      3  C         11.2530   18.0180   15.8520 C.2    59  ARG59       0.2592
      4  O         11.3870   19.1610   16.3020 O.2    59  ARG59      -0.2718
      5  CB        12.7660   16.0840   16.3830 C.3    59  ARG59       0.0321
      6  CG        13.9900   16.9820   16.3540 C.3    59  ARG59       0.0489
      7  CD        15.2250   16.2080   15.9220 C.3    59  ARG59       0.2205
      8  NE        16.4130   17.0560   15.8660 N.pl3  59  ARG59      -0.0865
      9  CZ        17.6120   16.6370   15.4750 C.cat  59  ARG59       0.5346
     10  NH1       17.7880   15.3770   15.1030 N.pl3  59  ARG59       0.1354
     11  NH2       18.6380   17.4780   15.4540 N.pl3  59  ARG59       0.1354
     12  N         10.9080   17.7930   14.5860 N.am   60  TRP60      -0.1976
     13  CA        10.8170   18.8850   13.6260 C.3    60  TRP60       0.1640
     14  C          9.4650   19.5840   13.6620 C.2    60  TRP60       0.2290
     15  O          9.3970   20.8040   13.4720 O.2    60  TRP60      -0.2864
     16  CB        11.1020   18.3630   12.2170 C.3    60  TRP60       0.0576
     17  CG        12.3400   17.5310   12.1590 C.ar   60  TRP60       0.0006
     18  CD1       12.4110   16.1710   12.0880 C.ar   60  TRP60       0.0946
     19  CD2       13.6920   18.0040   12.1930 C.ar   60  TRP60       0.0152
     20  NE1       13.7240   15.7670   12.0650 N.ar   60  TRP60      -0.2442
     21  CE2       14.5300   16.8730   12.1300 C.ar   60  TRP60       0.0810
     22  CE3       14.2750   19.2730   12.2670 C.ar   60  TRP60       0.0012
     23  CZ2       15.9200   16.9730   12.1370 C.ar   60  TRP60       0.0191
     24  CZ3       15.6560   19.3700   12.2750 C.ar   60  TRP60       0.0001
     25  CH2       16.4630   18.2260   12.2110 C.ar   60  TRP60       0.0015
     26  N          9.1650   28.4080   16.1360 N.3    67  ILE67      -0.1245
     27  CA         9.7800   29.4700   15.3480 C.3    67  ILE67       0.1561
     28  C          8.7170   30.3900   14.7540 C.2    67  ILE67       0.2260
     29  O          8.9340   31.6010   14.6280 O.2    67  ILE67      -0.2867
     30  CB        10.6940   28.8610   14.2650 C.3    67  ILE67       0.0252
     31  CG1       11.2580   29.9440   13.3450 C.3    67  ILE67       0.0019
     32  CG2        9.9540   27.8120   13.4600 C.3    67  ILE67       0.0019
     33  CD1       12.1280   29.4030   12.2350 C.3    67  ILE67       0.0001
     34  N          7.2770   32.5690   17.6710 N.3    70  SER70      -0.1202
     35  CA         8.2590   33.5580   18.1070 C.3    70  SER70       0.2020
     36  C          8.2990   34.7590   17.1730 C.2    70  SER70       0.2618
     37  O          8.5240   35.8870   17.6260 O.2    70  SER70      -0.2717
     38  CB         9.6450   32.9210   18.2060 C.3    70  SER70       0.2103
     39  OG         9.6640   31.8830   19.1690 O.3    70  SER70      -0.2182
     40  N          8.0860   34.5400   15.8740 N.am   71  ALA71      -0.1979
     41  CA         8.0690   35.6510   14.9300 C.3    71  ALA71       0.1597
     42  C          6.8630   36.5510   15.1690 C.2    71  ALA71       0.2287
     43  O          6.9920   37.7800   15.2260 O.2    71  ALA71      -0.2864
     44  CB         8.0770   35.1220   13.4960 C.3    71  ALA71       0.0319
     45  N          7.2790   38.7640   18.4420 N.3    74  VAL74      -0.1245
     46  CA         8.1050   39.9640   18.3600 C.3    74  VAL74       0.1561
     47  C          7.3610   41.0730   17.6270 C.2    74  VAL74       0.2260
     48  O          7.4640   42.2520   17.9880 O.2    74  VAL74      -0.2867
     49  CB         9.4520   39.6370   17.6890 C.3    74  VAL74       0.0252
     50  CG1       10.2840   40.8980   17.5110 C.3    74  VAL74       0.0019
     51  CG2       10.2140   38.6090   18.5090 C.3    74  VAL74       0.0019
     52  N          8.1710   34.2360   25.0560 N.3    95  LEU95      -0.1245
     53  CA         9.1630   34.3110   23.9890 C.3    95  LEU95       0.1561
     54  C         10.4690   33.6440   24.4030 C.2    95  LEU95       0.2260
     55  O         11.1350   33.0040   23.5810 O.2    95  LEU95      -0.2867
     56  CB         9.4040   35.7680   23.5960 C.3    95  LEU95       0.0270
     57  CG        10.3490   36.0130   22.4160 C.3    95  LEU95       0.0019
     58  CD1        9.8170   35.3580   21.1460 C.3    95  LEU95       0.0001
     59  CD2       10.5690   37.5040   22.2040 C.3    95  LEU95       0.0001
     60  N         12.0180   29.9070   22.8380 N.3    99  LEU99      -0.1245
     61  CA        13.3630   29.8100   22.2890 C.3    99  LEU99       0.1561
     62  C         14.2480   28.8510   23.0750 C.2    99  LEU99       0.2260
     63  O         15.2700   28.4000   22.5460 O.2    99  LEU99      -0.2867
     64  CB        14.0110   31.1960   22.2390 C.3    99  LEU99       0.0270
     65  CG        13.3260   32.2400   21.3520 C.3    99  LEU99       0.0019
     66  CD1       14.0350   33.5810   21.4550 C.3    99  LEU99       0.0001
     67  CD2       13.2600   31.7790   19.9020 C.3    99  LEU99       0.0001
     68  N         13.2670   25.2960   21.8280 N.3   102  LEU102     -0.1245
     69  CA        13.6330   25.2410   20.4170 C.3   102  LEU102      0.1561
     70  C         15.1100   24.9130   20.2490 C.2   102  LEU102      0.2260
     71  O         15.4870   24.1460   19.3550 O.2   102  LEU102     -0.2867
     72  CB        13.2970   26.5690   19.7390 C.3   102  LEU102      0.0270
     73  CG        13.5690   26.6800   18.2370 C.3   102  LEU102      0.0019
     74  CD1       12.6740   25.7330   17.4500 C.3   102  LEU102      0.0001
     75  CD2       13.3860   28.1150   17.7690 C.3   102  LEU102      0.0001
     76  N         19.4540   21.2070   18.5380 N.3   106  VAL106     -0.1245
     77  CA        20.8070   20.7830   18.8870 C.3   106  VAL106      0.1561
     78  C         20.8220   19.3730   19.4580 C.2   106  VAL106      0.2260
     79  O         21.5960   18.5190   19.0160 O.2   106  VAL106     -0.2867
     80  CB        21.4360   21.7950   19.8690 C.3   106  VAL106      0.0252
     81  CG1       22.8220   21.3330   20.2980 C.3   106  VAL106      0.0019
     82  CG2       21.4940   23.1830   19.2400 C.3   106  VAL106      0.0019
@<TRIPOS>BOND
     1    20    18   ar
     2    20    21   ar
     3    18    17   ar
     4    21    23   ar
     5    21    19   ar
     6    23    25   ar
     7    17    19   ar
     8    17    16    1
     9    19    22   ar
    10    25    24   ar
    11    16    13    1
    12    33    31    1
    13    22    24   ar
    14    31    30    1
    15    32    30    1
    16    15    14    2
    17    44    41    1
    18    13    14    1
    19    13    12    1
    20    30    27    1
    21    12     3   am
    22    29    28    2
    23    28    27    1
    24    41    42    1
    25    41    40    1
    26    10     9    1
    27    42    43    2
    28    27    26    1
    29    11     9    1
    30     9     8    2
    31     3     4    2
    32     3     2    1
    33     8     7    1
    34    40    36   am
    35     7     6    1
    36     6     5    1
    37     5     2    1
    38     1     2    1
    39    36    37    2
    40    36    35    1
    41    74    73    1
    42    50    49    1
    43    47    48    2
    44    47    46    1
    45    34    35    1
    46    49    46    1
    47    49    51    1
    48    75    73    1
    49    35    38    1
    50    38    39    1
    51    73    72    1
    52    46    45    1
    53    76    77    1
    54    77    78    1
    55    77    80    1
    56    79    78    2
    57    82    80    1
    58    71    70    2
    59    72    69    1
    60    80    81    1
    61    67    65    1
    62    70    69    1
    63    69    68    1
    64    58    57    1
    65    65    66    1
    66    65    64    1
    67    59    57    1
    68    64    61    1
    69    61    60    1
    70    61    62    1
    71    57    56    1
    72    63    62    2
    73    55    54    2
    74    56    53    1
    75    53    54    1
    76    53    52    1
