@<TRIPOS>MOLECULE
tmp/6fmsA08.pdb
 113 109 0 0 0
SMALL
GASTEIGER

@<TRIPOS>ATOM
      1  N         24.8000  -40.9770   16.2570 N.3     3  VAL3       -0.1245
      2  CA        23.7430  -40.0300   15.9170 C.3     3  VAL3        0.1561
      3  C         22.4430  -40.3950   16.6240 C.2     3  VAL3        0.2260
      4  O         21.5990  -39.5250   16.8730 O.2     3  VAL3       -0.2867
      5  CB        23.5610  -39.9570   14.3880 C.3     3  VAL3        0.0252
      6  CG1       22.9820  -41.2600   13.8490 C.3     3  VAL3        0.0019
      7  CG2       22.6830  -38.7720   14.0060 C.3     3  VAL3        0.0019
      8  N         17.6630  -36.1560   16.9730 N.3     8  ARG8       -0.1245
      9  CA        17.0700  -35.0090   16.2780 C.3     8  ARG8        0.1563
     10  C         17.5480  -33.6800   16.8540 C.2     8  ARG8        0.2260
     11  O         17.0850  -32.6270   16.4010 O.2     8  ARG8       -0.2867
     12  CB        15.5310  -35.0270   16.2770 C.3     8  ARG8        0.0307
     13  CG        14.9040  -35.8810   15.1760 C.3     8  ARG8        0.0489
     14  CD        15.2770  -37.3480   15.3090 C.3     8  ARG8        0.2205
     15  NE        14.7790  -37.9300   16.5510 N.pl3   8  ARG8       -0.0865
     16  CZ        15.1590  -39.1110   17.0270 C.cat   8  ARG8        0.5346
     17  NH1       14.6510  -39.5640   18.1660 N.pl3   8  ARG8        0.1354
     18  NH2       16.0530  -39.8370   16.3700 N.pl3   8  ARG8        0.1354
     19  N         20.8140  -32.5620   16.5540 N.3    10  PRO10      -0.2102
     20  CA        21.7420  -31.9040   15.6150 C.3    10  PRO10       0.1504
     21  C         21.0820  -30.9670   14.6090 C.2    10  PRO10       0.2575
     22  O         21.8040  -30.2100   13.9470 O.2    10  PRO10      -0.2718
     23  CB        22.4170  -33.0850   14.9080 C.3    10  PRO10       0.0282
     24  CG        22.4010  -34.1590   15.9200 C.3    10  PRO10       0.0208
     25  CD        21.0910  -34.0120   16.6310 C.3    10  PRO10       0.0893
     26  N         19.7530  -30.9810   14.4720 N.am   11  TRP11      -0.1977
     27  CA        19.0970  -29.9950   13.6190 C.3    11  TRP11       0.1640
     28  C         19.2960  -28.5740   14.1310 C.2    11  TRP11       0.2290
     29  O         19.0960  -27.6190   13.3700 O.2    11  TRP11      -0.2864
     30  CB        17.6010  -30.2970   13.4990 C.3    11  TRP11       0.0576
     31  CG        17.2850  -31.5250   12.6980 C.ar   11  TRP11       0.0006
     32  CD1       16.8410  -32.7230   13.1770 C.ar   11  TRP11       0.0946
     33  CD2       17.3880  -31.6750   11.2770 C.ar   11  TRP11       0.0152
     34  NE1       16.6600  -33.6090   12.1420 N.ar   11  TRP11      -0.2442
     35  CE2       16.9900  -32.9900   10.9650 C.ar   11  TRP11       0.0810
     36  CE3       17.7790  -30.8250   10.2370 C.ar   11  TRP11       0.0012
     37  CZ2       16.9700  -33.4760    9.6590 C.ar   11  TRP11       0.0191
     38  CZ3       17.7600  -31.3100    8.9400 C.ar   11  TRP11       0.0001
     39  CH2       17.3570  -32.6220    8.6630 C.ar   11  TRP11       0.0015
     40  N         21.9800  -27.1700   14.5320 N.3    13  TRP13      -0.1227
     41  CA        23.0630  -26.5550   13.7730 C.3    13  TRP13       0.1737
     42  C         22.5270  -25.7000   12.6330 C.2    13  TRP13       0.2595
     43  O         23.1740  -24.7270   12.2280 O.2    13  TRP13      -0.2718
     44  CB        24.0130  -27.6290   13.2470 C.3    13  TRP13       0.0564
     45  CG        24.8350  -28.2700   14.3230 C.ar   13  TRP13       0.0003
     46  CD1       24.8150  -29.5810   14.6980 C.ar   13  TRP13       0.0946
     47  CD2       25.7910  -27.6240   15.1750 C.ar   13  TRP13       0.0152
     48  NE1       25.7030  -29.7930   15.7250 N.ar   13  TRP13      -0.2442
     49  CE2       26.3150  -28.6070   16.0360 C.ar   13  TRP13       0.0810
     50  CE3       26.2550  -26.3090   15.2910 C.ar   13  TRP13       0.0012
     51  CZ2       27.2790  -28.3190   17.0010 C.ar   13  TRP13       0.0191
     52  CZ3       27.2140  -26.0250   16.2490 C.ar   13  TRP13       0.0001
     53  CH2       27.7160  -27.0260   17.0910 C.ar   13  TRP13       0.0015
     54  N         21.3490  -26.0400   12.1070 N.am   14  ILE14      -0.1980
     55  CA        20.6900  -25.1590   11.1500 C.3    14  ILE14       0.1595
     56  C         20.2790  -23.8570   11.8270 C.2    14  ILE14       0.2287
     57  O         20.4240  -22.7710   11.2550 O.2    14  ILE14      -0.2864
     58  CB        19.4890  -25.8750   10.5080 C.3    14  ILE14       0.0276
     59  CG1       19.9680  -27.0580    9.6650 C.3    14  ILE14       0.0022
     60  CG2       18.6670  -24.9030    9.6710 C.3    14  ILE14       0.0022
     61  CD1       18.8620  -27.7500    8.9030 C.3    14  ILE14       0.0001
     62  N         23.3680  -21.9010   12.3350 N.3    17  LEU17      -0.1231
     63  CA        23.8340  -21.3630   11.0610 C.3    17  LEU17       0.1693
     64  C         23.0970  -20.0830   10.6880 C.2    17  LEU17       0.2591
     65  O         23.6820  -19.1860   10.0710 O.2    17  LEU17      -0.2718
     66  CB        23.6690  -22.4110    9.9610 C.3    17  LEU17       0.0284
     67  CG        24.1800  -22.0510    8.5650 C.3    17  LEU17       0.0019
     68  CD1       25.6890  -21.8790    8.5680 C.3    17  LEU17       0.0001
     69  CD2       23.7620  -23.1050    7.5540 C.3    17  LEU17       0.0001
     70  N         21.8200  -19.9750   11.0570 N.am   18  VAL18      -0.1980
     71  CA        21.0510  -18.7800   10.7240 C.3    18  VAL18       0.1595
     72  C         21.4730  -17.6070   11.6020 C.2    18  VAL18       0.2287
     73  O         21.5410  -16.4610   11.1400 O.2    18  VAL18      -0.2864
     74  CB        19.5440  -19.0700   10.8490 C.3    18  VAL18       0.0276
     75  CG1       18.7330  -17.8040   10.6250 C.3    18  VAL18       0.0022
     76  CG2       19.1310  -20.1480    9.8630 C.3    18  VAL18       0.0022
     77  N         24.8880  -15.9440   10.3860 N.3    21  LEU21      -0.1245
     78  CA        24.7410  -15.1970    9.1400 C.3    21  LEU21       0.1561
     79  C         23.9020  -13.9400    9.3330 C.2    21  LEU21       0.2260
     80  O         24.0950  -12.9510    8.6160 O.2    21  LEU21      -0.2867
     81  CB        24.1270  -16.0870    8.0590 C.3    21  LEU21       0.0270
     82  CG        24.9790  -17.2760    7.6100 C.3    21  LEU21       0.0019
     83  CD1       24.2780  -18.0450    6.5060 C.3    21  LEU21       0.0001
     84  CD2       26.3610  -16.8190    7.1590 C.3    21  LEU21       0.0001
     85  N         12.1060  -39.5290   14.1750 N.3    91  LYS91      -0.1231
     86  CA        13.1170  -39.6150   13.1310 C.3    91  LYS91       0.1693
     87  C         12.4610  -39.8990   11.7850 C.2    91  LYS91       0.2592
     88  O         11.6590  -40.8290   11.6550 O.2    91  LYS91      -0.2718
     89  CB        14.1360  -40.7010   13.4730 C.3    91  LYS91       0.0285
     90  CG        15.1530  -40.9810   12.3800 C.3    91  LYS91       0.0035
     91  CD        16.3030  -41.8230   12.9120 C.3    91  LYS91       0.0206
     92  CE        15.7940  -43.0570   13.6410 C.3    91  LYS91       0.1093
     93  NZ        16.8960  -43.8080   14.3060 N.3    91  LYS91      -0.1314
     94  N         12.8000  -39.0900   10.7850 N.am   92  GLY92      -0.1957
     95  CA        12.2230  -39.2000    9.4620 C.3    92  GLY92       0.1869
     96  C         11.3330  -38.0440    9.0630 C.2    92  GLY92       0.2309
     97  O         11.0110  -37.9180    7.8750 O.2    92  GLY92      -0.2863
     98  N         13.5740  -29.2580    9.6050 N.3    98  ILE98      -0.1245
     99  CA        14.2020  -28.0930    8.9900 C.3    98  ILE98       0.1561
    100  C         13.3550  -26.8490    9.2100 C.2    98  ILE98       0.2260
    101  O         13.8880  -25.7480    9.3940 O.2    98  ILE98      -0.2867
    102  CB        14.4450  -28.3500    7.4890 C.3    98  ILE98       0.0252
    103  CG1       15.1540  -29.6900    7.2850 C.3    98  ILE98       0.0019
    104  CG2       15.2590  -27.2200    6.8760 C.3    98  ILE98       0.0019
    105  CD1       15.3450  -30.0640    5.8320 C.3    98  ILE98       0.0001
    106  N         14.4140  -23.1910   11.3570 N.3   102  LEU102     -0.1245
    107  CA        14.5230  -21.9070   10.6730 C.3   102  LEU102      0.1561
    108  C         13.9560  -20.7730   11.5190 C.2   102  LEU102      0.2260
    109  O         14.6010  -19.7330   11.6880 O.2   102  LEU102     -0.2867
    110  CB        13.8170  -21.9680    9.3160 C.3   102  LEU102      0.0270
    111  CG        14.5240  -22.7640    8.2160 C.3   102  LEU102      0.0019
    112  CD1       13.6970  -22.7930    6.9380 C.3   102  LEU102      0.0001
    113  CD2       15.9040  -22.1890    7.9520 C.3   102  LEU102      0.0001
@<TRIPOS>BOND
     1   105   103    1
     2    83    82    1
     3   104   102    1
     4   112   111    1
     5    84    82    1
     6   103   102    1
     7   102    99    1
     8    69    67    1
     9    82    81    1
    10    97    96    2
    11   113   111    1
    12    81    78    1
    13   111   110    1
    14    67    68    1
    15    67    66    1
    16    80    79    2
    17    39    38   ar
    18    39    37   ar
    19    61    59    1
    20    38    36   ar
    21    99   100    1
    22    99    98    1
    23    96    95    1
    24    78    79    1
    25    78    77    1
    26   100   101    2
    27   110   107    1
    28    95    94    1
    29    37    35   ar
    30    59    58    1
    31    60    58    1
    32    76    74    1
    33    66    63    1
    34    65    64    2
    35    36    33   ar
    36    58    55    1
    37    75    74    1
    38   107   106    1
    39   107   108    1
    40    64    70   am
    41    64    63    1
    42    71    74    1
    43    71    70    1
    44    71    72    1
    45    94    87   am
    46    35    33   ar
    47    35    34   ar
    48    63    62    1
    49    73    72    2
    50    55    56    1
    51    55    54    1
    52    57    56    2
    53    33    31   ar
    54   108   109    2
    55    88    87    2
    56    87    86    1
    57    54    42   am
    58    34    32   ar
    59    43    42    2
    60    90    91    1
    61    90    89    1
    62    42    41    1
    63    31    32   ar
    64    31    30    1
    65    91    92    1
    66    86    89    1
    67    86    85    1
    68    44    41    1
    69    44    45    1
    70    29    28    2
    71    30    27    1
    72    27    28    1
    73    27    26    1
    74    92    93    1
    75    41    40    1
    76     6     5    1
    77    22    21    2
    78     7     5    1
    79    45    46   ar
    80    45    47   ar
    81     5     2    1
    82    26    21   am
    83    21    20    1
    84    46    48   ar
    85    23    20    1
    86    23    24    1
    87    47    50   ar
    88    47    49   ar
    89    13    14    1
    90    13    12    1
    91    50    52   ar
    92    14    15    1
    93    20    19    1
    94    48    49   ar
    95     2     1    1
    96     2     3    1
    97    24    25    1
    98    49    51   ar
    99    52    53   ar
   100    12     9    1
   101     9    10    1
   102     9     8    1
   103    18    16    1
   104    11    10    2
   105    15    16    2
   106    19    25    1
   107     3     4    2
   108    51    53   ar
   109    16    17    1
