@<TRIPOS>MOLECULE
tmp/6fmsD04.pdb
 86 83 0 0 0
SMALL
GASTEIGER

@<TRIPOS>ATOM
      1  N        -18.5620   13.9150   14.5740 N.3    43  ASN43      -0.1240
      2  CA       -17.1220   13.8490   14.7850 C.3    43  ASN43       0.1653
      3  C        -16.8270   13.7720   16.2790 C.2    43  ASN43       0.2266
      4  O        -17.1550   14.6960   17.0310 O.2    43  ASN43      -0.2867
      5  CB       -16.4360   15.0610   14.1570 C.3    43  ASN43       0.1155
      6  CG       -14.9360   14.8790   14.0160 C.2    43  ASN43       0.2627
      7  OD1      -14.3240   14.0790   14.7220 O.2    43  ASN43      -0.2716
      8  ND2      -14.3360   15.6260   13.0970 N.am   43  ASN43      -0.0877
      9  N        -20.7910   17.2730   10.7730 N.3   112  ASP112     -0.1239
     10  CA       -20.0500   17.4400    9.5290 C.3   112  ASP112      0.1674
     11  C        -20.9040   16.9520    8.3690 C.2   112  ASP112      0.2266
     12  O        -21.5130   15.8800    8.4530 O.2   112  ASP112     -0.2867
     13  CB       -18.7200   16.6790    9.5680 C.3   112  ASP112      0.1410
     14  CG       -17.7340   17.2770   10.5480 C.2   112  ASP112      0.3668
     15  OD1      -17.8900   18.4660   10.8970 O.co2 112  ASP112     -0.2456
     16  OD2      -16.8000   16.5600   10.9640 O.co2 112  ASP112     -0.2456
     17  N        -19.8940   18.0740    4.7400 N.3   114  ILE114     -0.1245
     18  CA       -19.2350   18.4300    3.4850 C.3   114  ILE114      0.1561
     19  C        -18.1180   17.4170    3.2600 C.2   114  ILE114      0.2260
     20  O        -17.0560   17.4990    3.8890 O.2   114  ILE114     -0.2867
     21  CB       -18.6950   19.8650    3.4970 C.3   114  ILE114      0.0252
     22  CG1      -19.7670   20.8350    4.0030 C.3   114  ILE114      0.0019
     23  CG2      -18.2460   20.2730    2.1050 C.3   114  ILE114      0.0019
     24  CD1      -19.3050   22.2770    4.0820 C.3   114  ILE114      0.0001
     25  N        -11.3070   13.1750    2.0370 N.3   124  PHE124     -0.1228
     26  CA       -10.9840   14.2110    3.0080 C.3   124  PHE124      0.1721
     27  C        -12.0260   14.2160    4.1250 C.2   124  PHE124      0.2437
     28  O        -13.2210   14.0610    3.8570 O.2   124  PHE124     -0.2733
     29  CB       -10.9380   15.5800    2.3360 C.3   124  PHE124      0.0547
     30  CG       -10.4160   16.6770    3.2180 C.ar  124  PHE124     -0.0202
     31  CD1       -9.0530   16.8690    3.3740 C.ar  124  PHE124     -0.0042
     32  CD2      -11.2860   17.5240    3.8820 C.ar  124  PHE124     -0.0042
     33  CE1       -8.5700   17.8820    4.1820 C.ar  124  PHE124     -0.0003
     34  CE2      -10.8090   18.5380    4.6910 C.ar  124  PHE124     -0.0003
     35  CZ        -9.4490   18.7170    4.8400 C.ar  124  PHE124     -0.0000
     36  N        -11.5970   14.3700    5.3790 N.am  125  PRO125     -0.2718
     37  CA       -12.5530   14.3350    6.4930 C.3   125  PRO125      0.1535
     38  C        -13.6210   15.4070    6.3470 C.2   125  PRO125      0.2598
     39  O        -13.3380   16.5460    5.9710 O.2   125  PRO125     -0.2715
     40  CB       -11.6720   14.5820    7.7230 C.3   125  PRO125      0.0310
     41  CG       -10.3100   14.1430    7.3030 C.3   125  PRO125      0.0237
     42  CD       -10.2060   14.4890    5.8460 C.3   125  PRO125      0.0939
     43  N        -14.8610   15.0260    6.6440 N.am  126  ALA126     -0.1964
     44  CA       -15.9850   15.9300    6.4510 C.3   126  ALA126      0.1728
     45  C        -15.8830   17.1270    7.3910 C.2   126  ALA126      0.2616
     46  O        -15.3490   17.0330    8.4980 O.2   126  ALA126     -0.2715
     47  CB       -17.3050   15.1910    6.6670 C.3   126  ALA126      0.0334
     48  N        -16.3980   18.2660    6.9300 N.am  127  PHE127     -0.1974
     49  CA       -16.3530   19.5140    7.6830 C.3   127  PHE127      0.1639
     50  C        -17.6910   20.2260    7.5080 C.2   127  PHE127      0.2290
     51  O        -18.6710   19.6420    7.0310 O.2   127  PHE127     -0.2864
     52  CB       -15.1590   20.3770    7.2480 C.3   127  PHE127      0.0560
     53  CG       -15.1410   20.7120    5.7800 C.ar  127  PHE127     -0.0200
     54  CD1      -14.6250   19.8180    4.8550 C.ar  127  PHE127     -0.0042
     55  CD2      -15.6150   21.9340    5.3290 C.ar  127  PHE127     -0.0042
     56  CE1      -14.6000   20.1270    3.5090 C.ar  127  PHE127     -0.0003
     57  CE2      -15.5910   22.2490    3.9830 C.ar  127  PHE127     -0.0003
     58  CZ       -15.0810   21.3450    3.0740 C.ar  127  PHE127     -0.0000
     59  N        -15.9820   25.5020   10.1510 N.3   131  ASP131     -0.1225
     60  CA       -14.5940   25.2170    9.8130 C.3   131  ASP131      0.1805
     61  C        -14.1330   25.9980    8.5910 C.2   131  ASP131      0.2598
     62  O        -12.9320   26.2480    8.4430 O.2   131  ASP131     -0.2718
     63  CB       -14.4070   23.7160    9.5770 C.3   131  ASP131      0.1424
     64  CG       -14.8620   22.8760   10.7570 C.2   131  ASP131      0.3668
     65  OD1      -14.8220   23.3770   11.9010 O.co2 131  ASP131     -0.2456
     66  OD2      -15.2600   21.7130   10.5400 O.co2 131  ASP131     -0.2456
     67  N        -15.0600   26.3950    7.7170 N.am  132  SER132     -0.1952
     68  CA       -14.6810   27.1340    6.5190 C.3   132  SER132      0.1924
     69  C        -14.2900   28.5680    6.8590 C.2   132  SER132      0.2314
     70  O        -13.2430   29.0570    6.4180 O.2   132  SER132     -0.2863
     71  CB       -15.8270   27.1080    5.5060 C.3   132  SER132      0.2116
     72  OG       -16.1790   25.7750    5.1760 O.3   132  SER132     -0.2180
     73  N        -10.9040   28.7060    8.5160 N.3   135  THR135     -0.1203
     74  CA        -9.7820   28.5540    7.5950 C.3   135  THR135      0.1994
     75  C         -9.5710   29.8150    6.7660 C.2   135  THR135      0.2617
     76  O         -8.4270   30.2110    6.5120 O.2   135  THR135     -0.2717
     77  CB        -9.9990   27.3430    6.6860 C.3   135  THR135      0.1784
     78  OG1      -11.3100   27.4000    6.1090 O.3   135  THR135     -0.2211
     79  CG2       -9.8490   26.0490    7.4720 C.3   135  THR135      0.0376
     80  N        -10.6570   30.4620    6.3380 N.am  136  VAL136     -0.1979
     81  CA       -10.5250   31.6860    5.5530 C.3   136  VAL136      0.1595
     82  C         -9.9730   32.8150    6.4140 C.2   136  VAL136      0.2287
     83  O         -9.0880   33.5640    5.9850 O.2   136  VAL136     -0.2864
     84  CB       -11.8740   32.0650    4.9150 C.3   136  VAL136      0.0276
     85  CG1      -11.7910   33.4410    4.2710 C.3   136  VAL136      0.0022
     86  CG2      -12.2860   31.0200    3.8870 C.3   136  VAL136      0.0022
@<TRIPOS>BOND
     1    25    26    1
     2    23    21    1
     3    29    26    1
     4    29    30    1
     5    26    27    1
     6    58    56   ar
     7    58    57   ar
     8    30    31   ar
     9    30    32   ar
    10    19    18    1
    11    19    20    2
    12    31    33   ar
    13    18    21    1
    14    18    17    1
    15    21    22    1
    16    56    54   ar
    17    28    27    2
    18    32    34   ar
    19    86    84    1
    20    57    55   ar
    21    22    24    1
    22    27    36   am
    23    33    35   ar
    24    85    84    1
    25    34    35   ar
    26    54    53   ar
    27    84    81    1
    28    72    71    1
    29    55    53   ar
    30    36    42    1
    31    36    37    1
    32    71    68    1
    33    81    80    1
    34    81    82    1
    35    53    52    1
    36    42    41    1
    37    39    38    2
    38    83    82    2
    39    78    77    1
    40    80    75   am
    41    38    37    1
    42    38    43   am
    43    70    69    2
    44    44    43    1
    45    44    47    1
    46    44    45    1
    47    37    40    1
    48    76    75    2
    49    68    69    1
    50    68    67    1
    51    77    79    1
    52    77    74    1
    53    75    74    1
    54    48    45   am
    55    48    49    1
    56    51    50    2
    57    52    49    1
    58    41    40    1
    59    45    46    2
    60    50    49    1
    61    74    73    1
    62    67    61   am
    63    11    12    2
    64    11    10    1
    65    62    61    2
    66    61    60    1
    67    10    13    1
    68    10     9    1
    69    13    14    1
    70    63    60    1
    71    63    64    1
    72    60    59    1
    73    66    64   ar
    74    14    15   ar
    75    14    16   ar
    76    64    65   ar
    77     8     6   am
    78     6     5    1
    79     6     7    2
    80     5     2    1
    81     1     2    1
    82     2     3    1
    83     3     4    2
