@<TRIPOS>MOLECULE
tmp/6fmtA00.pdb
 104 99 0 0 0
SMALL
GASTEIGER

@<TRIPOS>ATOM
      1  N         25.6240   28.1480    4.2500 N.3    13  VAL13      -0.1245
      2  CA        25.6770   26.7830    4.7700 C.3    13  VAL13       0.1561
      3  C         26.1660   25.8320    3.6870 C.2    13  VAL13       0.2260
      4  O         27.2150   25.1950    3.8240 O.2    13  VAL13      -0.2867
      5  CB        24.3020   26.3570    5.3180 C.3    13  VAL13       0.0252
      6  CG1       24.2460   24.8440    5.5310 C.3    13  VAL13       0.0019
      7  CG2       23.9750   27.1030    6.6060 C.3    13  VAL13       0.0019
      8  N         29.7110   26.1770    2.6480 N.3    16  LEU16      -0.1231
      9  CA        30.6730   25.8070    3.6820 C.3    16  LEU16       0.1693
     10  C         30.7910   24.2910    3.8250 C.2    16  LEU16       0.2592
     11  O         31.8860   23.7280    3.7130 O.2    16  LEU16      -0.2718
     12  CB        30.2680   26.4470    5.0140 C.3    16  LEU16       0.0284
     13  CG        31.3560   26.7910    6.0350 C.3    16  LEU16       0.0019
     14  CD1       30.8970   27.9480    6.9180 C.3    16  LEU16       0.0001
     15  CD2       31.7090   25.5800    6.8870 C.3    16  LEU16       0.0001
     16  N         29.6690   23.6150    4.0820 N.am   17  THR17      -0.1953
     17  CA        29.6690   22.1860    4.3840 C.3    17  THR17       0.1897
     18  C         29.6860   21.2970    3.1440 C.2    17  THR17       0.2313
     19  O         29.6090   20.0740    3.2910 O.2    17  THR17      -0.2863
     20  CB        28.4590   21.8200    5.2580 C.3    17  THR17       0.1794
     21  OG1       28.3680   20.3960    5.3850 O.3    17  THR17      -0.2208
     22  CG2       27.1750   22.3160    4.6410 C.3    17  THR17       0.0378
     23  N         33.4410   20.0110    3.0450 N.3    20  LEU20      -0.1245
     24  CA        33.9600   19.6070    4.3330 C.3    20  LEU20       0.1561
     25  C         33.2410   18.3480    4.7930 C.2    20  LEU20       0.2260
     26  O         32.0410   18.1950    4.5320 O.2    20  LEU20      -0.2867
     27  CB        33.7900   20.7130    5.3820 C.3    20  LEU20       0.0270
     28  CG        34.9060   21.7600    5.4810 C.3    20  LEU20       0.0019
     29  CD1       35.0740   22.5460    4.1830 C.3    20  LEU20       0.0001
     30  CD2       34.6480   22.7080    6.6450 C.3    20  LEU20       0.0001
     31  N         31.2510   17.1860    6.6740 N.3    22  VAL22      -0.1245
     32  CA        30.2650   17.5170    7.6970 C.3    22  VAL22       0.1561
     33  C         28.8390   17.4150    7.1630 C.2    22  VAL22       0.2260
     34  O         27.9230   18.0410    7.7070 O.2    22  VAL22      -0.2867
     35  CB        30.5410   18.9130    8.2860 C.3    22  VAL22       0.0252
     36  CG1       31.7070   18.8460    9.2560 C.3    22  VAL22       0.0019
     37  CG2       30.8420   19.9070    7.1910 C.3    22  VAL22       0.0019
     38  N         23.2080   19.3340    7.1690 N.3    27  HIS27      -0.1241
     39  CA        23.0700   20.7080    7.6410 C.3    27  HIS27       0.1621
     40  C         21.8820   21.4090    6.9960 C.2    27  HIS27       0.2264
     41  O         21.2740   22.2890    7.6150 O.2    27  HIS27      -0.2867
     42  CB        24.3560   21.4960    7.3770 C.3    27  HIS27       0.0745
     43  CG        25.4280   21.2690    8.3960 C.ar   27  HIS27       0.0817
     44  ND1       26.0100   20.0390    8.6060 N.ar   27  HIS27      -0.2268
     45  CD2       26.0200   22.1160    9.2700 C.ar   27  HIS27       0.1154
     46  CE1       26.9170   20.1380    9.5630 C.ar   27  HIS27       0.1986
     47  NE2       26.9440   21.3890    9.9830 N.ar   27  HIS27      -0.2212
     48  N         44.2740   24.6630    5.8810 N.3   229  LEU229     -0.1245
     49  CA        44.0550   24.2330    7.2580 C.3   229  LEU229      0.1561
     50  C         44.4690   22.7790    7.4600 C.2   229  LEU229      0.2260
     51  O         45.1690   22.4510    8.4250 O.2   229  LEU229     -0.2867
     52  CB        42.5840   24.4320    7.6290 C.3   229  LEU229      0.0270
     53  CG        42.1110   24.0560    9.0340 C.3   229  LEU229      0.0019
     54  CD1       42.7000   24.9960   10.0700 C.3   229  LEU229      0.0001
     55  CD2       40.5860   24.0590    9.1070 C.3   229  LEU229      0.0001
     56  N         47.9620   21.0590    8.6580 N.3   232  ARG232     -0.1182
     57  CA        48.4270   20.9300   10.0330 C.3   232  ARG232      0.1910
     58  C         47.3740   20.4100   11.0040 C.2   232  ARG232      0.2634
     59  O         47.6790   20.2600   12.1930 O.2   232  ARG232     -0.2714
     60  CB        48.9520   22.2790   10.5430 C.2   232  ARG232      0.0007
     61  CG        49.6160   23.2190    9.5740 C.2   232  ARG232      0.0176
     62  CD        49.8670   24.6410   10.1020 C.3   232  ARG232      0.2464
     63  NE        48.7180   25.3640   10.6600 N.pl3 232  ARG232     -0.0815
     64  CZ        47.6140   25.6610    9.9830 C.cat 232  ARG232      0.5349
     65  NH1       47.4110   25.3110    8.7350 N.pl3 232  ARG232      0.1354
     66  NH2       46.6560   26.3220   10.5710 N.pl3 232  ARG232      0.1354
     67  N         46.1510   20.1370   10.5480 N.am  233  ILE233     -0.1977
     68  CA        45.0820   19.6750   11.4250 C.3   233  ILE233      0.1596
     69  C         44.6230   18.2960   10.9640 C.2   233  ILE233      0.2287
     70  O         44.7460   17.9390    9.7870 O.2   233  ILE233     -0.2864
     71  CB        43.8990   20.6730   11.4660 C.3   233  ILE233      0.0276
     72  CG1       43.0340   20.4370   12.7070 C.3   233  ILE233      0.0022
     73  CG2       43.0540   20.5640   10.2090 C.3   233  ILE233      0.0022
     74  CD1       41.8160   21.3330   12.7920 C.3   233  ILE233      0.0001
     75  N         38.7130   16.5700   14.8600 N.3   237  PRO237     -0.2102
     76  CA        37.7030   17.5840   15.2220 C.3   237  PRO237      0.1504
     77  C         36.4830   17.5620   14.3180 C.2   237  PRO237      0.2575
     78  O         35.3770   17.8760   14.7770 O.2   237  PRO237     -0.2718
     79  CB        38.4760   18.9050   15.1000 C.3   237  PRO237      0.0282
     80  CG        39.5490   18.6160   14.1300 C.3   237  PRO237      0.0208
     81  CD        39.9690   17.2060   14.4230 C.3   237  PRO237      0.0893
     82  N         36.6520   17.1990   13.0440 N.am  238  PHE238     -0.1977
     83  CA        35.5070   17.0840   12.1490 C.3   238  PHE238      0.1639
     84  C         34.6280   15.9010   12.5360 C.2   238  PHE238      0.2290
     85  O         33.3970   16.0170   12.5640 O.2   238  PHE238     -0.2864
     86  CB        35.9870   16.9470   10.7040 C.3   238  PHE238      0.0560
     87  CG        36.6510   18.1840   10.1620 C.ar  238  PHE238     -0.0200
     88  CD1       35.9340   19.1110    9.4250 C.ar  238  PHE238     -0.0042
     89  CD2       37.9990   18.4160   10.3900 C.ar  238  PHE238     -0.0042
     90  CE1       36.5460   20.2450    8.9250 C.ar  238  PHE238     -0.0003
     91  CE2       38.6160   19.5480    9.8950 C.ar  238  PHE238     -0.0003
     92  CZ        37.8880   20.4640    9.1620 C.ar  238  PHE238     -0.0000
     93  N         32.6700   16.7860   15.5980 N.3   241  TYR241     -0.1241
     94  CA        31.6450   17.7650   15.2530 C.3   241  TYR241      0.1605
     95  C         30.4310   17.1050   14.6140 C.2   241  TYR241      0.2264
     96  O         29.2960   17.5340   14.8530 O.2   241  TYR241     -0.2867
     97  CB        32.2250   18.8320   14.3240 C.3   241  TYR241      0.0534
     98  CG        31.1890   19.7920   13.7760 C.ar  241  TYR241     -0.0201
     99  CD1       30.6910   20.8330   14.5550 C.ar  241  TYR241     -0.0009
    100  CD2       30.7110   19.6560   12.4770 C.ar  241  TYR241     -0.0009
    101  CE1       29.7400   21.7060   14.0530 C.ar  241  TYR241      0.0417
    102  CE2       29.7670   20.5230   11.9640 C.ar  241  TYR241      0.0417
    103  CZ        29.2830   21.5440   12.7560 C.ar  241  TYR241      0.1957
    104  OH        28.3410   22.4080   12.2500 O.3   241  TYR241     -0.2866
@<TRIPOS>BOND
     1     8     9    1
     2    23    24    1
     3    18    19    2
     4    18    17    1
     5     9    10    1
     6     9    12    1
     7     3     4    2
     8     3     2    1
     9    11    10    2
    10    10    16   am
    11    16    17    1
    12    29    28    1
    13     1     2    1
    14    24    25    1
    15    24    27    1
    16    17    20    1
    17    26    25    2
    18    22    20    1
    19     2     5    1
    20    12    13    1
    21    20    21    1
    22     5     6    1
    23     5     7    1
    24    27    28    1
    25    28    30    1
    26    48    49    1
    27    13    15    1
    28    13    14    1
    29    31    32    1
    30    40    41    2
    31    40    39    1
    32    33    32    1
    33    33    34    2
    34    38    39    1
    35    37    35    1
    36    49    50    1
    37    49    52    1
    38    42    39    1
    39    42    43    1
    40    50    51    2
    41    52    53    1
    42    32    35    1
    43    35    36    1
    44    43    44   ar
    45    43    45   ar
    46    44    46   ar
    47    56    57    1
    48    65    64    1
    49    90    92   ar
    50    90    88   ar
    51    53    55    1
    52    53    54    1
    53    92    91   ar
    54    45    47   ar
    55    88    87   ar
    56    46    47   ar
    57    61    62    1
    58    61    60    2
    59    70    69    2
    60    91    89   ar
    61    64    66    1
    62    64    63    2
    63    57    60    1
    64    57    58    1
    65    62    63    1
    66    87    89   ar
    67    87    86    1
    68    73    71    1
    69    67    58   am
    70    67    68    1
    71    86    83    1
    72    69    68    1
    73    58    59    2
    74    68    71    1
    75    71    72    1
    76   102   100   ar
    77   102   103   ar
    78    83    84    1
    79    83    82    1
    80   104   103    1
    81   100    98   ar
    82    84    85    2
    83    72    74    1
    84   103   101   ar
    85    82    77   am
    86    98    97    1
    87    98    99   ar
    88   101    99   ar
    89    80    81    1
    90    80    79    1
    91    77    78    2
    92    77    76    1
    93    97    94    1
    94    81    75    1
    95    95    96    2
    96    95    94    1
    97    75    76    1
    98    79    76    1
    99    94    93    1
