@<TRIPOS>MOLECULE
tmp/6fmuA01.pdb
 127 121 0 0 0
SMALL
GASTEIGER

@<TRIPOS>ATOM
      1  N        126.0250   -0.8150   77.9730 N.3   290  SER290     -0.1202
      2  CA       126.5030    0.0710   76.9190 C.3   290  SER290      0.2020
      3  C        126.1600   -0.4670   75.5310 C.2   290  SER290      0.2618
      4  O        125.6860   -1.5930   75.3610 O.2   290  SER290     -0.2717
      5  CB       128.0200    0.1710   77.0120 C.3   290  SER290      0.2103
      6  OG       128.5530   -1.1480   76.8240 O.3   290  SER290     -0.2182
      7  N        126.4520    0.3430   74.5090 N.am  291  TYR291     -0.1975
      8  CA       126.2220   -0.1440   73.1580 C.3   291  TYR291      0.1639
      9  C        127.1090   -1.3460   72.8690 C.2   291  TYR291      0.2290
     10  O        126.6750   -2.2630   72.1870 O.2   291  TYR291     -0.2864
     11  CB       126.4160    0.9850   72.1280 C.3   291  TYR291      0.0560
     12  CG       127.8420    1.4300   71.8460 C.ar  291  TYR291     -0.0198
     13  CD1      128.5960    0.7980   70.8700 C.ar  291  TYR291     -0.0009
     14  CD2      128.4340    2.4770   72.5460 C.ar  291  TYR291     -0.0009
     15  CE1      129.8710    1.1850   70.5760 C.ar  291  TYR291      0.0417
     16  CE2      129.7640    2.8680   72.2710 C.ar  291  TYR291      0.0417
     17  CZ       130.4610    2.2090   71.2660 C.ar  291  TYR291      0.1957
     18  OH       131.7560    2.5400   70.9260 O.3   291  TYR291     -0.2866
     19  N        122.6910    4.4810   78.7690 N.3   317  ARG317     -0.1231
     20  CA       122.7050    5.7850   79.4080 C.3   317  ARG317      0.1694
     21  C        123.3900    6.8000   78.4950 C.2   317  ARG317      0.2593
     22  O        124.4500    6.5210   77.9150 O.2   317  ARG317     -0.2718
     23  CB       123.4320    5.7080   80.7710 C.3   317  ARG317      0.0321
     24  CG       123.4520    7.0110   81.5500 C.3   317  ARG317      0.0489
     25  CD       124.1640    6.8380   82.9140 C.3   317  ARG317      0.2205
     26  NE       123.4700    5.8580   83.7490 N.pl3 317  ARG317     -0.0865
     27  CZ       122.3890    6.1280   84.4760 C.cat 317  ARG317      0.5346
     28  NH1      121.8610    7.3500   84.4640 N.pl3 317  ARG317      0.1354
     29  NH2      121.8020    5.1700   85.1900 N.pl3 317  ARG317      0.1354
     30  N        122.7790    7.9800   78.3800 N.am  318  GLY318     -0.1942
     31  CA       123.2270    9.0090   77.4640 C.3   318  GLY318      0.2014
     32  C        122.5230    9.0100   76.1130 C.2   318  GLY318      0.2639
     33  O        122.5550   10.0250   75.4050 O.2   318  GLY318     -0.2714
     34  N        121.8920    7.9100   75.7360 N.am  319  PHE319     -0.1959
     35  CA       121.0600    7.8580   74.5390 C.3   319  PHE319      0.1771
     36  C        119.6150    8.1120   74.9310 C.2   319  PHE319      0.2619
     37  O        119.2160    7.9050   76.0850 O.2   319  PHE319     -0.2715
     38  CB       121.1400    6.5070   73.8430 C.3   319  PHE319      0.0574
     39  CG       122.4890    6.1700   73.2430 C.ar  319  PHE319     -0.0200
     40  CD1      123.5010    5.5960   74.0130 C.ar  319  PHE319     -0.0042
     41  CD2      122.7190    6.3630   71.8980 C.ar  319  PHE319     -0.0042
     42  CE1      124.7240    5.2350   73.4390 C.ar  319  PHE319     -0.0003
     43  CE2      123.9460    6.0320   71.3300 C.ar  319  PHE319     -0.0003
     44  CZ       124.9520    5.4650   72.1170 C.ar  319  PHE319     -0.0000
     45  N        118.8370    8.5540   73.9490 N.am  320  ASP320     -0.1971
     46  CA       117.3860    8.6620   74.0610 C.3   320  ASP320      0.1709
     47  C        116.7800    7.4170   74.6950 C.2   320  ASP320      0.2293
     48  O        116.8980    6.2980   74.1640 O.2   320  ASP320     -0.2864
     49  CB       116.7870    8.8870   72.6670 C.3   320  ASP320      0.1436
     50  CG       115.3040    9.1650   72.7120 C.2   320  ASP320      0.3671
     51  OD1      114.5210    8.2380   73.0280 O.co2 320  ASP320     -0.2456
     52  OD2      114.9180   10.3140   72.4140 O.co2 320  ASP320     -0.2456
     53  N        132.6400   13.2350   70.9640 N.3   434  PRO434     -0.2102
     54  CA       132.0540   11.9280   70.6270 C.3   434  PRO434      0.1504
     55  C        133.1400   10.9230   70.3160 C.2   434  PRO434      0.2575
     56  O        134.0490   11.1850   69.5310 O.2   434  PRO434     -0.2718
     57  CB       131.1990   12.2230   69.3920 C.3   434  PRO434      0.0282
     58  CG       130.9280   13.7080   69.4430 C.3   434  PRO434      0.0208
     59  CD       132.1630   14.2940   70.0480 C.3   434  PRO434      0.0893
     60  N        133.0240    9.7480   70.9130 N.am  435  GLN435     -0.1980
     61  CA       134.0860    8.7570   70.8360 C.3   435  GLN435      0.1601
     62  C        133.7770    7.7870   69.7000 C.2   435  GLN435      0.2287
     63  O        133.3100    6.6640   69.9020 O.2   435  GLN435     -0.2864
     64  CB       134.2390    8.0640   72.1710 C.3   435  GLN435      0.0394
     65  CG       134.6540    9.0220   73.2870 C.3   435  GLN435      0.0908
     66  CD       134.9030    8.2900   74.5880 C.2   435  GLN435      0.2608
     67  OE1      134.0630    7.5260   75.0480 O.2   435  GLN435     -0.2717
     68  NE2      136.0820    8.4920   75.1640 N.am  435  GLN435     -0.0878
     69  N        126.8650   14.9210   65.5810 N.3   464  VAL464     -0.1245
     70  CA       127.5300   13.7610   64.9770 C.3   464  VAL464      0.1561
     71  C        126.6150   12.5450   65.0920 C.2   464  VAL464      0.2260
     72  O        126.2580   12.1420   66.1980 O.2   464  VAL464     -0.2867
     73  CB       128.8820   13.4970   65.6570 C.3   464  VAL464      0.0252
     74  CG1      129.5180   12.2100   65.1140 C.3   464  VAL464      0.0019
     75  CG2      129.8120   14.6920   65.4030 C.3   464  VAL464      0.0019
     76  N        125.2010    8.6360   64.8950 N.3   466  THR466     -0.1218
     77  CA       125.6770    7.3870   65.4620 C.3   466  THR466      0.1862
     78  C        124.7460    6.2650   65.0190 C.2   466  THR466      0.2287
     79  O        123.6090    6.4980   64.6070 O.2   466  THR466     -0.2866
     80  CB       125.7320    7.4390   67.0040 C.3   466  THR466      0.1770
     81  OG1      124.4210    7.7230   67.5250 O.3   466  THR466     -0.2211
     82  CG2      126.6520    8.5320   67.4720 C.3   466  THR466      0.0375
     83  N        119.7760    0.9230   65.6790 N.3   474  TYR474     -0.1241
     84  CA       119.2780    2.2180   66.1510 C.3   474  TYR474      0.1605
     85  C        120.2130    3.3230   65.6820 C.2   474  TYR474      0.2264
     86  O        121.3560    3.4400   66.1600 O.2   474  TYR474     -0.2867
     87  CB       119.1320    2.2410   67.6810 C.3   474  TYR474      0.0534
     88  CG       118.9340    3.6210   68.2720 C.ar  474  TYR474     -0.0201
     89  CD1      118.1440    4.5700   67.6540 C.ar  474  TYR474     -0.0009
     90  CD2      119.5290    3.9760   69.4890 C.ar  474  TYR474     -0.0009
     91  CE1      117.9910    5.8370   68.2000 C.ar  474  TYR474      0.0417
     92  CE2      119.3660    5.2280   70.0300 C.ar  474  TYR474      0.0417
     93  CZ       118.5990    6.1430   69.3810 C.ar  474  TYR474      0.1957
     94  OH       118.4370    7.3880   69.9260 O.3   474  TYR474     -0.2866
     95  N        120.8550    7.5430   65.1060 N.3   476  ALA476     -0.1245
     96  CA       120.4420    8.7970   65.7190 C.3   476  ALA476      0.1562
     97  C        121.3590    9.9170   65.2430 C.2   476  ALA476      0.2260
     98  O        122.5390    9.7080   64.9590 O.2   476  ALA476     -0.2867
     99  CB       120.4610    8.7110   67.2410 C.3   476  ALA476      0.0290
    100  N        121.7100   14.0950   66.5370 N.3   478  GLY478     -0.1225
    101  CA       121.2400   15.2480   67.2930 C.3   478  GLY478      0.1811
    102  C        120.7570   14.8600   68.6770 C.2   478  GLY478      0.2280
    103  O        121.1760   13.8600   69.2660 O.2   478  GLY478     -0.2866
    104  N        118.6210   13.7450   71.9280 N.3   480  SER480     -0.1217
    105  CA       117.5410   12.9340   72.4530 C.3   480  SER480      0.1889
    106  C        116.3390   13.8140   72.7500 C.2   480  SER480      0.2288
    107  O        116.4490   15.0320   72.9450 O.2   480  SER480     -0.2866
    108  CB       117.9900   12.2230   73.7290 C.3   480  SER480      0.2089
    109  OG       118.2660   13.1840   74.7570 O.3   480  SER480     -0.2183
    110  N        116.7570   15.4100   76.2420 N.3   483  ASP483     -0.1239
    111  CA       117.6960   16.5320   76.2770 C.3   483  ASP483      0.1674
    112  C        117.1140   17.7690   75.6030 C.2   483  ASP483      0.2266
    113  O        117.3760   18.9020   76.0290 O.2   483  ASP483     -0.2867
    114  CB       119.0260   16.1500   75.6170 C.3   483  ASP483      0.1410
    115  CG       119.8610   15.2090   76.4560 C.2   483  ASP483      0.3668
    116  OD1      119.4590   14.9080   77.5940 O.co2 483  ASP483     -0.2456
    117  OD2      120.9270   14.7540   75.9580 O.co2 483  ASP483     -0.2456
    118  N        115.7830   10.0570   65.0650 N.3   533  HIS533     -0.1241
    119  CA       115.9220    8.7510   65.7010 C.3   533  HIS533      0.1621
    120  C        115.1940    7.6950   64.8840 C.2   533  HIS533      0.2264
    121  O        114.0420    7.9020   64.5000 O.2   533  HIS533     -0.2867
    122  CB       115.3500    8.8050   67.1340 C.3   533  HIS533      0.0745
    123  CG       116.0450    9.8170   67.9750 C.ar  533  HIS533      0.0817
    124  ND1      117.1560    9.5120   68.7300 N.ar  533  HIS533     -0.2268
    125  CD2      115.8670   11.1540   68.0850 C.ar  533  HIS533      0.1154
    126  CE1      117.6160   10.6150   69.2920 C.ar  533  HIS533      0.1986
    127  NE2      116.8460   11.6210   68.9260 N.ar  533  HIS533     -0.2212
@<TRIPOS>BOND
     1   121   120    2
     2    79    78    2
     3   120   119    1
     4    76    77    1
     5    98    97    2
     6    70    71    1
     7    70    69    1
     8    70    73    1
     9    78    77    1
    10   118   119    1
    11    71    72    2
    12    95    96    1
    13    74    73    1
    14    97    96    1
    15    75    73    1
    16    77    80    1
    17    83    84    1
    18    85    84    1
    19    85    86    2
    20   119   122    1
    21    96    99    1
    22    84    87    1
    23   100   101    1
    24    80    82    1
    25    80    81    1
    26   122   123    1
    27   101   102    1
    28    89    91   ar
    29    89    88   ar
    30    87    88    1
    31   123   125   ar
    32   123   124   ar
    33   125   127   ar
    34    91    93   ar
    35    88    90   ar
    36   102   103    2
    37   124   126   ar
    38   127   126   ar
    39    93    94    1
    40    93    92   ar
    41    57    58    1
    42    57    54    1
    43    58    59    1
    44    90    92   ar
    45    56    55    2
    46    62    63    2
    47    62    61    1
    48    59    53    1
    49    55    54    1
    50    55    60   am
    51    15    13   ar
    52    15    17   ar
    53    54    53    1
    54    61    60    1
    55    61    64    1
    56    13    12   ar
    57    18    17    1
    58    17    16   ar
    59    43    41   ar
    60    43    44   ar
    61    12    11    1
    62    12    14   ar
    63    41    39   ar
    64   104   105    1
    65    44    42   ar
    66    11     8    1
    67    64    65    1
    68    10     9    2
    69    16    14   ar
    70    52    50   ar
    71   105   106    1
    72   105   108    1
    73    49    50    1
    74    49    46    1
    75    50    51   ar
    76   106   107    2
    77     9     8    1
    78     8     7    1
    79    39    38    1
    80    39    40   ar
    81    65    66    1
    82    42    40   ar
    83   108   109    1
    84    38    35    1
    85    45    46    1
    86    45    36   am
    87    46    47    1
    88    48    47    2
    89     7     3   am
    90    35    36    1
    91    35    34    1
    92    66    67    2
    93    66    68   am
    94    36    37    2
    95     4     3    2
    96    33    32    2
    97     3     2    1
    98   112   113    2
    99   112   111    1
   100   114   111    1
   101   114   115    1
   102    34    32   am
   103   117   115   ar
   104    32    31    1
   105   110   111    1
   106   115   116   ar
   107     6     5    1
   108     2     5    1
   109     2     1    1
   110    31    30    1
   111    22    21    2
   112    30    21   am
   113    21    20    1
   114    19    20    1
   115    20    23    1
   116    23    24    1
   117    24    25    1
   118    25    26    1
   119    26    27    2
   120    28    27    1
   121    27    29    1
