@<TRIPOS>MOLECULE
tmp/6fmvA03.pdb
 103 95 0 0 0
SMALL
GASTEIGER

@<TRIPOS>ATOM
      1  N         91.6300   40.0230   23.9170 N.3     9  ILE9       -0.1245
      2  CA        91.2820   40.9050   25.0300 C.3     9  ILE9        0.1561
      3  C         90.9800   42.3100   24.5210 C.2     9  ILE9        0.2260
      4  O         89.9500   42.9040   24.8610 O.2     9  ILE9       -0.2867
      5  CB        92.4090   40.9160   26.0800 C.3     9  ILE9        0.0252
      6  CG1       92.5610   39.5310   26.7130 C.3     9  ILE9        0.0019
      7  CG2       92.1430   41.9710   27.1400 C.3     9  ILE9        0.0019
      8  CD1       93.7170   39.4260   27.6770 C.3     9  ILE9        0.0001
      9  N         87.7250   42.4020   22.6660 N.3    12  VAL12      -0.1231
     10  CA        86.5710   42.4750   23.5570 C.3    12  VAL12       0.1692
     11  C         86.3900   43.8950   24.0740 C.2    12  VAL12       0.2591
     12  O         85.2670   44.4140   24.1330 O.2    12  VAL12      -0.2718
     13  CB        86.7200   41.4640   24.7090 C.3    12  VAL12       0.0266
     14  CG1       85.6330   41.6750   25.7460 C.3    12  VAL12       0.0020
     15  CG2       86.6680   40.0430   24.1740 C.3    12  VAL12       0.0020
     16  N         87.4940   44.5470   24.4480 N.am   13  VAL13      -0.1980
     17  CA        87.4290   45.9130   24.9610 C.3    13  VAL13       0.1595
     18  C         86.8890   46.8540   23.8940 C.2    13  VAL13       0.2287
     19  O         85.9840   47.6590   24.1480 O.2    13  VAL13      -0.2864
     20  CB        88.8140   46.3640   25.4570 C.3    13  VAL13       0.0276
     21  CG1       88.8120   47.8530   25.7480 C.3    13  VAL13       0.0022
     22  CG2       89.2170   45.5700   26.6910 C.3    13  VAL13       0.0022
     23  N         83.1350   46.2160   23.1960 N.3    16  LEU16      -0.1245
     24  CA        82.2430   46.6140   24.2800 C.3    16  LEU16       0.1561
     25  C         82.0940   48.1290   24.3640 C.2    16  LEU16       0.2260
     26  O         80.9880   48.6380   24.5800 O.2    16  LEU16      -0.2867
     27  CB        82.7600   46.0670   25.6130 C.3    16  LEU16       0.0270
     28  CG        82.3410   44.6520   26.0100 C.3    16  LEU16       0.0019
     29  CD1       83.0420   44.2280   27.2910 C.3    16  LEU16       0.0001
     30  CD2       80.8310   44.5750   26.1740 C.3    16  LEU16       0.0001
     31  N         79.1050   51.8270   23.4000 N.3    20  LEU20      -0.1245
     32  CA        78.7250   52.3750   24.6870 C.3    20  LEU20       0.1561
     33  C         79.4510   53.7060   24.8770 C.2    20  LEU20       0.2260
     34  O         80.6050   53.8540   24.4600 O.2    20  LEU20      -0.2867
     35  CB        79.0800   51.4120   25.8180 C.3    20  LEU20       0.0270
     36  CG        78.1080   50.2660   26.1360 C.3    20  LEU20       0.0019
     37  CD1       77.8120   49.3980   24.9180 C.3    20  LEU20       0.0001
     38  CD2       78.6390   49.4120   27.2780 C.3    20  LEU20       0.0001
     39  N         94.1480   49.2810   29.0520 N.3    31  VAL31      -0.1245
     40  CA        94.3580   47.8450   28.8900 C.3    31  VAL31       0.1561
     41  C         95.6360   47.5780   28.1060 C.2    31  VAL31       0.2260
     42  O         96.4270   46.6950   28.4590 O.2    31  VAL31      -0.2867
     43  CB        93.1350   47.1980   28.2170 C.3    31  VAL31       0.0252
     44  CG1       93.3640   45.7060   28.0350 C.3    31  VAL31       0.0019
     45  CG2       91.8840   47.4550   29.0440 C.3    31  VAL31       0.0019
     46  N         98.3850   47.8520   30.5190 N.3    34  LEU34      -0.1231
     47  CA        98.4580   46.7260   31.4420 C.3    34  LEU34       0.1693
     48  C         98.8580   45.4250   30.7590 C.2    34  LEU34       0.2591
     49  O         99.1960   44.4600   31.4540 O.2    34  LEU34      -0.2718
     50  CB        97.1150   46.5410   32.1510 C.3    34  LEU34       0.0284
     51  CG        96.7200   47.6180   33.1610 C.3    34  LEU34       0.0019
     52  CD1       95.2700   47.4590   33.5940 C.3    34  LEU34       0.0001
     53  CD2       97.6450   47.5720   34.3670 C.3    34  LEU34       0.0001
     54  N         98.8270   45.3730   29.4270 N.am   35  LEU35      -0.1980
     55  CA        99.2680   44.2050   28.6780 C.3    35  LEU35       0.1596
     56  C        100.6370   44.3830   28.0390 C.2    35  LEU35       0.2287
     57  O        101.1660   43.4200   27.4720 O.2    35  LEU35      -0.2864
     58  CB        98.2540   43.8540   27.5800 C.3    35  LEU35       0.0297
     59  CG        96.8540   43.4030   27.9970 C.3    35  LEU35       0.0022
     60  CD1       95.9520   43.2960   26.7780 C.3    35  LEU35       0.0001
     61  CD2       96.9170   42.0770   28.7320 C.3    35  LEU35       0.0001
     62  N         77.1980   43.8360   21.8620 N.3   238  ALA238     -0.1245
     63  CA        77.1100   45.0680   22.6410 C.3   238  ALA238      0.1562
     64  C         76.0100   45.9820   22.1180 C.2   238  ALA238      0.2260
     65  O         75.1690   46.4580   22.8880 O.2   238  ALA238     -0.2867
     66  CB        78.4570   45.7930   22.6420 C.3   238  ALA238      0.0290
     67  N         72.5620   44.4640   22.8620 N.3   241  THR241     -0.1203
     68  CA        72.2320   44.5480   24.2820 C.3   241  THR241      0.1994
     69  C         72.0220   45.9940   24.7160 C.2   241  THR241      0.2617
     70  O         71.0900   46.2930   25.4710 O.2   241  THR241     -0.2717
     71  CB        73.3350   43.8960   25.1190 C.3   241  THR241      0.1784
     72  OG1       73.5660   42.5590   24.6550 O.3   241  THR241     -0.2211
     73  CG2       72.9380   43.8550   26.5880 C.3   241  THR241      0.0376
     74  N         72.8820   46.9030   24.2480 N.am  242  PHE242     -0.1975
     75  CA        72.7740   48.3090   24.6270 C.3   242  PHE242      0.1639
     76  C         71.4360   48.8950   24.1920 C.2   242  PHE242      0.2290
     77  O         70.7600   49.5750   24.9720 O.2   242  PHE242     -0.2864
     78  CB        73.9360   49.0990   24.0170 C.3   242  PHE242      0.0560
     79  CG        73.8810   50.5770   24.2790 C.ar  242  PHE242     -0.0200
     80  CD1       74.3000   51.0940   25.4930 C.ar  242  PHE242     -0.0042
     81  CD2       73.4290   51.4530   23.3040 C.ar  242  PHE242     -0.0042
     82  CE1       74.2580   52.4550   25.7350 C.ar  242  PHE242     -0.0003
     83  CE2       73.3840   52.8130   23.5400 C.ar  242  PHE242     -0.0003
     84  CZ        73.8010   53.3150   24.7570 C.ar  242  PHE242     -0.0000
     85  N         68.8150   47.7090   26.3380 N.3   245  LEU245     -0.1245
     86  CA        68.9820   48.2200   27.6940 C.3   245  LEU245      0.1561
     87  C         68.6040   49.6940   27.8000 C.2   245  LEU245      0.2260
     88  O         67.9130   50.0950   28.7440 O.2   245  LEU245     -0.2867
     89  CB        70.4300   48.0100   28.1350 C.3   245  LEU245      0.0270
     90  CG        70.8470   48.3210   29.5710 C.3   245  LEU245      0.0019
     91  CD1       70.2480   47.3180   30.5420 C.3   245  LEU245      0.0001
     92  CD2       72.3640   48.3380   29.6800 C.3   245  LEU245      0.0001
     93  N         76.4120   55.1650   33.0840 N.3   254  PHE254     -0.1241
     94  CA        77.5650   55.2660   32.1920 C.3   254  PHE254      0.1605
     95  C         78.4290   56.4670   32.5520 C.2   254  PHE254      0.2264
     96  O         79.6610   56.3920   32.4970 O.2   254  PHE254     -0.2867
     97  CB        77.1150   55.3630   30.7320 C.3   254  PHE254      0.0534
     98  CG        76.3310   54.1750   30.2550 C.ar  254  PHE254     -0.0203
     99  CD1       74.9460   54.1690   30.3110 C.ar  254  PHE254     -0.0042
    100  CD2       76.9760   53.0650   29.7470 C.ar  254  PHE254     -0.0042
    101  CE1       74.2230   53.0760   29.8710 C.ar  254  PHE254     -0.0003
    102  CE2       76.2570   51.9680   29.3060 C.ar  254  PHE254     -0.0003
    103  CZ        74.8800   51.9740   29.3680 C.ar  254  PHE254     -0.0000
@<TRIPOS>BOND
     1    62    63    1
     2    64    63    1
     3    64    65    2
     4    63    66    1
     5     9    10    1
     6    67    68    1
     7    23    24    1
     8    81    83   ar
     9    81    79   ar
    10    31    32    1
    11    83    84   ar
    12    10    11    1
    13    10    13    1
    14    18    19    2
    15    18    17    1
    16     1     2    1
    17    78    79    1
    18    78    75    1
    19    11    12    2
    20    11    16   am
    21    15    13    1
    22    76    75    1
    23    76    77    2
    24    74    75    1
    25    74    69   am
    26    79    80   ar
    27    24    25    1
    28    24    27    1
    29    68    69    1
    30    68    71    1
    31    25    26    2
    32    16    17    1
    33    34    33    2
    34     3     4    2
    35     3     2    1
    36    72    71    1
    37    32    33    1
    38    32    35    1
    39    13    14    1
    40    69    70    2
    41    84    82   ar
    42    37    36    1
    43    17    20    1
    44     2     5    1
    45    71    73    1
    46    20    21    1
    47    20    22    1
    48    80    82   ar
    49    27    28    1
    50    35    36    1
    51    28    30    1
    52    28    29    1
    53     5     6    1
    54     5     7    1
    55    36    38    1
    56    85    86    1
    57     6     8    1
    58    60    59    1
    59    57    56    2
    60    58    59    1
    61    58    55    1
    62    86    87    1
    63    86    89    1
    64    87    88    2
    65    59    61    1
    66    44    43    1
    67    56    55    1
    68    41    42    2
    69    41    40    1
    70    89    90    1
    71    43    40    1
    72    43    45    1
    73    55    54    1
    74    40    39    1
    75   102   103   ar
    76   102   100   ar
    77   103   101   ar
    78    54    48   am
    79    90    92    1
    80    90    91    1
    81   100    98   ar
    82   101    99   ar
    83    98    99   ar
    84    98    97    1
    85    46    47    1
    86    97    94    1
    87    48    47    1
    88    48    49    2
    89    47    50    1
    90    50    51    1
    91    94    95    1
    92    94    93    1
    93    96    95    2
    94    51    52    1
    95    51    53    1
