@<TRIPOS>MOLECULE
tmp/6fmvA02.pdb
 119 116 0 0 0
SMALL
GASTEIGER

@<TRIPOS>ATOM
      1  N         84.6820   65.2440   31.6170 N.3   125  VAL125     -0.1245
      2  CA        83.8330   66.2670   31.0050 C.3   125  VAL125      0.1561
      3  C         82.7500   65.6210   30.1510 C.2   125  VAL125      0.2260
      4  O         81.6050   66.0900   30.1100 O.2   125  VAL125     -0.2867
      5  CB        84.6810   67.2580   30.1850 C.3   125  VAL125      0.0252
      6  CG1       83.7930   68.3110   29.5340 C.3   125  VAL125      0.0019
      7  CG2       85.7340   67.9190   31.0630 C.3   125  VAL125      0.0019
      8  N         80.1580   64.4320   32.4920 N.3   128  LEU128     -0.1231
      9  CA        79.3570   65.5750   32.9160 C.3   128  LEU128      0.1693
     10  C         78.3650   65.9860   31.8350 C.2   128  LEU128      0.2591
     11  O         77.2300   66.3720   32.1390 O.2   128  LEU128     -0.2718
     12  CB        80.2720   66.7430   33.2840 C.3   128  LEU128      0.0284
     13  CG        81.1860   66.5260   34.4910 C.3   128  LEU128      0.0019
     14  CD1       82.1910   67.6580   34.6270 C.3   128  LEU128      0.0001
     15  CD2       80.3530   66.3960   35.7520 C.3   128  LEU128      0.0001
     16  N         78.7740   65.9090   30.5660 N.am  129  LEU129     -0.1980
     17  CA        77.8580   66.2280   29.4750 C.3   129  LEU129      0.1596
     18  C         76.7020   65.2370   29.4170 C.2   129  LEU129      0.2287
     19  O         75.5460   65.6320   29.2210 O.2   129  LEU129     -0.2864
     20  CB        78.6090   66.2510   28.1440 C.3   129  LEU129      0.0297
     21  CG        77.7460   66.5020   26.9070 C.3   129  LEU129      0.0022
     22  CD1       77.0250   67.8380   27.0140 C.3   129  LEU129      0.0001
     23  CD2       78.5900   66.4420   25.6460 C.3   129  LEU129      0.0001
     24  N         75.4740   63.6440   31.9320 N.3   131  ILE131     -0.1231
     25  CA        74.6190   64.0310   33.0510 C.3   131  ILE131      0.1692
     26  C         73.7600   65.2300   32.6720 C.2   131  ILE131      0.2591
     27  O         72.5500   65.2550   32.9260 O.2   131  ILE131     -0.2718
     28  CB        75.4730   64.3200   34.2980 C.3   131  ILE131      0.0266
     29  CG1       76.0990   63.0260   34.8160 C.3   131  ILE131      0.0019
     30  CG2       74.6480   65.0030   35.3700 C.3   131  ILE131      0.0020
     31  CD1       77.2360   63.2480   35.7880 C.3   131  ILE131      0.0001
     32  N         74.3770   66.2440   32.0600 N.am  132  ALA132     -0.1980
     33  CA        73.6300   67.4290   31.6480 C.3   132  ALA132      0.1597
     34  C         72.5520   67.0770   30.6300 C.2   132  ALA132      0.2287
     35  O         71.4370   67.6110   30.6860 O.2   132  ALA132     -0.2864
     36  CB        74.5870   68.4780   31.0800 C.3   132  ALA132      0.0319
     37  N         69.6880   65.5560   32.4890 N.3   135  CYS135     -0.1221
     38  CA        68.9730   66.5160   33.3240 C.3   135  CYS135      0.1808
     39  C         68.2220   67.5520   32.5000 C.2   135  CYS135      0.2601
     40  O         67.1740   68.0400   32.9380 O.2   135  CYS135     -0.2717
     41  CB        69.9430   67.2240   34.2760 C.3   135  CYS135      0.0970
     42  SG        70.7230   66.1420   35.4980 S.3   135  CYS135     -0.0800
     43  N         68.7300   67.9040   31.3200 N.am  136  LEU136     -0.1965
     44  CA        68.1720   69.0080   30.5550 C.3   136  LEU136      0.1728
     45  C         67.2940   68.5700   29.3920 C.2   136  LEU136      0.2616
     46  O         66.6120   69.4180   28.8100 O.2   136  LEU136     -0.2715
     47  CB        69.2970   69.9080   30.0290 C.3   136  LEU136      0.0311
     48  CG        70.0430   70.6900   31.1100 C.3   136  LEU136      0.0022
     49  CD1       71.3550   71.2290   30.5780 C.3   136  LEU136      0.0001
     50  CD2       69.1720   71.8200   31.6360 C.3   136  LEU136      0.0001
     51  N         67.2820   67.2840   29.0460 N.am  137  LYS137     -0.1964
     52  CA        66.4650   66.8370   27.9310 C.3   137  LYS137      0.1713
     53  C         64.9890   67.1240   28.2110 C.2   137  LYS137      0.2458
     54  O         64.5570   67.1370   29.3690 O.2   137  LYS137     -0.2730
     55  CB        66.6700   65.3450   27.6710 C.3   137  LYS137      0.0311
     56  CG        66.1420   64.4270   28.7600 C.3   137  LYS137      0.0038
     57  CD        66.4040   62.9710   28.4030 C.3   137  LYS137      0.0206
     58  CE        65.7440   62.0110   29.3880 C.3   137  LYS137      0.1093
     59  NZ        66.2420   62.1810   30.7810 N.3   137  LYS137     -0.1314
     60  N         64.2010   67.3900   27.1730 N.am  138  PRO138     -0.2716
     61  CA        62.7780   67.6620   27.3880 C.3   138  PRO138      0.1536
     62  C         62.0430   66.4340   27.9020 C.2   138  PRO138      0.2598
     63  O         62.4640   65.2930   27.6980 O.2   138  PRO138     -0.2715
     64  CB        62.2800   68.0670   25.9960 C.3   138  PRO138      0.0310
     65  CG        63.2700   67.4720   25.0490 C.3   138  PRO138      0.0237
     66  CD        64.5850   67.5220   25.7560 C.3   138  PRO138      0.0939
     67  N         60.9340   66.6870   28.5980 N.am  139  LYS139     -0.1978
     68  CA        60.1180   65.5910   29.1100 C.3   139  LYS139      0.1596
     69  C         59.6220   64.7070   27.9750 C.2   139  LYS139      0.2287
     70  O         59.6160   63.4750   28.0890 O.2   139  LYS139     -0.2864
     71  CB        58.9400   66.1480   29.9090 C.3   139  LYS139      0.0298
     72  CG        59.3290   67.1680   30.9650 C.3   139  LYS139      0.0038
     73  CD        58.1080   67.9190   31.4750 C.3   139  LYS139      0.0206
     74  CE        58.5100   69.0840   32.3650 C.3   139  LYS139      0.1093
     75  NZ        57.3460   69.9480   32.7030 N.3   139  LYS139     -0.1314
     76  N         78.0290   68.3930   17.8220 N.3   160  PHE160     -0.1241
     77  CA        78.5200   67.7600   19.0400 C.3   160  PHE160      0.1605
     78  C         79.5290   66.6600   18.7450 C.2   160  PHE160      0.2264
     79  O         80.3820   66.3670   19.5900 O.2   160  PHE160     -0.2867
     80  CB        77.3530   67.2080   19.8580 C.3   160  PHE160      0.0534
     81  CG        76.7810   68.1990   20.8250 C.ar  160  PHE160     -0.0203
     82  CD1       75.9720   69.2250   20.3760 C.ar  160  PHE160     -0.0042
     83  CD2       77.0650   68.1090   22.1800 C.ar  160  PHE160     -0.0042
     84  CE1       75.4500   70.1440   21.2570 C.ar  160  PHE160     -0.0003
     85  CE2       76.5440   69.0220   23.0750 C.ar  160  PHE160     -0.0003
     86  CZ        75.7330   70.0440   22.6140 C.ar  160  PHE160     -0.0000
     87  N         83.2080   67.2100   19.4580 N.3   163  LEU163     -0.1245
     88  CA        83.7830   66.9010   20.7630 C.3   163  LEU163      0.1561
     89  C         84.5330   65.5770   20.7390 C.2   163  LEU163      0.2260
     90  O         85.4650   65.3780   21.5260 O.2   163  LEU163     -0.2867
     91  CB        82.6830   66.8770   21.8260 C.3   163  LEU163      0.0270
     92  CG        82.0220   68.2270   22.1190 C.3   163  LEU163      0.0019
     93  CD1       80.7530   68.0480   22.9370 C.3   163  LEU163      0.0001
     94  CD2       83.0000   69.1410   22.8380 C.3   163  LEU163      0.0001
     95  N         88.3690   65.2210   20.6560 N.3   166  TRP166     -0.1241
     96  CA        89.0410   65.2120   21.9460 C.3   166  TRP166      0.1605
     97  C         89.2060   63.7650   22.3980 C.2   166  TRP166      0.2264
     98  O         88.2130   63.1040   22.7270 O.2   166  TRP166     -0.2867
     99  CB        88.2210   66.0250   22.9490 C.3   166  TRP166      0.0550
    100  CG        88.8140   66.2170   24.3070 C.ar  166  TRP166      0.0003
    101  CD1       90.0150   65.7600   24.7630 C.ar  166  TRP166      0.0946
    102  CD2       88.2170   66.9320   25.3930 C.ar  166  TRP166      0.0152
    103  NE1       90.2010   66.1460   26.0700 N.ar  166  TRP166     -0.2442
    104  CE2       89.1100   66.8680   26.4790 C.ar  166  TRP166      0.0810
    105  CE3       87.0110   67.6220   25.5500 C.ar  166  TRP166      0.0012
    106  CZ2       88.8350   67.4670   27.7070 C.ar  166  TRP166      0.0191
    107  CZ3       86.7400   68.2130   26.7660 C.ar  166  TRP166      0.0001
    108  CH2       87.6470   68.1340   27.8290 C.ar  166  TRP166      0.0015
    109  N         86.7750   61.3270   24.7320 N.3   169  PHE169     -0.1241
    110  CA        85.4500   61.9050   24.9200 C.3   169  PHE169      0.1605
    111  C         84.3120   60.9660   24.5350 C.2   169  PHE169      0.2264
    112  O         83.1970   61.1650   25.0300 O.2   169  PHE169     -0.2867
    113  CB        85.3080   63.2100   24.1320 C.3   169  PHE169      0.0534
    114  CG        84.2270   64.1220   24.6570 C.ar  169  PHE169     -0.0203
    115  CD1       82.9030   63.9510   24.2790 C.ar  169  PHE169     -0.0042
    116  CD2       84.5390   65.1520   25.5310 C.ar  169  PHE169     -0.0042
    117  CE1       81.9120   64.7800   24.7700 C.ar  169  PHE169     -0.0003
    118  CE2       83.5480   65.9890   26.0200 C.ar  169  PHE169     -0.0003
    119  CZ        82.2370   65.8010   25.6370 C.ar  169  PHE169     -0.0000
@<TRIPOS>BOND
     1    76    77    1
     2    78    77    1
     3    78    79    2
     4    77    80    1
     5    87    88    1
     6    80    81    1
     7    82    81   ar
     8    82    84   ar
     9    95    96    1
    10    89    88    1
    11    89    90    2
    12    88    91    1
    13    81    83   ar
    14    84    86   ar
    15    91    92    1
    16    96    97    1
    17    96    99    1
    18    92    94    1
    19    92    93    1
    20    83    85   ar
    21    97    98    2
    22    86    85   ar
    23    99   100    1
    24   113   114    1
    25   113   110    1
    26   115   114   ar
    27   115   117   ar
    28   100   101   ar
    29   100   102   ar
    30   111   110    1
    31   111   112    2
    32   114   116   ar
    33   109   110    1
    34   101   103   ar
    35   117   119   ar
    36    65    66    1
    37    65    64    1
    38   102   105   ar
    39   102   104   ar
    40   116   118   ar
    41   105   107   ar
    42   119   118   ar
    43    23    21    1
    44    66    60    1
    45    64    61    1
    46   103   104   ar
    47   104   106   ar
    48   107   108   ar
    49    21    22    1
    50    21    20    1
    51    60    61    1
    52    60    53   am
    53    61    62    1
    54    55    52    1
    55    55    56    1
    56    63    62    2
    57   106   108   ar
    58    62    67   am
    59    52    53    1
    60    52    51    1
    61    69    70    2
    62    69    68    1
    63    20    17    1
    64    53    54    2
    65    57    56    1
    66    57    58    1
    67    67    68    1
    68    46    45    2
    69    51    45   am
    70    68    71    1
    71    19    18    2
    72    58    59    1
    73    45    44    1
    74    18    17    1
    75    17    16    1
    76     6     5    1
    77    71    72    1
    78    47    44    1
    79    47    48    1
    80     4     3    2
    81     3     2    1
    82     5     2    1
    83     5     7    1
    84    44    43    1
    85    16    10   am
    86    49    48    1
    87    34    35    2
    88    34    33    1
    89    72    73    1
    90     2     1    1
    91    36    33    1
    92    48    50    1
    93    43    39   am
    94    73    74    1
    95    33    32    1
    96    10    11    2
    97    10     9    1
    98    24    25    1
    99    32    26   am
   100    74    75    1
   101    37    38    1
   102     8     9    1
   103    39    40    2
   104    39    38    1
   105    26    27    2
   106    26    25    1
   107     9    12    1
   108    25    28    1
   109    12    13    1
   110    38    41    1
   111    41    42    1
   112    28    29    1
   113    28    30    1
   114    13    14    1
   115    13    15    1
   116    29    31    1
