@<TRIPOS>MOLECULE
tmp/6fmvA01.pdb
 118 112 0 0 0
SMALL
GASTEIGER

@<TRIPOS>ATOM
      1  N         87.7250   42.4020   22.6660 N.3    12  VAL12      -0.1231
      2  CA        86.5710   42.4750   23.5570 C.3    12  VAL12       0.1692
      3  C         86.3900   43.8950   24.0740 C.2    12  VAL12       0.2591
      4  O         85.2670   44.4140   24.1330 O.2    12  VAL12      -0.2718
      5  CB        86.7200   41.4640   24.7090 C.3    12  VAL12       0.0266
      6  CG1       85.6330   41.6750   25.7460 C.3    12  VAL12       0.0020
      7  CG2       86.6680   40.0430   24.1740 C.3    12  VAL12       0.0020
      8  N         87.4940   44.5470   24.4480 N.am   13  VAL13      -0.1980
      9  CA        87.4290   45.9130   24.9610 C.3    13  VAL13       0.1595
     10  C         86.8890   46.8540   23.8940 C.2    13  VAL13       0.2287
     11  O         85.9840   47.6590   24.1480 O.2    13  VAL13      -0.2864
     12  CB        88.8140   46.3640   25.4570 C.3    13  VAL13       0.0276
     13  CG1       88.8120   47.8530   25.7480 C.3    13  VAL13       0.0022
     14  CG2       89.2170   45.5700   26.6910 C.3    13  VAL13       0.0022
     15  N         83.1350   46.2160   23.1960 N.3    16  LEU16      -0.1231
     16  CA        82.2430   46.6140   24.2800 C.3    16  LEU16       0.1693
     17  C         82.0940   48.1290   24.3640 C.2    16  LEU16       0.2592
     18  O         80.9880   48.6380   24.5800 O.2    16  LEU16      -0.2718
     19  CB        82.7600   46.0670   25.6130 C.3    16  LEU16       0.0284
     20  CG        82.3410   44.6520   26.0100 C.3    16  LEU16       0.0019
     21  CD1       83.0420   44.2280   27.2910 C.3    16  LEU16       0.0001
     22  CD2       80.8310   44.5750   26.1740 C.3    16  LEU16       0.0001
     23  N         83.1930   48.8590   24.1910 N.am   17  THR17      -0.1953
     24  CA        83.2640   50.2710   24.5260 C.3    17  THR17       0.1897
     25  C         83.1970   51.1920   23.3140 C.2    17  THR17       0.2313
     26  O         83.1410   52.4130   23.4910 O.2    17  THR17      -0.2863
     27  CB        84.5500   50.5440   25.3090 C.3    17  THR17       0.1794
     28  OG1       85.6780   50.2060   24.4960 O.3    17  THR17      -0.2208
     29  CG2       84.5960   49.6700   26.5580 C.3    17  THR17       0.0378
     30  N         79.1050   51.8270   23.4000 N.3    20  LEU20      -0.1245
     31  CA        78.7250   52.3750   24.6870 C.3    20  LEU20       0.1561
     32  C         79.4510   53.7060   24.8770 C.2    20  LEU20       0.2260
     33  O         80.6050   53.8540   24.4600 O.2    20  LEU20      -0.2867
     34  CB        79.0800   51.4120   25.8180 C.3    20  LEU20       0.0270
     35  CG        78.1080   50.2660   26.1360 C.3    20  LEU20       0.0019
     36  CD1       77.8120   49.3980   24.9180 C.3    20  LEU20       0.0001
     37  CD2       78.6390   49.4120   27.2780 C.3    20  LEU20       0.0001
     38  N         81.4850   55.2890   26.5970 N.3    22  VAL22      -0.1245
     39  CA        82.4740   55.1670   27.6650 C.3    22  VAL22       0.1561
     40  C         83.9080   55.2500   27.1460 C.2    22  VAL22       0.2260
     41  O         84.8490   54.9270   27.8800 O.2    22  VAL22      -0.2867
     42  CB        82.2710   53.8580   28.4500 C.3    22  VAL22       0.0252
     43  CG1       80.9110   53.8320   29.1300 C.3    22  VAL22       0.0019
     44  CG2       82.4360   52.6670   27.5260 C.3    22  VAL22       0.0019
     45  N         89.5900   53.1810   27.4470 N.3    27  HIS27      -0.1241
     46  CA        89.8080   51.8060   27.8830 C.3    27  HIS27       0.1621
     47  C         91.0270   51.1990   27.2040 C.2    27  HIS27       0.2264
     48  O         91.7510   50.4040   27.8130 O.2    27  HIS27      -0.2867
     49  CB        88.5730   50.9540   27.6000 C.3    27  HIS27       0.0745
     50  CG        87.4150   51.2520   28.4940 C.ar   27  HIS27       0.0817
     51  ND1       86.6400   52.3840   28.3600 N.ar   27  HIS27      -0.2268
     52  CD2       86.8970   50.5640   29.5380 C.ar   27  HIS27       0.1154
     53  CE1       85.6930   52.3790   29.2800 C.ar   27  HIS27       0.1986
     54  NE2       85.8270   51.2850   30.0080 N.ar   27  HIS27      -0.2212
     55  N         94.1480   49.2810   29.0520 N.3    31  VAL31      -0.1245
     56  CA        94.3580   47.8450   28.8900 C.3    31  VAL31       0.1561
     57  C         95.6360   47.5780   28.1060 C.2    31  VAL31       0.2260
     58  O         96.4270   46.6950   28.4590 O.2    31  VAL31      -0.2867
     59  CB        93.1350   47.1980   28.2170 C.3    31  VAL31       0.0252
     60  CG1       93.3640   45.7060   28.0350 C.3    31  VAL31       0.0019
     61  CG2       91.8840   47.4550   29.0440 C.3    31  VAL31       0.0019
     62  N         68.8150   47.7090   26.3380 N.3   245  LEU245     -0.1245
     63  CA        68.9820   48.2200   27.6940 C.3   245  LEU245      0.1561
     64  C         68.6040   49.6940   27.8000 C.2   245  LEU245      0.2260
     65  O         67.9130   50.0950   28.7440 O.2   245  LEU245     -0.2867
     66  CB        70.4300   48.0100   28.1350 C.3   245  LEU245      0.0270
     67  CG        70.8470   48.3210   29.5710 C.3   245  LEU245      0.0019
     68  CD1       70.2480   47.3180   30.5420 C.3   245  LEU245      0.0001
     69  CD2       72.3640   48.3380   29.6800 C.3   245  LEU245      0.0001
     70  N         65.3910   51.1570   28.9980 N.3   248  ARG248     -0.1231
     71  CA        64.9750   50.9680   30.3780 C.3   248  ARG248      0.1694
     72  C         65.8210   51.7100   31.4010 C.2   248  ARG248      0.2591
     73  O         65.3350   51.9440   32.5120 O.2   248  ARG248     -0.2718
     74  CB        64.9740   49.4720   30.7330 C.3   248  ARG248      0.0321
     75  CG        63.9540   48.6650   29.9500 C.3   248  ARG248      0.0489
     76  CD        64.5240   47.3310   29.4940 C.3   248  ARG248      0.2205
     77  NE        64.7830   46.4260   30.6080 N.pl3 248  ARG248     -0.0865
     78  CZ        65.2590   45.1930   30.4680 C.cat 248  ARG248      0.5346
     79  NH1       65.5270   44.7220   29.2580 N.pl3 248  ARG248      0.1354
     80  NH2       65.4650   44.4310   31.5340 N.pl3 248  ARG248      0.1354
     81  N         67.0590   52.0850   31.0730 N.am  249  ILE249     -0.1980
     82  CA        67.9190   52.8210   31.9910 C.3   249  ILE249      0.1595
     83  C         68.4140   54.0880   31.3050 C.2   249  ILE249      0.2287
     84  O         68.2900   54.2620   30.0920 O.2   249  ILE249     -0.2864
     85  CB        69.1150   51.9840   32.4920 C.3   249  ILE249      0.0276
     86  CG1       70.1120   51.7290   31.3590 C.3   249  ILE249      0.0022
     87  CG2       68.6380   50.6720   33.1040 C.3   249  ILE249      0.0022
     88  CD1       71.4530   51.2140   31.8450 C.3   249  ILE249      0.0001
     89  N         74.3760   55.8860   34.9300 N.3   253  PRO253     -0.2102
     90  CA        75.3850   54.8790   35.3000 C.3   253  PRO253      0.1504
     91  C         76.5900   54.8660   34.3760 C.2   253  PRO253      0.2575
     92  O         77.7020   54.5850   34.8410 O.2   253  PRO253     -0.2718
     93  CB        74.6060   53.5560   35.2450 C.3   253  PRO253      0.0282
     94  CG        73.4390   53.8310   34.3730 C.3   253  PRO253      0.0208
     95  CD        73.0770   55.2570   34.6230 C.3   253  PRO253      0.0893
     96  N         76.4120   55.1650   33.0840 N.am  254  PHE254     -0.1977
     97  CA        77.5650   55.2660   32.1920 C.3   254  PHE254      0.1639
     98  C         78.4290   56.4670   32.5520 C.2   254  PHE254      0.2290
     99  O         79.6610   56.3920   32.4970 O.2   254  PHE254     -0.2864
    100  CB        77.1150   55.3630   30.7320 C.3   254  PHE254      0.0560
    101  CG        76.3310   54.1750   30.2550 C.ar  254  PHE254     -0.0200
    102  CD1       74.9460   54.1690   30.3110 C.ar  254  PHE254     -0.0042
    103  CD2       76.9760   53.0650   29.7470 C.ar  254  PHE254     -0.0042
    104  CE1       74.2230   53.0760   29.8710 C.ar  254  PHE254     -0.0003
    105  CE2       76.2570   51.9680   29.3060 C.ar  254  PHE254     -0.0003
    106  CZ        74.8800   51.9740   29.3680 C.ar  254  PHE254     -0.0000
    107  N         80.3640   55.5370   35.6320 N.3   257  TYR257     -0.1241
    108  CA        81.4030   54.5910   35.2410 C.3   257  TYR257      0.1605
    109  C         82.5990   55.3010   34.6200 C.2   257  TYR257      0.2264
    110  O         83.7530   54.9300   34.8660 O.2   257  TYR257     -0.2867
    111  CB        80.8380   53.5590   34.2660 C.3   257  TYR257      0.0534
    112  CG        81.8950   52.6430   33.7000 C.ar  257  TYR257     -0.0201
    113  CD1       82.2910   52.7410   32.3720 C.ar  257  TYR257     -0.0009
    114  CD2       82.5160   51.6950   34.5020 C.ar  257  TYR257     -0.0009
    115  CE1       83.2650   51.9050   31.8560 C.ar  257  TYR257      0.0417
    116  CE2       83.4890   50.8580   33.9980 C.ar  257  TYR257      0.0417
    117  CZ        83.8620   50.9660   32.6760 C.ar  257  TYR257      0.1957
    118  OH        84.8330   50.1320   32.1690 O.3   257  TYR257     -0.2866
@<TRIPOS>BOND
     1     1     2    1
     2    15    16    1
     3    25    26    2
     4    25    24    1
     5    30    31    1
     6     2     3    1
     7     2     5    1
     8    10    11    2
     9    10     9    1
    10     3     4    2
    11     3     8   am
    12     7     5    1
    13    23    17   am
    14    23    24    1
    15    16    17    1
    16    16    19    1
    17    17    18    2
    18     8     9    1
    19    33    32    2
    20    28    27    1
    21    24    27    1
    22    31    32    1
    23    31    34    1
    24     5     6    1
    25    36    35    1
    26     9    12    1
    27    27    29    1
    28    12    13    1
    29    12    14    1
    30    19    20    1
    31    34    35    1
    32    20    22    1
    33    20    21    1
    34    35    37    1
    35    62    63    1
    36    38    39    1
    37    40    39    1
    38    40    41    2
    39    47    48    2
    40    47    46    1
    41    45    46    1
    42    44    42    1
    43    49    46    1
    44    49    50    1
    45    39    42    1
    46    63    64    1
    47    63    66    1
    48    64    65    2
    49    60    59    1
    50    57    58    2
    51    57    56    1
    52    66    67    1
    53    59    56    1
    54    59    61    1
    55    51    50   ar
    56    51    53   ar
    57    42    43    1
    58    50    52   ar
    59    56    55    1
    60    70    71    1
    61    79    78    1
    62    53    54   ar
    63   105   106   ar
    64   105   103   ar
    65   106   104   ar
    66    76    75    1
    67    76    77    1
    68    52    54   ar
    69    67    69    1
    70    67    68    1
    71   103   101   ar
    72   104   102   ar
    73    75    74    1
    74    84    83    2
    75   101   102   ar
    76   101   100    1
    77    71    74    1
    78    71    72    1
    79    78    77    2
    80    78    80    1
    81   100    97    1
    82    81    72   am
    83    81    82    1
    84    83    82    1
    85    86    88    1
    86    86    85    1
    87    72    73    2
    88   115   113   ar
    89   115   117   ar
    90    82    85    1
    91   118   117    1
    92    97    98    1
    93    97    96    1
    94   113   112   ar
    95    85    87    1
    96    99    98    2
    97   117   116   ar
    98    96    91   am
    99   112   111    1
   100   112   114   ar
   101   116   114   ar
   102   111   108    1
   103    94    95    1
   104    94    93    1
   105    91    92    2
   106    91    90    1
   107   109   110    2
   108   109   108    1
   109    95    89    1
   110    89    90    1
   111   108   107    1
   112    93    90    1
