@<TRIPOS>MOLECULE
tmp/6fmxA03.pdb
 117 109 0 0 0
SMALL
GASTEIGER

@<TRIPOS>ATOM
      1  N         28.3450   23.6950   33.7560 N.3    80  LEU80      -0.1245
      2  CA        27.0870   23.0740   33.3610 C.3    80  LEU80       0.1561
      3  C         26.4540   23.8230   32.1970 C.2    80  LEU80       0.2260
      4  O         25.9100   23.2070   31.2750 O.2    80  LEU80      -0.2867
      5  CB        26.1230   23.0430   34.5450 C.3    80  LEU80       0.0270
      6  CG        25.8270   21.7490   35.2940 C.3    80  LEU80       0.0019
      7  CD1       27.1010   21.1050   35.8240 C.3    80  LEU80       0.0001
      8  CD2       24.8640   22.0470   36.4390 C.3    80  LEU80       0.0001
      9  N         28.0160   25.6030   29.8780 N.3    82  LEU82      -0.1231
     10  CA        28.7700   25.2980   28.6620 C.3    82  LEU82       0.1693
     11  C         28.4590   23.8970   28.1550 C.2    82  LEU82       0.2592
     12  O         28.3690   23.6700   26.9420 O.2    82  LEU82      -0.2718
     13  CB        30.2720   25.4390   28.9120 C.3    82  LEU82       0.0284
     14  CG        30.8780   26.8430   28.9670 C.3    82  LEU82       0.0019
     15  CD1       32.3630   26.7610   29.2720 C.3    82  LEU82       0.0001
     16  CD2       30.6630   27.5600   27.6540 C.3    82  LEU82       0.0001
     17  N         28.3020   22.9440   29.0720 N.am   83  LEU83      -0.1966
     18  CA        28.0160   21.5690   28.6820 C.3    83  LEU83       0.1728
     19  C         26.6780   21.4660   27.9660 C.2    83  LEU83       0.2616
     20  O         26.5660   20.8190   26.9200 O.2    83  LEU83      -0.2715
     21  CB        28.0340   20.6640   29.9130 C.3    83  LEU83       0.0311
     22  CG        29.3930   20.0590   30.2450 C.3    83  LEU83       0.0022
     23  CD1       29.4490   19.5130   31.6660 C.3    83  LEU83       0.0001
     24  CD2       29.7310   18.9770   29.2340 C.3    83  LEU83       0.0001
     25  N         25.6350   22.0750   28.5370 N.am   84  VAL84      -0.1977
     26  CA        24.3260   21.9740   27.9070 C.3    84  VAL84       0.1596
     27  C         24.3240   22.7230   26.5810 C.2    84  VAL84       0.2287
     28  O         23.6570   22.3030   25.6260 O.2    84  VAL84      -0.2864
     29  CB        23.2120   22.4660   28.8550 C.3    84  VAL84       0.0276
     30  CG1       23.2770   23.9670   29.0560 C.3    84  VAL84       0.0022
     31  CG2       21.8410   22.0560   28.3160 C.3    84  VAL84       0.0022
     32  N         27.0290   23.0370   24.5370 N.3    86  GLY86      -0.1210
     33  CA        27.7230   22.1650   23.6060 C.3    86  GLY86       0.1956
     34  C         26.8720   20.9850   23.1860 C.2    86  GLY86       0.2612
     35  O         26.8290   20.6240   22.0080 O.2    86  GLY86      -0.2717
     36  N         26.1770   20.3700   24.1500 N.am   87  THR87      -0.1952
     37  CA        25.2140   19.3200   23.8310 C.3    87  THR87       0.1897
     38  C         24.1950   19.8240   22.8240 C.2    87  THR87       0.2313
     39  O         23.8470   19.1340   21.8600 O.2    87  THR87      -0.2863
     40  CB        24.5000   18.8640   25.1050 C.3    87  THR87       0.1794
     41  OG1       25.4570   18.3450   26.0350 O.3    87  THR87      -0.2208
     42  CG2       23.4560   17.7960   24.7900 C.3    87  THR87       0.0378
     43  N         24.4380   22.3150   20.6070 N.3    89  ARG89      -0.1231
     44  CA        24.9900   22.5210   19.2750 C.3    89  ARG89       0.1694
     45  C         25.2560   21.1920   18.5870 C.2    89  ARG89       0.2591
     46  O         25.0230   21.0510   17.3780 O.2    89  ARG89      -0.2718
     47  CB        26.2690   23.3470   19.3710 C.3    89  ARG89       0.0321
     48  CG        26.0490   24.7350   19.9320 C.3    89  ARG89       0.0489
     49  CD        25.1500   25.5350   19.0150 C.3    89  ARG89       0.2205
     50  NE        25.7430   25.6740   17.6910 N.pl3  89  ARG89      -0.0865
     51  CZ        25.0550   25.9110   16.5810 C.cat  89  ARG89       0.5346
     52  NH1       23.7330   26.0400   16.6260 N.pl3  89  ARG89       0.1354
     53  NH2       25.6960   26.0210   15.4240 N.pl3  89  ARG89       0.1354
     54  N         25.7370   20.2040   19.3440 N.am   90  LEU90      -0.1980
     55  CA        26.0090   18.8950   18.7640 C.3    90  LEU90       0.1596
     56  C         24.7280   18.2310   18.2730 C.2    90  LEU90       0.2287
     57  O         24.6940   17.6690   17.1720 O.2    90  LEU90      -0.2864
     58  CB        26.7150   18.0050   19.7880 C.3    90  LEU90       0.0297
     59  CG        27.1330   16.6120   19.3130 C.3    90  LEU90       0.0022
     60  CD1       27.8690   16.6970   17.9850 C.3    90  LEU90       0.0001
     61  CD2       27.9890   15.9060   20.3620 C.3    90  LEU90       0.0001
     62  N         23.3370   19.9030   15.0820 N.3    93  LYS93      -0.1245
     63  CA        24.1240   19.5560   13.9020 C.3    93  LYS93       0.1561
     64  C         23.8140   18.1440   13.4210 C.2    93  LYS93       0.2260
     65  O         23.6410   17.9130   12.2160 O.2    93  LYS93      -0.2867
     66  CB        25.6140   19.7050   14.2140 C.3    93  LYS93       0.0271
     67  CG        26.5340   18.9870   13.2450 C.3    93  LYS93       0.0035
     68  CD        27.9530   19.5340   13.3380 C.3    93  LYS93       0.0206
     69  CE        28.9190   18.7430   12.4570 C.3    93  LYS93       0.1093
     70  NZ        29.0750   17.3260   12.8960 N.3    93  LYS93      -0.1314
     71  N         16.4240   20.3790   26.5850 N.3   186  LEU186     -0.1245
     72  CA        17.7430   20.3750   27.2140 C.3   186  LEU186      0.1561
     73  C         17.7770   21.2540   28.4540 C.2   186  LEU186      0.2260
     74  O         18.4500   20.9120   29.4360 O.2   186  LEU186     -0.2867
     75  CB        18.8070   20.8240   26.2150 C.3   186  LEU186      0.0270
     76  CG        19.0160   19.8150   25.0830 C.3   186  LEU186      0.0019
     77  CD1       19.9210   20.3730   23.9960 C.3   186  LEU186      0.0001
     78  CD2       19.6000   18.5420   25.6540 C.3   186  LEU186      0.0001
     79  N         16.1470   19.3190   31.2390 N.3   189  LEU189     -0.1231
     80  CA        17.0260   18.2420   31.6840 C.3   189  LEU189      0.1693
     81  C         18.1110   18.7560   32.6230 C.2   189  LEU189      0.2591
     82  O         18.3660   18.1530   33.6750 O.2   189  LEU189     -0.2718
     83  CB        17.6570   17.5380   30.4870 C.3   189  LEU189      0.0284
     84  CG        16.7610   16.5950   29.6830 C.3   189  LEU189      0.0019
     85  CD1       17.5800   15.9550   28.5800 C.3   189  LEU189      0.0001
     86  CD2       16.1580   15.5210   30.5830 C.3   189  LEU189      0.0001
     87  N         18.7650   19.8620   32.2590 N.am  190  VAL190     -0.1980
     88  CA        19.8590   20.3670   33.0810 C.3   190  VAL190      0.1595
     89  C         19.3220   21.0100   34.3600 C.2   190  VAL190      0.2287
     90  O         19.9570   20.9100   35.4160 O.2   190  VAL190     -0.2864
     91  CB        20.7540   21.3280   32.2700 C.3   190  VAL190      0.0276
     92  CG1       20.0340   22.6260   31.9300 C.3   190  VAL190      0.0022
     93  CG2       22.0570   21.6080   33.0120 C.3   190  VAL190      0.0022
     94  N         16.4860   19.9530   35.9320 N.3   192  GLY192     -0.1210
     95  CA        16.1220   18.8150   36.7650 C.3   192  GLY192      0.1956
     96  C         17.3220   18.1460   37.4050 C.2   192  GLY192      0.2611
     97  O         17.2740   17.7430   38.5750 O.2   192  GLY192     -0.2717
     98  N         18.4170   18.0160   36.6500 N.am  193  PHE193     -0.1976
     99  CA        19.6470   17.4510   37.1920 C.3   193  PHE193      0.1639
    100  C         20.2060   18.3160   38.3150 C.2   193  PHE193      0.2290
    101  O         20.5330   17.8190   39.3960 O.2   193  PHE193     -0.2864
    102  CB        20.6780   17.3040   36.0780 C.3   193  PHE193      0.0560
    103  CG        22.0500   16.9100   36.5570 C.ar  193  PHE193     -0.0200
    104  CD1       22.3310   15.5950   36.8940 C.ar  193  PHE193     -0.0042
    105  CD2       23.0600   17.8520   36.6580 C.ar  193  PHE193     -0.0042
    106  CE1       23.5940   15.2290   37.3170 C.ar  193  PHE193     -0.0003
    107  CE2       24.3220   17.4950   37.0910 C.ar  193  PHE193     -0.0003
    108  CZ        24.5940   16.1840   37.4160 C.ar  193  PHE193     -0.0000
    109  N         18.1430   18.0530   41.3550 N.3   196  LYS196     -0.1245
    110  CA        18.1960   16.7190   41.9440 C.3   196  LYS196      0.1561
    111  C         19.4360   16.5390   42.8130 C.2   196  LYS196      0.2260
    112  O         19.3780   15.8890   43.8630 O.2   196  LYS196     -0.2867
    113  CB        18.1560   15.6640   40.8330 C.3   196  LYS196      0.0271
    114  CG        18.2120   14.2310   41.3250 C.3   196  LYS196      0.0035
    115  CD        17.1380   13.9420   42.3530 C.3   196  LYS196      0.0206
    116  CE        17.2710   12.5060   42.8760 C.3   196  LYS196      0.1093
    117  NZ        16.1440   12.1100   43.7720 N.3   196  LYS196     -0.1314
@<TRIPOS>BOND
     1    65    64    2
     2    69    70    1
     3    69    68    1
     4    67    68    1
     5    67    66    1
     6    64    63    1
     7    63    66    1
     8    63    62    1
     9    53    51    1
    10    51    52    1
    11    51    50    2
    12    57    56    2
    13    46    45    2
    14    50    49    1
    15    60    59    1
    16    56    55    1
    17    45    44    1
    18    45    54   am
    19    55    54    1
    20    55    58    1
    21    49    48    1
    22    44    47    1
    23    44    43    1
    24    59    58    1
    25    59    61    1
    26    47    48    1
    27    39    38    2
    28    35    34    2
    29    38    37    1
    30    34    33    1
    31    34    36   am
    32    33    32    1
    33    37    36    1
    34    37    40    1
    35    77    76    1
    36    42    40    1
    37    76    78    1
    38    76    75    1
    39    40    41    1
    40    28    27    2
    41    75    72    1
    42    27    26    1
    43    71    72    1
    44    20    19    2
    45    12    11    2
    46    72    73    1
    47    16    14    1
    48    26    25    1
    49    26    29    1
    50    19    25   am
    51    19    18    1
    52    11    10    1
    53    11    17   am
    54    31    29    1
    55    73    74    2
    56    85    84    1
    57    10    13    1
    58    10     9    1
    59    18    17    1
    60    18    21    1
    61    29    30    1
    62    13    14    1
    63    14    15    1
    64    24    22    1
    65    84    83    1
    66    84    86    1
    67    21    22    1
    68    22    23    1
    69    83    80    1
    70    79    80    1
    71     4     3    2
    72    80    81    1
    73    92    91    1
    74     3     2    1
    75    87    81   am
    76    87    88    1
    77    91    93    1
    78    91    88    1
    79    81    82    2
    80    88    89    1
    81     2     1    1
    82     2     5    1
    83    89    90    2
    84     5     6    1
    85     6     7    1
    86     6     8    1
    87    94    95    1
    88   102   103    1
    89   102    99    1
    90   103   105   ar
    91   103   104   ar
    92    98    99    1
    93    98    96   am
    94   105   107   ar
    95    95    96    1
    96   104   106   ar
    97   107   108   ar
    98    99   100    1
    99   106   108   ar
   100    96    97    2
   101   100   101    2
   102   113   114    1
   103   113   110    1
   104   114   115    1
   105   109   110    1
   106   110   111    1
   107   115   116    1
   108   111   112    2
   109   116   117    1
