@<TRIPOS>MOLECULE
tmp/6fmxA01.pdb
 100 93 0 0 0
SMALL
GASTEIGER

@<TRIPOS>ATOM
      1  N          6.9440   14.7870   32.7660 N.3     2  TYR2       -0.1241
      2  CA         5.9390   15.2440   31.8080 C.3     2  TYR2        0.1605
      3  C          6.5230   16.2090   30.7800 C.2     2  TYR2        0.2264
      4  O          6.3970   15.9880   29.5660 O.2     2  TYR2       -0.2867
      5  CB         4.7700   15.8920   32.5550 C.3     2  TYR2        0.0534
      6  CG         3.5130   16.0600   31.7260 C.ar    2  TYR2       -0.0201
      7  CD1        2.4210   15.2180   31.9070 C.ar    2  TYR2       -0.0009
      8  CD2        3.4110   17.0690   30.7750 C.ar    2  TYR2       -0.0009
      9  CE1        1.2650   15.3700   31.1540 C.ar    2  TYR2        0.0417
     10  CE2        2.2620   17.2250   30.0180 C.ar    2  TYR2        0.0417
     11  CZ         1.1930   16.3750   30.2110 C.ar    2  TYR2        0.1957
     12  OH         0.0520   16.5350   29.4570 O.3     2  TYR2       -0.2866
     13  N          7.0500   15.4290   26.7340 N.3     6  SER6       -0.1202
     14  CA         6.1050   16.0480   25.8100 C.3     6  SER6        0.2020
     15  C          6.8310   16.7990   24.7010 C.2     6  SER6        0.2618
     16  O          6.4390   16.7300   23.5300 O.2     6  SER6       -0.2717
     17  CB         5.1730   16.9900   26.5700 C.3     6  SER6        0.2103
     18  OG         4.4020   16.2810   27.5280 O.3     6  SER6       -0.2182
     19  N          7.8980   17.5200   25.0560 N.am    7  LEU7       -0.1979
     20  CA         8.6870   18.2360   24.0590 C.3     7  LEU7        0.1596
     21  C          9.3840   17.2750   23.1070 C.2     7  LEU7        0.2287
     22  O          9.4900   17.5450   21.9040 O.2     7  LEU7       -0.2864
     23  CB         9.7120   19.1290   24.7510 C.3     7  LEU7        0.0297
     24  CG         9.1300   20.2710   25.5760 C.3     7  LEU7        0.0022
     25  CD1       10.1510   20.7940   26.5720 C.3     7  LEU7        0.0001
     26  CD2        8.6720   21.3800   24.6490 C.3     7  LEU7        0.0001
     27  N          8.3380   14.2020   22.3140 N.3     9  LEU9       -0.1231
     28  CA         7.3040   13.6520   21.4460 C.3     9  LEU9        0.1693
     29  C          6.8370   14.6880   20.4290 C.2     9  LEU9        0.2592
     30  O          6.5510   14.3490   19.2760 O.2     9  LEU9       -0.2718
     31  CB         6.1310   13.1540   22.2870 C.3     9  LEU9        0.0284
     32  CG         6.4560   11.9040   23.1120 C.3     9  LEU9        0.0019
     33  CD1        5.2820   11.4920   23.9870 C.3     9  LEU9        0.0001
     34  CD2        6.8700   10.7660   22.2010 C.3     9  LEU9        0.0001
     35  N          6.7550   15.9550   20.8400 N.am   10  PHE10      -0.1976
     36  CA         6.3820   17.0060   19.9010 C.3    10  PHE10       0.1639
     37  C          7.4010   17.1200   18.7770 C.2    10  PHE10       0.2290
     38  O          7.0340   17.3420   17.6190 O.2    10  PHE10      -0.2864
     39  CB         6.2430   18.3450   20.6240 C.3    10  PHE10       0.0560
     40  CG         5.9910   19.5050   19.7000 C.ar   10  PHE10      -0.0200
     41  CD1        4.7410   19.7030   19.1360 C.ar   10  PHE10      -0.0042
     42  CD2        7.0090   20.3870   19.3820 C.ar   10  PHE10      -0.0042
     43  CE1        4.5090   20.7700   18.2820 C.ar   10  PHE10      -0.0003
     44  CE2        6.7790   21.4550   18.5310 C.ar   10  PHE10      -0.0003
     45  CZ         5.5260   21.6440   17.9780 C.ar   10  PHE10      -0.0000
     46  N          6.9240   14.2410   16.2200 N.3    13  ILE13      -0.1231
     47  CA         5.7460   14.4500   15.3940 C.3    13  ILE13       0.1692
     48  C          6.0250   15.5150   14.3400 C.2    13  ILE13       0.2591
     49  O          5.6500   15.3640   13.1710 O.2    13  ILE13      -0.2718
     50  CB         4.5450   14.7970   16.2890 C.3    13  ILE13       0.0266
     51  CG1        4.0460   13.5140   16.9580 C.3    13  ILE13       0.0019
     52  CG2        3.4390   15.4440   15.4870 C.3    13  ILE13       0.0020
     53  CD1        3.0770   13.7510   18.0740 C.3    13  ILE13       0.0001
     54  N          6.7270   16.5840   14.7270 N.am   14  LEU14      -0.1980
     55  CA         7.1150   17.6090   13.7590 C.3    14  LEU14       0.1596
     56  C          8.0920   17.0660   12.7210 C.2    14  LEU14       0.2287
     57  O          7.9680   17.3700   11.5260 O.2    14  LEU14      -0.2864
     58  CB         7.7320   18.8080   14.4780 C.3    14  LEU14       0.0297
     59  CG         6.8690   20.0450   14.6550 C.3    14  LEU14       0.0022
     60  CD1        7.7230   21.1710   15.2070 C.3    14  LEU14       0.0001
     61  CD2        6.2690   20.4320   13.3150 C.3    14  LEU14       0.0001
     62  N          5.9760   15.3810   10.3970 N.3    17  ALA17      -0.1245
     63  CA         4.9790   16.2050    9.7260 C.3    17  ALA17       0.1562
     64  C          5.5890   17.0540    8.6200 C.2    17  ALA17       0.2260
     65  O          4.9080   17.3500    7.6350 O.2    17  ALA17      -0.2867
     66  CB         4.2590   17.0970   10.7380 C.3    17  ALA17       0.0290
     67  N          5.0720   15.9560    5.0590 N.3    20  THR20      -0.1218
     68  CA         3.7720   16.0140    4.4210 C.3    20  THR20       0.1862
     69  C          3.6850   17.2710    3.5750 C.2    20  THR20       0.2287
     70  O          4.2090   18.3290    3.9340 O.2    20  THR20      -0.2866
     71  CB         2.6480   16.0030    5.4530 C.3    20  THR20       0.1770
     72  OG1        2.6470   17.2430    6.1710 O.3    20  THR20      -0.2211
     73  CG2        2.8630   14.8690    6.4300 C.3    20  THR20       0.0375
     74  N          1.0620   18.9600    3.0870 N.3    22  ALA22      -0.1231
     75  CA         0.1940   19.9180    3.7620 C.3    22  ALA22       0.1694
     76  C          0.9910   20.8520    4.6670 C.2    22  ALA22       0.2591
     77  O          0.7130   22.0570    4.7210 O.2    22  ALA22      -0.2718
     78  CB        -0.8830   19.1730    4.5550 C.3    22  ALA22       0.0304
     79  N          1.9920   20.3220    5.3760 N.am   23  VAL23      -0.1980
     80  CA         2.8000   21.1660    6.2540 C.3    23  VAL23       0.1595
     81  C          3.7900   21.9910    5.4370 C.2    23  VAL23       0.2287
     82  O          4.0220   23.1720    5.7190 O.2    23  VAL23      -0.2864
     83  CB         3.5160   20.3200    7.3230 C.3    23  VAL23       0.0276
     84  CG1        4.5000   21.1830    8.1120 C.3    23  VAL23       0.0022
     85  CG2        2.5010   19.6920    8.2640 C.3    23  VAL23       0.0022
     86  N          8.2090   25.6500   11.1700 N.3   174  THR174     -0.1218
     87  CA         8.3920   24.3410   11.7930 C.3   174  THR174      0.1862
     88  C          9.8440   24.0860   12.1770 C.2   174  THR174      0.2287
     89  O         10.0990   23.3730   13.1580 O.2   174  THR174     -0.2866
     90  CB         7.8840   23.2290   10.8730 C.3   174  THR174      0.1770
     91  OG1        8.4380   23.4020    9.5630 O.3   174  THR174     -0.2211
     92  CG2        6.3650   23.2580   10.8050 C.3   174  THR174      0.0375
     93  N          9.9080   25.8540   15.5890 N.3   177  LEU177     -0.1245
     94  CA         9.2330   25.0810   16.6270 C.3   177  LEU177      0.1561
     95  C         10.0240   23.8260   16.9810 C.2   177  LEU177      0.2260
     96  O         10.1120   23.4550   18.1560 O.2   177  LEU177     -0.2867
     97  CB         7.8130   24.7170   16.1830 C.3   177  LEU177      0.0270
     98  CG         6.7980   25.8290   15.9190 C.3   177  LEU177      0.0019
     99  CD1        5.4990   25.2450   15.3950 C.3   177  LEU177      0.0001
    100  CD2        6.5370   26.6280   17.1650 C.3   177  LEU177      0.0001
@<TRIPOS>BOND
     1    74    75    1
     2    69    70    2
     3    69    68    1
     4    75    78    1
     5    75    76    1
     6    68    67    1
     7    68    71    1
     8    76    77    2
     9    76    79   am
    10    79    80    1
    11    81    82    2
    12    81    80    1
    13    71    72    1
    14    71    73    1
    15    80    83    1
    16    83    84    1
    17    83    85    1
    18    65    64    2
    19    64    63    1
    20    91    90    1
    21    63    62    1
    22    63    66    1
    23    92    90    1
    24    90    87    1
    25    86    87    1
    26    57    56    2
    27    87    88    1
    28    88    89    2
    29    56    55    1
    30    49    48    2
    31    61    59    1
    32    55    58    1
    33    55    54    1
    34    48    54   am
    35    48    47    1
    36    58    59    1
    37    59    60    1
    38    47    46    1
    39    47    50    1
    40    99    98    1
    41    52    50    1
    42    93    94    1
    43    98    97    1
    44    98   100    1
    45    97    94    1
    46    50    51    1
    47    94    95    1
    48    51    53    1
    49    95    96    2
    50    38    37    2
    51    45    43   ar
    52    45    44   ar
    53    43    41   ar
    54    44    42   ar
    55    37    36    1
    56    41    40   ar
    57    30    29    2
    58    42    40   ar
    59    40    39    1
    60    36    39    1
    61    36    35    1
    62    29    35   am
    63    29    28    1
    64    28    31    1
    65    28    27    1
    66    22    21    2
    67    34    32    1
    68    31    32    1
    69    21    20    1
    70    32    33    1
    71    16    15    2
    72    20    23    1
    73    20    19    1
    74    26    24    1
    75    15    19   am
    76    15    14    1
    77    23    24    1
    78    24    25    1
    79    14    17    1
    80    14    13    1
    81    17    18    1
    82    12    11    1
    83     4     3    2
    84    10    11   ar
    85    10     8   ar
    86    11     9   ar
    87     8     6   ar
    88     3     2    1
    89     9     7   ar
    90     6     7   ar
    91     6     5    1
    92     2     5    1
    93     2     1    1
