@<TRIPOS>MOLECULE
tmp/6fmxA00.pdb
 109 105 0 0 0
SMALL
GASTEIGER

@<TRIPOS>ATOM
      1  N         20.8220   37.9980   16.2540 N.3    51  HIS51      -0.1241
      2  CA        22.1650   37.7590   16.7700 C.3    51  HIS51       0.1621
      3  C         22.1360   37.2490   18.2050 C.2    51  HIS51       0.2264
      4  O         23.0820   36.5830   18.6370 O.2    51  HIS51      -0.2867
      5  CB        23.0010   39.0390   16.6720 C.3    51  HIS51       0.0745
      6  CG        24.4600   38.8360   16.9540 C.ar   51  HIS51       0.0817
      7  ND1       25.2610   38.0160   16.1870 N.ar   51  HIS51      -0.2268
      8  CD2       25.2610   39.3450   17.9200 C.ar   51  HIS51       0.1154
      9  CE1       26.4910   38.0280   16.6690 C.ar   51  HIS51       0.1986
     10  NE2       26.5180   38.8280   17.7200 N.ar   51  HIS51      -0.2212
     11  N         27.8500   32.2640   17.9730 N.3    56  SER56      -0.1202
     12  CA        28.9980   33.1430   18.1420 C.3    56  SER56       0.2020
     13  C         28.7570   34.2140   19.1940 C.2    56  SER56       0.2618
     14  O         29.7240   34.7500   19.7450 O.2    56  SER56      -0.2717
     15  CB        29.3660   33.7980   16.8130 C.3    56  SER56       0.2103
     16  OG        28.4510   34.8350   16.5030 O.3    56  SER56      -0.2182
     17  N         27.5000   34.5420   19.4770 N.am   57  PHE57      -0.1975
     18  CA        27.1770   35.4490   20.5690 C.3    57  PHE57       0.1639
     19  C         27.0030   34.7130   21.8890 C.2    57  PHE57       0.2290
     20  O         27.4530   35.2010   22.9310 O.2    57  PHE57      -0.2864
     21  CB        25.8930   36.2160   20.2450 C.3    57  PHE57       0.0560
     22  CG        25.3530   37.0300   21.3880 C.ar   57  PHE57      -0.0200
     23  CD1       25.9340   38.2420   21.7290 C.ar   57  PHE57      -0.0042
     24  CD2       24.2440   36.6030   22.0970 C.ar   57  PHE57      -0.0042
     25  CE1       25.4250   39.0050   22.7750 C.ar   57  PHE57      -0.0003
     26  CE2       23.7340   37.3520   23.1350 C.ar   57  PHE57      -0.0003
     27  CZ        24.3220   38.5590   23.4780 C.ar   57  PHE57      -0.0000
     28  N         30.4680   33.4050   24.0480 N.3    60  PRO60      -0.2102
     29  CA        31.0560   34.4030   24.9640 C.3    60  PRO60       0.1504
     30  C         30.1010   34.8540   26.0480 C.2    60  PRO60       0.2575
     31  O         30.5540   35.1710   27.1560 O.2    60  PRO60      -0.2718
     32  CB        31.4380   35.5670   24.0320 C.3    60  PRO60       0.0282
     33  CG        30.6830   35.3340   22.7760 C.3    60  PRO60       0.0208
     34  CD        30.5350   33.8550   22.6500 C.3    60  PRO60       0.0893
     35  N         28.7950   34.9000   25.7720 N.am   61  LEU61      -0.1980
     36  CA        27.8430   35.2800   26.8110 C.3    61  LEU61       0.1596
     37  C         27.8600   34.2780   27.9600 C.2    61  LEU61       0.2287
     38  O         27.9210   34.6620   29.1320 O.2    61  LEU61      -0.2864
     39  CB        26.4340   35.3960   26.2340 C.3    61  LEU61       0.0297
     40  CG        25.3830   35.7930   27.2820 C.3    61  LEU61       0.0022
     41  CD1       25.7000   37.1360   27.9200 C.3    61  LEU61       0.0001
     42  CD2       23.9780   35.7950   26.6910 C.3    61  LEU61       0.0001
     43  N         31.0120   34.5970   29.9600 N.3    64  ILE64      -0.1231
     44  CA        31.0180   35.8120   30.7740 C.3    64  ILE64       0.1692
     45  C         30.1420   35.6440   32.0070 C.2    64  ILE64       0.2591
     46  O         30.5320   36.0060   33.1250 O.2    64  ILE64      -0.2718
     47  CB        30.5580   37.0230   29.9450 C.3    64  ILE64       0.0266
     48  CG1       31.6520   37.4690   28.9740 C.3    64  ILE64       0.0019
     49  CG2       30.1420   38.1550   30.8780 C.3    64  ILE64       0.0020
     50  CD1       31.1180   38.2880   27.7960 C.3    64  ILE64       0.0001
     51  N         28.9270   35.1320   31.8160 N.am   65  ILE65      -0.1980
     52  CA        28.0180   34.9510   32.9400 C.3    65  ILE65       0.1595
     53  C         28.5850   33.9200   33.9070 C.2    65  ILE65       0.2287
     54  O         28.5550   34.1080   35.1270 O.2    65  ILE65      -0.2864
     55  CB        26.6170   34.5660   32.4360 C.3    65  ILE65       0.0276
     56  CG1       26.0310   35.7270   31.6190 C.3    65  ILE65       0.0022
     57  CG2       25.7050   34.1950   33.5950 C.3    65  ILE65       0.0022
     58  CD1       24.6540   35.4650   31.0710 C.3    65  ILE65       0.0001
     59  N         31.3420   35.5170   35.8240 N.3    68  GLY68      -0.1210
     60  CA        30.7320   36.3760   36.8240 C.3    68  GLY68       0.1956
     61  C         30.2110   35.5970   38.0180 C.2    68  GLY68       0.2611
     62  O         30.4370   35.9760   39.1700 O.2    68  GLY68      -0.2717
     63  N         29.5120   34.4900   37.7610 N.am   69  MET69      -0.1979
     64  CA        28.9640   33.7100   38.8640 C.3    69  MET69       0.1605
     65  C         30.0710   33.0850   39.6960 C.2    69  MET69       0.2287
     66  O         29.9200   32.9250   40.9120 O.2    69  MET69      -0.2864
     67  CB        28.0180   32.6320   38.3350 C.3    69  MET69       0.0413
     68  CG        26.7770   33.1880   37.6580 C.3    69  MET69       0.0598
     69  SD        25.6490   31.8900   37.1250 S.3    69  MET69      -0.1393
     70  CE        26.7670   30.7880   36.2650 C.3    69  MET69       0.0692
     71  N         31.3850   35.8640   41.9420 N.3    72  TYR72      -0.1241
     72  CA        30.3830   36.3380   42.8880 C.3    72  TYR72       0.1605
     73  C         30.0810   35.2950   43.9590 C.2    72  TYR72       0.2264
     74  O         29.9940   35.6240   45.1490 O.2    72  TYR72      -0.2867
     75  CB        29.1120   36.7360   42.1350 C.3    72  TYR72       0.0534
     76  CG        28.0790   37.4210   42.9950 C.ar   72  TYR72      -0.0201
     77  CD1       28.3120   38.6850   43.5250 C.ar   72  TYR72      -0.0009
     78  CD2       26.8620   36.8140   43.2630 C.ar   72  TYR72      -0.0009
     79  CE1       27.3610   39.3180   44.3120 C.ar   72  TYR72       0.0417
     80  CE2       25.9070   37.4340   44.0460 C.ar   72  TYR72       0.0417
     81  CZ        26.1600   38.6850   44.5670 C.ar   72  TYR72       0.1957
     82  OH        25.2060   39.3030   45.3420 O.3    72  TYR72      -0.2866
     83  N         20.9040   32.3600   37.0980 N.3   136  LEU136     -0.1245
     84  CA        20.8900   33.6940   37.6960 C.3   136  LEU136      0.1561
     85  C         19.9860   33.7360   38.9210 C.2   136  LEU136      0.2260
     86  O         20.3760   34.2600   39.9700 O.2   136  LEU136     -0.2867
     87  CB        20.4490   34.7440   36.6770 C.3   136  LEU136      0.0270
     88  CG        21.4200   35.0680   35.5320 C.3   136  LEU136      0.0019
     89  CD1       20.8380   36.1780   34.6620 C.3   136  LEU136      0.0001
     90  CD2       22.8250   35.4210   36.0420 C.3   136  LEU136      0.0001
     91  N         21.7830   34.6610   42.3540 N.3   140  LEU140     -0.1245
     92  CA        21.7070   36.0950   42.6210 C.3   140  LEU140      0.1561
     93  C         20.5340   36.3710   43.5510 C.2   140  LEU140      0.2260
     94  O         19.3850   36.4710   43.0910 O.2   140  LEU140     -0.2867
     95  CB        21.5680   36.8940   41.3240 C.3   140  LEU140      0.0270
     96  CG        22.8230   37.2920   40.5360 C.3   140  LEU140      0.0019
     97  CD1       23.9030   36.2230   40.5270 C.3   140  LEU140      0.0001
     98  CD2       22.4500   37.6800   39.1120 C.3   140  LEU140      0.0001
     99  N         19.4210   38.9790   44.8520 N.3   142  PHE142     -0.1241
    100  CA        18.6510   40.1690   44.5070 C.3   142  PHE142      0.1605
    101  C         17.6740   39.9250   43.3660 C.2   142  PHE142      0.2264
    102  O         16.8490   40.7980   43.0880 O.2   142  PHE142     -0.2867
    103  CB        19.5910   41.3400   44.1750 C.3   142  PHE142      0.0534
    104  CG        20.2420   41.2670   42.8130 C.ar  142  PHE142     -0.0203
    105  CD1       19.5690   41.6710   41.6680 C.ar  142  PHE142     -0.0042
    106  CD2       21.5490   40.8300   42.6880 C.ar  142  PHE142     -0.0042
    107  CE1       20.1770   41.6150   40.4340 C.ar  142  PHE142     -0.0003
    108  CE2       22.1620   40.7720   41.4530 C.ar  142  PHE142     -0.0003
    109  CZ        21.4780   41.1640   40.3250 C.ar  142  PHE142     -0.0000
@<TRIPOS>BOND
     1     7     9   ar
     2     7     6   ar
     3     1     2    1
     4    16    15    1
     5     9    10   ar
     6     5     2    1
     7     5     6    1
     8     2     3    1
     9    15    12    1
    10     6     8   ar
    11    10     8   ar
    12    11    12    1
    13    12    13    1
    14     3     4    2
    15    13    17   am
    16    13    14    2
    17    17    18    1
    18    21    18    1
    19    21    22    1
    20    18    19    1
    21    22    23   ar
    22    22    24   ar
    23    23    25   ar
    24    19    20    2
    25    24    26   ar
    26    34    33    1
    27    34    28    1
    28    25    27   ar
    29    33    32    1
    30    26    27   ar
    31    32    29    1
    32    28    29    1
    33    29    30    1
    34    35    30   am
    35    35    36    1
    36    30    31    2
    37    39    36    1
    38    39    40    1
    39    42    40    1
    40    36    37    1
    41    40    41    1
    42    50    48    1
    43    37    38    2
    44    48    47    1
    45    47    44    1
    46    47    49    1
    47    43    44    1
    48    44    45    1
    49    58    56    1
    50    56    55    1
    51    51    45   am
    52    51    52    1
    53    45    46    2
    54    55    52    1
    55    55    57    1
    56    52    53    1
    57    53    54    2
    58    89    88    1
    59    88    90    1
    60    88    87    1
    61    59    60    1
    62    70    69    1
    63    87    84    1
    64    60    61    1
    65    83    84    1
    66    69    68    1
    67    68    67    1
    68    84    85    1
    69    63    61   am
    70    63    64    1
    71    61    62    2
    72    67    64    1
    73    64    65    1
    74    85    86    2
    75    98    96    1
    76    65    66    2
    77   109   107   ar
    78   109   108   ar
    79   107   105   ar
    80    97    96    1
    81    96    95    1
    82    95    92    1
    83   108   106   ar
    84   105   104   ar
    85    71    72    1
    86    75    72    1
    87    75    76    1
    88    91    92    1
    89    92    93    1
    90   106   104   ar
    91   104   103    1
    92    72    73    1
    93    76    78   ar
    94    76    77   ar
    95   102   101    2
    96    94    93    2
    97    78    80   ar
    98   101   100    1
    99    77    79   ar
   100    73    74    2
   101    80    81   ar
   102   103   100    1
   103    79    81   ar
   104   100    99    1
   105    81    82    1
