@<TRIPOS>MOLECULE
tmp/6fmyA14.pdb
 103 102 0 0 0
SMALL
GASTEIGER

@<TRIPOS>ATOM
      1  N         12.3210   13.8440   19.0570 N.3    81  ARG81      -0.1231
      2  CA        12.0580   12.5940   18.3470 C.3    81  ARG81       0.1679
      3  C         10.9110   12.7380   17.3480 C.2    81  ARG81       0.2434
      4  O         10.9920   12.1730   16.2410 O.2    81  ARG81      -0.2733
      5  CB        11.7760   11.4550   19.3400 C.3    81  ARG81       0.0321
      6  CG        13.0350   10.8000   19.9020 C.3    81  ARG81       0.0489
      7  CD        12.7340    9.9510   21.1290 C.3    81  ARG81       0.2205
      8  NE        11.9240    8.7730   20.8260 N.pl3  81  ARG81      -0.0865
      9  CZ        11.5140    7.9050   21.7460 C.cat  81  ARG81       0.5346
     10  NH1       11.8370    8.0910   23.0180 N.pl3  81  ARG81       0.1354
     11  NH2       10.7780    6.8590   21.3980 N.pl3  81  ARG81       0.1354
     12  N          9.8220   13.4430   17.6800 N.am   82  PRO82      -0.2729
     13  CA         8.8110   13.7110   16.6400 C.3    82  PRO82       0.1401
     14  C          9.3120   14.5600   15.4830 C.2    82  PRO82       0.2269
     15  O          8.8590   14.3580   14.3510 O.2    82  PRO82      -0.2865
     16  CB         7.6970   14.4270   17.4200 C.3    82  PRO82       0.0296
     17  CG         7.8370   13.9060   18.7950 C.3    82  PRO82       0.0237
     18  CD         9.2980   13.7340   19.0300 C.3    82  PRO82       0.0939
     19  N         11.1430   12.1520   13.0800 N.3    85  PHE85      -0.1227
     20  CA        10.2020   11.2680   12.3980 C.3    85  PHE85       0.1736
     21  C          9.3980   12.0190   11.3430 C.2    85  PHE85       0.2595
     22  O          9.4130   11.6620   10.1600 O.2    85  PHE85      -0.2718
     23  CB         9.2620   10.6070   13.4090 C.3    85  PHE85       0.0547
     24  CG         8.1870    9.7690   12.7690 C.ar   85  PHE85      -0.0202
     25  CD1        8.4410    8.4570   12.4050 C.ar   85  PHE85      -0.0042
     26  CD2        6.9290   10.2960   12.5190 C.ar   85  PHE85      -0.0042
     27  CE1        7.4630    7.6870   11.8100 C.ar   85  PHE85      -0.0003
     28  CE2        5.9490    9.5310   11.9210 C.ar   85  PHE85      -0.0003
     29  CZ         6.2150    8.2230   11.5690 C.ar   85  PHE85      -0.0000
     30  N          8.6700   13.0600   11.7610 N.am   86  TRP86      -0.1976
     31  CA         7.8190   13.7770   10.8170 C.3    86  TRP86       0.1640
     32  C          8.6370   14.5310    9.7790 C.2    86  TRP86       0.2290
     33  O          8.1620   14.7480    8.6590 O.2    86  TRP86      -0.2864
     34  CB         6.8810   14.7250   11.5590 C.3    86  TRP86       0.0576
     35  CG         5.7620   13.9990   12.2170 C.ar   86  TRP86       0.0006
     36  CD1        5.5000   13.9350   13.5520 C.ar   86  TRP86       0.0946
     37  CD2        4.7640   13.1980   11.5710 C.ar   86  TRP86       0.0152
     38  NE1        4.3920   13.1560   13.7780 N.ar   86  TRP86      -0.2442
     39  CE2        3.9220   12.6910   12.5770 C.ar   86  TRP86       0.0810
     40  CE3        4.4980   12.8680   10.2370 C.ar   86  TRP86       0.0012
     41  CZ2        2.8330   11.8700   12.2950 C.ar   86  TRP86       0.0191
     42  CZ3        3.4170   12.0520    9.9580 C.ar   86  TRP86       0.0001
     43  CH2        2.5980   11.5630   10.9830 C.ar   86  TRP86       0.0015
     44  N          9.1640   11.8550    7.2100 N.3    89  VAL89      -0.1245
     45  CA         7.9610   11.6940    6.3960 C.3    89  VAL89       0.1561
     46  C          7.9330   12.7330    5.2820 C.2    89  VAL89       0.2260
     47  O          7.5990   12.4240    4.1320 O.2    89  VAL89      -0.2867
     48  CB         6.7030   11.7710    7.2830 C.3    89  VAL89       0.0252
     49  CG1        5.4510   11.9120    6.4340 C.3    89  VAL89       0.0019
     50  CG2        6.6110   10.5380    8.1680 C.3    89  VAL89       0.0019
     51  N         14.3670    3.9380   12.3720 N.3   189  TYR189     -0.1227
     52  CA        14.2790    4.9980   13.3730 C.3   189  TYR189      0.1736
     53  C         13.0930    4.7810   14.3030 C.2   189  TYR189      0.2595
     54  O         13.2260    4.8700   15.5290 O.2   189  TYR189     -0.2718
     55  CB        14.1820    6.3650   12.6970 C.3   189  TYR189      0.0548
     56  CG        13.8100    7.4670   13.6520 C.ar  189  TYR189     -0.0200
     57  CD1       14.7200    7.9290   14.5940 C.ar  189  TYR189     -0.0009
     58  CD2       12.5440    8.0390   13.6220 C.ar  189  TYR189     -0.0009
     59  CE1       14.3850    8.9320   15.4750 C.ar  189  TYR189      0.0417
     60  CE2       12.1990    9.0450   14.5000 C.ar  189  TYR189      0.0417
     61  CZ        13.1250    9.4860   15.4230 C.ar  189  TYR189      0.1957
     62  OH        12.7990   10.4850   16.3020 O.3   189  TYR189     -0.2866
     63  N         11.9170    4.5060   13.7350 N.am  190  TYR190     -0.1976
     64  CA        10.7290    4.3190   14.5570 C.3   190  TYR190      0.1639
     65  C         10.8910    3.1240   15.4910 C.2   190  TYR190      0.2290
     66  O         10.9460    3.2760   16.7180 O.2   190  TYR190     -0.2864
     67  CB         9.4930    4.1550   13.6720 C.3   190  TYR190      0.0560
     68  CG         8.2140    4.0570   14.4680 C.ar  190  TYR190     -0.0198
     69  CD1        7.4900    5.1960   14.8020 C.ar  190  TYR190     -0.0009
     70  CD2        7.7390    2.8260   14.9010 C.ar  190  TYR190     -0.0009
     71  CE1        6.3200    5.1060   15.5380 C.ar  190  TYR190      0.0417
     72  CE2        6.5800    2.7270   15.6400 C.ar  190  TYR190      0.0417
     73  CZ         5.8700    3.8670   15.9540 C.ar  190  TYR190      0.1957
     74  OH         4.7100    3.7640   16.6870 O.3   190  TYR190     -0.2866
     75  N         13.9900    3.3570   17.7040 N.3   193  GLY193     -0.1210
     76  CA        13.9360    4.3960   18.7190 C.3   193  GLY193      0.1956
     77  C         13.0990    4.0030   19.9220 C.2   193  GLY193      0.2611
     78  O         13.4850    4.2640   21.0650 O.2   193  GLY193     -0.2717
     79  N         11.9410    3.3780   19.6820 N.am  194  LYS194     -0.1979
     80  CA        11.1030    2.8980   20.7800 C.3   194  LYS194      0.1596
     81  C         11.9020    2.0570   21.7630 C.2   194  LYS194      0.2287
     82  O         11.7180    2.1630   22.9810 O.2   194  LYS194     -0.2864
     83  CB         9.9380    2.0710   20.2360 C.3   194  LYS194      0.0298
     84  CG         8.7310    2.8540   19.7650 C.3   194  LYS194      0.0038
     85  CD         7.7200    1.8950   19.1530 C.3   194  LYS194      0.0206
     86  CE         6.2980    2.4060   19.2830 C.3   194  LYS194      0.1093
     87  NZ         5.3060    1.3740   18.8680 N.3   194  LYS194     -0.1314
     88  N         15.6100    4.8850   22.6280 N.3   197  LEU197     -0.1245
     89  CA        15.6660    6.3080   22.9220 C.3   197  LEU197      0.1561
     90  C         14.9060    6.6550   24.1980 C.2   197  LEU197      0.2260
     91  O         14.0060    5.9390   24.6420 O.2   197  LEU197     -0.2867
     92  CB        15.1180    7.1160   21.7470 C.3   197  LEU197      0.0270
     93  CG        15.9960    7.0630   20.5000 C.3   197  LEU197      0.0019
     94  CD1       15.3300    7.7880   19.3520 C.3   197  LEU197      0.0001
     95  CD2       17.3570    7.6650   20.8010 C.3   197  LEU197      0.0001
     96  N         10.2210   12.5060   23.3670 N.3   202  LEU202     -0.1245
     97  CA         8.9320   12.4870   22.6890 C.3   202  LEU202      0.1561
     98  C          8.1740   13.7960   22.8640 C.2   202  LEU202      0.2260
     99  O          7.1120   13.9690   22.2560 O.2   202  LEU202     -0.2867
    100  CB         8.0770   11.3300   23.2130 C.3   202  LEU202      0.0270
    101  CG         8.5430    9.9010   22.9250 C.3   202  LEU202      0.0019
    102  CD1        7.6170    8.8990   23.5910 C.3   202  LEU202      0.0001
    103  CD2        8.6070    9.6530   21.4270 C.3   202  LEU202      0.0001
@<TRIPOS>BOND
     1    47    46    2
     2    46    45    1
     3    45    44    1
     4    45    48    1
     5    49    48    1
     6    48    50    1
     7    33    32    2
     8    32    31    1
     9    42    40   ar
    10    42    43   ar
    11    22    21    2
    12    40    37   ar
    13    31    34    1
    14    31    30    1
    15    43    41   ar
    16    21    30   am
    17    21    20    1
    18    34    35    1
    19    29    27   ar
    20    29    28   ar
    21    37    35   ar
    22    37    39   ar
    23    27    25   ar
    24    28    26   ar
    25    35    36   ar
    26    41    39   ar
    27    51    52    1
    28    20    19    1
    29    20    23    1
    30    25    24   ar
    31    26    24   ar
    32    39    38   ar
    33    55    52    1
    34    55    56    1
    35    24    23    1
    36    52    53    1
    37    36    38   ar
    38    58    56   ar
    39    58    60   ar
    40    56    57   ar
    41    67    68    1
    42    67    64    1
    43    63    53   am
    44    63    64    1
    45    53    54    2
    46    15    14    2
    47    68    69   ar
    48    68    70   ar
    49    60    61   ar
    50    64    65    1
    51    57    59   ar
    52    69    71   ar
    53    70    72   ar
    54    61    59   ar
    55    61    62    1
    56    14    13    1
    57    65    66    2
    58    71    73   ar
    59    72    73   ar
    60    73    74    1
    61     4     3    2
    62    13    16    1
    63    13    12    1
    64     3    12   am
    65     3     2    1
    66    16    17    1
    67    12    18    1
    68    75    76    1
    69     2     1    1
    70     2     5    1
    71    76    77    1
    72    17    18    1
    73    87    86    1
    74    85    86    1
    75    85    84    1
    76     5     6    1
    77    94    93    1
    78    79    77   am
    79    79    80    1
    80    84    83    1
    81     6     7    1
    82    77    78    2
    83    83    80    1
    84    93    95    1
    85    93    92    1
    86    80    81    1
    87     8     7    1
    88     8     9    2
    89    11     9    1
    90   103   101    1
    91     9    10    1
    92    92    89    1
    93    81    82    2
    94    99    98    2
    95    88    89    1
    96    97    98    1
    97    97   100    1
    98    97    96    1
    99    89    90    1
   100   101   100    1
   101   101   102    1
   102    90    91    2
