@<TRIPOS>MOLECULE
tmp/6fmyA00.pdb
 96 92 0 0 0
SMALL
GASTEIGER

@<TRIPOS>ATOM
      1  N          8.5460   22.0960   -7.7340 N.3   108  PHE108     -0.1241
      2  CA         8.4530   23.0120   -6.6010 C.3   108  PHE108      0.1605
      3  C          7.9450   22.3030   -5.3520 C.2   108  PHE108      0.2264
      4  O          8.4350   22.5560   -4.2440 O.2   108  PHE108     -0.2867
      5  CB         7.5480   24.1970   -6.9440 C.3   108  PHE108      0.0534
      6  CG         7.4970   25.2480   -5.8710 C.ar  108  PHE108     -0.0203
      7  CD1        6.3590   25.4200   -5.0990 C.ar  108  PHE108     -0.0042
      8  CD2        8.5950   26.0540   -5.6270 C.ar  108  PHE108     -0.0042
      9  CE1        6.3180   26.3860   -4.1120 C.ar  108  PHE108     -0.0003
     10  CE2        8.5600   27.0190   -4.6430 C.ar  108  PHE108     -0.0003
     11  CZ         7.4210   27.1860   -3.8840 C.ar  108  PHE108     -0.0000
     12  N         10.0290   22.0560   -1.8540 N.3   112  ILE112     -0.1245
     13  CA         9.5240   22.6520   -0.6230 C.3   112  ILE112      0.1561
     14  C          9.3190   21.5910    0.4560 C.2   112  ILE112      0.2260
     15  O          9.5320   21.8600    1.6450 O.2   112  ILE112     -0.2867
     16  CB         8.2390   23.4540   -0.9060 C.3   112  ILE112      0.0252
     17  CG1        7.8900   24.3220    0.2980 C.3   112  ILE112      0.0019
     18  CG2        7.0780   22.5410   -1.2830 C.3   112  ILE112      0.0019
     19  CD1        8.9560   25.3370    0.6190 C.3   112  ILE112      0.0001
     20  N          7.2790   39.1220    4.2120 N.3   227  PHE227     -0.1241
     21  CA         7.7820   38.3070    3.1110 C.3   227  PHE227      0.1605
     22  C          6.7380   38.1750    2.0130 C.2   227  PHE227      0.2264
     23  O          7.0670   38.2250    0.8230 O.2   227  PHE227     -0.2867
     24  CB         8.2050   36.9300    3.6260 C.3   227  PHE227      0.0534
     25  CG         8.7260   36.0070    2.5560 C.ar  227  PHE227     -0.0203
     26  CD1        9.9620   36.2290    1.9720 C.ar  227  PHE227     -0.0042
     27  CD2        7.9890   34.9040    2.1510 C.ar  227  PHE227     -0.0042
     28  CE1       10.4480   35.3780    0.9950 C.ar  227  PHE227     -0.0003
     29  CE2        8.4690   34.0480    1.1770 C.ar  227  PHE227     -0.0003
     30  CZ         9.7000   34.2870    0.5970 C.ar  227  PHE227     -0.0000
     31  N          6.7390   39.8770   -1.9250 N.3   231  ILE231     -0.1245
     32  CA         6.4770   39.0770   -3.1190 C.3   231  ILE231      0.1561
     33  C          5.4200   39.7390   -4.0000 C.2   231  ILE231      0.2260
     34  O          5.5050   39.6930   -5.2340 O.2   231  ILE231     -0.2867
     35  CB         6.0810   37.6440   -2.7140 C.3   231  ILE231      0.0252
     36  CG1        7.2910   36.9150   -2.1250 C.3   231  ILE231      0.0019
     37  CG2        5.5110   36.8770   -3.9000 C.3   231  ILE231      0.0019
     38  CD1        6.9930   35.5100   -1.6610 C.3   231  ILE231      0.0001
     39  N          8.6030   39.2240  -11.5770 N.3   240  ASN240     -0.1225
     40  CA         7.9660   37.9570  -11.2530 C.3   240  ASN240      0.1785
     41  C          8.6150   36.7720  -11.9590 C.2   240  ASN240      0.2598
     42  O          8.0000   35.7070  -12.0590 O.2   240  ASN240     -0.2718
     43  CB         6.4770   38.0240  -11.5910 C.3   240  ASN240      0.1169
     44  CG         6.2120   38.7440  -12.8980 C.2   240  ASN240      0.2627
     45  OD1        6.6240   38.2930  -13.9670 O.2   240  ASN240     -0.2716
     46  ND2        5.5080   39.8700  -12.8190 N.am  240  ASN240     -0.0877
     47  N          9.8370   36.9280  -12.4540 N.am  241  SER241     -0.1938
     48  CA        10.5200   35.8210  -13.1100 C.3   241  SER241      0.2055
     49  C         11.1390   34.8940  -12.0760 C.2   241  SER241      0.2642
     50  O         11.4300   35.2980  -10.9460 O.2   241  SER241     -0.2714
     51  CB        11.6020   36.3330  -14.0620 C.3   241  SER241      0.2130
     52  OG        12.6980   36.8670  -13.3470 O.3   241  SER241     -0.2179
     53  N         11.3270   33.6330  -12.4680 N.am  242  LEU242     -0.1977
     54  CA        11.9910   32.6820  -11.5800 C.3   242  LEU242      0.1596
     55  C         13.3800   33.1440  -11.1580 C.2   242  LEU242      0.2287
     56  O         13.7010   33.0370   -9.9630 O.2   242  LEU242     -0.2864
     57  CB        12.0350   31.2950  -12.2400 C.3   242  LEU242      0.0297
     58  CG        12.8440   30.2370  -11.4840 C.3   242  LEU242      0.0022
     59  CD1       12.2150   29.9330  -10.1310 C.3   242  LEU242      0.0001
     60  CD2       12.9790   28.9740  -12.3170 C.3   242  LEU242      0.0001
     61  N         12.8820   35.5130   -8.2010 N.3   245  TYR245     -0.1227
     62  CA        12.5590   34.8870   -6.9220 C.3   245  TYR245      0.1736
     63  C         13.8040   34.3030   -6.2630 C.2   245  TYR245      0.2595
     64  O         13.9650   34.3810   -5.0380 O.2   245  TYR245     -0.2718
     65  CB        11.5030   33.8000   -7.1140 C.3   245  TYR245      0.0548
     66  CG        10.0990   34.3260   -7.2980 C.ar  245  TYR245     -0.0200
     67  CD1        9.4520   35.0060   -6.2740 C.ar  245  TYR245     -0.0009
     68  CD2        9.4130   34.1270   -8.4890 C.ar  245  TYR245     -0.0009
     69  CE1        8.1680   35.4810   -6.4340 C.ar  245  TYR245      0.0417
     70  CE2        8.1280   34.5980   -8.6580 C.ar  245  TYR245      0.0417
     71  CZ         7.5090   35.2750   -7.6270 C.ar  245  TYR245      0.1957
     72  OH         6.2250   35.7450   -7.7940 O.3   245  TYR245     -0.2866
     73  N         14.6940   33.7110   -7.0620 N.am  246  ILE246     -0.1980
     74  CA        15.9500   33.2030   -6.5220 C.3   246  ILE246      0.1595
     75  C         16.7560   34.3390   -5.9080 C.2   246  ILE246      0.2287
     76  O         17.3860   34.1760   -4.8560 O.2   246  ILE246     -0.2864
     77  CB        16.7370   32.4600   -7.6190 C.3   246  ILE246      0.0276
     78  CG1       15.9870   31.1910   -8.0320 C.3   246  ILE246      0.0022
     79  CG2       18.1440   32.1280   -7.1480 C.3   246  ILE246      0.0022
     80  CD1       16.7620   30.2930   -8.9650 C.3   246  ILE246      0.0001
     81  N         15.4930   37.0150   -4.5220 N.3   248  LEU248     -0.1231
     82  CA        14.8510   37.3060   -3.2430 C.3   248  LEU248      0.1693
     83  C         15.4080   36.4160   -2.1370 C.2   248  LEU248      0.2591
     84  O         15.8060   36.9020   -1.0730 O.2   248  LEU248     -0.2718
     85  CB        13.3370   37.1290   -3.3620 C.3   248  LEU248      0.0284
     86  CG        12.5160   37.1940   -2.0730 C.3   248  LEU248      0.0019
     87  CD1       12.6490   38.5520   -1.3920 C.3   248  LEU248      0.0001
     88  CD2       11.0580   36.8700   -2.3560 C.3   248  LEU248      0.0001
     89  N         15.4530   35.1040   -2.3800 N.am  249  LEU249     -0.1980
     90  CA        15.9940   34.1860   -1.3830 C.3   249  LEU249      0.1596
     91  C         17.4770   34.4380   -1.1490 C.2   249  LEU249      0.2287
     92  O         17.9570   34.3320   -0.0150 O.2   249  LEU249     -0.2864
     93  CB        15.7590   32.7440   -1.8190 C.3   249  LEU249      0.0297
     94  CG        14.3070   32.4060   -2.1380 C.3   249  LEU249      0.0022
     95  CD1       14.2170   30.9840   -2.6250 C.3   249  LEU249      0.0001
     96  CD2       13.4270   32.6170   -0.9180 C.3   249  LEU249      0.0001
@<TRIPOS>BOND
     1    51    52    1
     2    51    48    1
     3    45    44    2
     4    48    47    1
     5    48    49    1
     6    44    46   am
     7    44    43    1
     8    53    49   am
     9    53    54    1
    10    47    41   am
    11    60    58    1
    12    57    54    1
    13    57    58    1
    14    49    50    2
    15    42    41    2
    16    41    40    1
    17    43    40    1
    18    54    55    1
    19    39    40    1
    20    58    59    1
    21    55    56    2
    22    80    78    1
    23    70    68   ar
    24    70    71   ar
    25    68    66   ar
    26    61    62    1
    27    78    77    1
    28    72    71    1
    29     1     2    1
    30    71    69   ar
    31    77    79    1
    32    77    74    1
    33    66    65    1
    34    66    67   ar
    35    65    62    1
    36    73    74    1
    37    73    63   am
    38     5     2    1
    39     5     6    1
    40    62    63    1
    41     2     3    1
    42    74    75    1
    43    69    67   ar
    44    63    64    2
    45    75    76    2
    46     6     8   ar
    47     6     7   ar
    48     8    10   ar
    49     3     4    2
    50    34    33    2
    51     7     9   ar
    52    10    11   ar
    53    81    82    1
    54     9    11   ar
    55    33    32    1
    56    37    35    1
    57    85    82    1
    58    85    86    1
    59    82    83    1
    60    32    35    1
    61    32    31    1
    62    35    36    1
    63    95    94    1
    64    89    83   am
    65    89    90    1
    66    88    86    1
    67    94    93    1
    68    94    96    1
    69    83    84    2
    70    36    38    1
    71    86    87    1
    72    12    13    1
    73    93    90    1
    74    90    91    1
    75    18    16    1
    76    91    92    2
    77    16    13    1
    78    16    17    1
    79    13    14    1
    80    17    19    1
    81    14    15    2
    82    30    28   ar
    83    30    29   ar
    84    23    22    2
    85    28    26   ar
    86    29    27   ar
    87    26    25   ar
    88    22    21    1
    89    27    25   ar
    90    25    24    1
    91    21    24    1
    92    21    20    1
