@<TRIPOS>MOLECULE
tmp/6fmyA05.pdb
 76 72 0 0 0
SMALL
GASTEIGER

@<TRIPOS>ATOM
      1  N          6.5980   41.6060    0.2800 N.3   230  ILE230     -0.1245
      2  CA         7.6660   41.7690   -0.7040 C.3   230  ILE230      0.1561
      3  C          7.2840   41.0910   -2.0140 C.2   230  ILE230      0.2260
      4  O          7.4510   41.6560   -3.1010 O.2   230  ILE230     -0.2867
      5  CB         8.9960   41.2200   -0.1550 C.3   230  ILE230      0.0252
      6  CG1        9.4780   42.0510    1.0340 C.3   230  ILE230      0.0019
      7  CG2       10.0600   41.2100   -1.2400 C.3   230  ILE230      0.0019
      8  CD1       10.7660   41.5380    1.6440 C.3   230  ILE230      0.0001
      9  N          7.0260   42.7240   -5.8210 N.3   234  MET234     -0.1245
     10  CA         7.7950   42.2310   -6.9570 C.3   234  MET234      0.1570
     11  C          6.9230   42.1020   -8.1960 C.2   234  MET234      0.2261
     12  O          7.2170   42.6830   -9.2460 O.2   234  MET234     -0.2867
     13  CB         8.4160   40.8830   -6.6230 C.3   234  MET234      0.0387
     14  CG         9.3740   40.9260   -5.4890 C.3   234  MET234      0.0595
     15  SD        10.1880   39.3430   -5.3650 S.3   234  MET234     -0.1393
     16  CE        11.6970   39.9010   -4.6190 C.3   234  MET234      0.0692
     17  N          6.8330   43.9860  -11.8690 N.3   238  GLY238     -0.1210
     18  CA         7.2220   43.1510  -12.9860 C.3   238  GLY238      0.1956
     19  C          8.4370   42.2830  -12.7560 C.2   238  GLY238      0.2611
     20  O          9.0260   41.8030  -13.7310 O.2   238  GLY238     -0.2717
     21  N          8.8270   42.0640  -11.5030 N.am  239  TRP239     -0.1976
     22  CA         9.9530   41.2070  -11.1450 C.3   239  TRP239      0.1640
     23  C          9.4970   39.8040  -10.7830 C.2   239  TRP239      0.2290
     24  O          9.9500   39.2310   -9.7910 O.2   239  TRP239     -0.2864
     25  CB        10.7440   41.8300   -9.9960 C.3   239  TRP239      0.0576
     26  CG        11.4950   43.0630  -10.4030 C.ar  239  TRP239      0.0006
     27  CD1       11.8380   43.4340  -11.6750 C.ar  239  TRP239      0.0946
     28  CD2       11.9970   44.0930   -9.5390 C.ar  239  TRP239      0.0152
     29  NE1       12.5270   44.6240  -11.6530 N.ar  239  TRP239     -0.2442
     30  CE2       12.6380   45.0500  -10.3550 C.ar  239  TRP239      0.0810
     31  CE3       11.9700   44.2990   -8.1560 C.ar  239  TRP239      0.0012
     32  CZ2       13.2450   46.1940   -9.8320 C.ar  239  TRP239      0.0191
     33  CZ3       12.5740   45.4360   -7.6410 C.ar  239  TRP239      0.0001
     34  CH2       13.2020   46.3670   -8.4770 C.ar  239  TRP239      0.0015
     35  N          9.8370   36.9280  -12.4540 N.3   241  SER241     -0.1217
     36  CA        10.5200   35.8210  -13.1100 C.3   241  SER241      0.1889
     37  C         11.1390   34.8940  -12.0760 C.2   241  SER241      0.2288
     38  O         11.4300   35.2980  -10.9460 O.2   241  SER241     -0.2866
     39  CB        11.6020   36.3330  -14.0620 C.3   241  SER241      0.2089
     40  OG        12.6980   36.8670  -13.3470 O.3   241  SER241     -0.2183
     41  N         14.2440   33.6490  -12.0460 N.3   243  PRO243     -0.2102
     42  CA        15.5290   34.1880  -11.5690 C.3   243  PRO243      0.1504
     43  C         15.3820   35.3210  -10.5680 C.2   243  PRO243      0.2575
     44  O         16.3010   35.5540   -9.7730 O.2   243  PRO243     -0.2718
     45  CB        16.2070   34.6640  -12.8610 C.3   243  PRO243      0.0282
     46  CG        15.6210   33.8090  -13.9210 C.3   243  PRO243      0.0208
     47  CD        14.1930   33.6030  -13.5200 C.3   243  PRO243      0.0893
     48  N         14.2570   36.0390  -10.5820 N.am  244  ALA244     -0.1980
     49  CA        14.0580   37.1200   -9.6240 C.3   244  ALA244      0.1597
     50  C         13.6830   36.5820   -8.2480 C.2   244  ALA244      0.2287
     51  O         14.1100   37.1330   -7.2260 O.2   244  ALA244     -0.2864
     52  CB        12.9890   38.0890  -10.1320 C.3   244  ALA244      0.0319
     53  N         16.7210   35.5160   -6.5350 N.3   247  ASN247     -0.1225
     54  CA        17.4240   36.6650   -5.9770 C.3   247  ASN247      0.1785
     55  C         16.8200   37.0880   -4.6460 C.2   247  ASN247      0.2597
     56  O         17.5490   37.4810   -3.7290 O.2   247  ASN247     -0.2718
     57  CB        17.4100   37.8250   -6.9710 C.3   247  ASN247      0.1169
     58  CG        18.2320   37.5360   -8.2100 C.2   247  ASN247      0.2627
     59  OD1       19.0190   36.5910   -8.2400 O.2   247  ASN247     -0.2716
     60  ND2       18.0590   38.3540   -9.2400 N.am  247  ASN247     -0.0877
     61  N         15.4930   37.0150   -4.5220 N.am  248  LEU248     -0.1980
     62  CA        14.8510   37.3060   -3.2430 C.3   248  LEU248      0.1596
     63  C         15.4080   36.4160   -2.1370 C.2   248  LEU248      0.2287
     64  O         15.8060   36.9020   -1.0730 O.2   248  LEU248     -0.2864
     65  CB        13.3370   37.1290   -3.3620 C.3   248  LEU248      0.0297
     66  CG        12.5160   37.1940   -2.0730 C.3   248  LEU248      0.0022
     67  CD1       12.6490   38.5520   -1.3920 C.3   248  LEU248      0.0001
     68  CD2       11.0580   36.8700   -2.3560 C.3   248  LEU248      0.0001
     69  N         19.0320   37.3840   -1.3430 N.3   251  ILE251     -0.1245
     70  CA        19.0640   38.5480   -0.4600 C.3   251  ILE251      0.1561
     71  C         18.6220   38.1590    0.9440 C.2   251  ILE251      0.2260
     72  O         19.2520   38.5340    1.9390 O.2   251  ILE251     -0.2867
     73  CB        18.1900   39.6770   -1.0380 C.3   251  ILE251      0.0252
     74  CG1       18.7930   40.2040   -2.3420 C.3   251  ILE251      0.0019
     75  CG2       18.0200   40.7950   -0.0260 C.3   251  ILE251      0.0019
     76  CD1       17.7630   40.6860   -3.3420 C.3   251  ILE251      0.0001
@<TRIPOS>BOND
     1    39    40    1
     2    39    36    1
     3    46    47    1
     4    46    45    1
     5    20    19    2
     6    47    41    1
     7    36    35    1
     8    36    37    1
     9    18    19    1
    10    18    17    1
    11    45    42    1
    12    19    21   am
    13    37    38    2
    14    41    42    1
    15    27    29   ar
    16    27    26   ar
    17    29    30   ar
    18    42    43    1
    19    21    22    1
    20    22    23    1
    21    22    25    1
    22    23    24    2
    23    48    43   am
    24    48    49    1
    25    43    44    2
    26    26    25    1
    27    26    28   ar
    28    30    32   ar
    29    30    28   ar
    30    52    49    1
    31    32    34   ar
    32    49    50    1
    33    28    31   ar
    34    12    11    2
    35    60    58   am
    36    34    33   ar
    37    50    51    2
    38    59    58    2
    39    58    57    1
    40    11    10    1
    41    31    33   ar
    42    57    54    1
    43    10    13    1
    44    10     9    1
    45    13    14    1
    46    53    54    1
    47    54    55    1
    48    14    15    1
    49    15    16    1
    50    55    61   am
    51    55    56    2
    52    61    62    1
    53    65    62    1
    54    65    66    1
    55    76    74    1
    56    62    63    1
    57     4     3    2
    58    68    66    1
    59    74    73    1
    60    63    64    2
    61    66    67    1
    62     3     2    1
    63    69    70    1
    64     7     5    1
    65    73    70    1
    66    73    75    1
    67     2     5    1
    68     2     1    1
    69    70    71    1
    70     5     6    1
    71    71    72    2
    72     6     8    1
