@<TRIPOS>MOLECULE
tmp/6fmzA01.pdb
 105 99 0 0 0
SMALL
GASTEIGER

@<TRIPOS>ATOM
      1  N        125.7190    0.6950   74.9860 N.3   291  TYR291     -0.1241
      2  CA       125.4900    0.1930   73.6400 C.3   291  TYR291      0.1605
      3  C        126.3780   -1.0010   73.3450 C.2   291  TYR291      0.2264
      4  O        125.9710   -1.9010   72.6080 O.2   291  TYR291     -0.2867
      5  CB       125.6740    1.3070   72.6090 C.3   291  TYR291      0.0534
      6  CG       127.1020    1.7120   72.2780 C.ar  291  TYR291     -0.0201
      7  CD1      127.8090    1.0580   71.2780 C.ar  291  TYR291     -0.0009
      8  CD2      127.7170    2.7760   72.9260 C.ar  291  TYR291     -0.0009
      9  CE1      129.0590    1.4340   70.9210 C.ar  291  TYR291      0.0417
     10  CE2      129.0140    3.1580   72.5910 C.ar  291  TYR291      0.0417
     11  CZ       129.6760    2.4770   71.5750 C.ar  291  TYR291      0.1957
     12  OH       130.9550    2.8090   71.1850 O.3   291  TYR291     -0.2866
     13  N        121.8780    4.7970   79.2530 N.3   317  ARG317     -0.1231
     14  CA       121.9040    6.1050   79.8850 C.3   317  ARG317      0.1694
     15  C        122.5870    7.1220   78.9640 C.2   317  ARG317      0.2593
     16  O        123.6210    6.8380   78.3550 O.2   317  ARG317     -0.2718
     17  CB       122.6430    6.0090   81.2340 C.3   317  ARG317      0.0321
     18  CG       122.7330    7.3060   82.0340 C.3   317  ARG317      0.0489
     19  CD       123.3310    7.0750   83.4540 C.3   317  ARG317      0.2205
     20  NE       122.5460    6.1170   84.2530 N.pl3 317  ARG317     -0.0865
     21  CZ       121.4640    6.4380   84.9610 C.cat 317  ARG317      0.5346
     22  NH1      121.0330    7.6930   84.9930 N.pl3 317  ARG317      0.1354
     23  NH2      120.8010    5.5140   85.6500 N.pl3 317  ARG317      0.1354
     24  N        122.0110    8.3130   78.8830 N.am  318  GLY318     -0.1942
     25  CA       122.4740    9.3400   77.9720 C.3   318  GLY318      0.2014
     26  C        121.7690    9.3640   76.6300 C.2   318  GLY318      0.2639
     27  O        121.8010   10.3920   75.9530 O.2   318  GLY318     -0.2714
     28  N        121.1430    8.2640   76.2330 N.am  319  PHE319     -0.1959
     29  CA       120.3480    8.1930   75.0130 C.3   319  PHE319      0.1771
     30  C        118.8850    8.4470   75.3410 C.2   319  PHE319      0.2619
     31  O        118.4260    8.2390   76.4690 O.2   319  PHE319     -0.2715
     32  CB       120.4430    6.8080   74.3510 C.3   319  PHE319      0.0574
     33  CG       121.7830    6.4710   73.7410 C.ar  319  PHE319     -0.0200
     34  CD1      122.8160    5.9670   74.5240 C.ar  319  PHE319     -0.0042
     35  CD2      121.9860    6.5910   72.3770 C.ar  319  PHE319     -0.0042
     36  CE1      124.0410    5.6190   73.9670 C.ar  319  PHE319     -0.0003
     37  CE2      123.2200    6.2460   71.8090 C.ar  319  PHE319     -0.0003
     38  CZ       124.2530    5.7570   72.6320 C.ar  319  PHE319     -0.0000
     39  N        118.1370    8.8600   74.3250 N.am  320  ASP320     -0.1971
     40  CA       116.6880    9.0040   74.4520 C.3   320  ASP320      0.1709
     41  C        116.0790    7.7680   75.1020 C.2   320  ASP320      0.2293
     42  O        116.2190    6.6480   74.5990 O.2   320  ASP320     -0.2864
     43  CB       116.1040    9.2420   73.0570 C.3   320  ASP320      0.1436
     44  CG       114.6220    9.5370   73.0720 C.2   320  ASP320      0.3671
     45  OD1      113.8190    8.6260   73.3940 O.co2 320  ASP320     -0.2456
     46  OD2      114.2480   10.6790   72.7280 O.co2 320  ASP320     -0.2456
     47  N        126.1550   15.2770   65.9800 N.3   464  VAL464     -0.1245
     48  CA       126.8470   14.1370   65.3800 C.3   464  VAL464      0.1561
     49  C        125.9390   12.9130   65.4640 C.2   464  VAL464      0.2260
     50  O        125.5550   12.4870   66.5560 O.2   464  VAL464     -0.2867
     51  CB       128.1900   13.8670   66.0690 C.3   464  VAL464      0.0252
     52  CG1      128.7900   12.5500   65.5500 C.3   464  VAL464      0.0019
     53  CG2      129.1740   15.0200   65.8440 C.3   464  VAL464      0.0019
     54  N        124.5490    9.0290   65.2500 N.3   466  THR466     -0.1218
     55  CA       125.0190    7.7640   65.8060 C.3   466  THR466      0.1862
     56  C        124.0880    6.6490   65.3600 C.2   466  THR466      0.2287
     57  O        122.9360    6.8890   64.9910 O.2   466  THR466     -0.2866
     58  CB       125.0760    7.8050   67.3430 C.3   466  THR466      0.1770
     59  OG1      123.7880    8.1600   67.8760 O.3   466  THR466     -0.2211
     60  CG2      126.0970    8.8170   67.8060 C.3   466  THR466      0.0375
     61  N        119.1010    1.2790   66.0610 N.3   474  TYR474     -0.1241
     62  CA       118.5990    2.5730   66.5350 C.3   474  TYR474      0.1605
     63  C        119.5380    3.6830   66.0640 C.2   474  TYR474      0.2264
     64  O        120.6780    3.7950   66.5400 O.2   474  TYR474     -0.2867
     65  CB       118.4300    2.5710   68.0660 C.3   474  TYR474      0.0534
     66  CG       118.2250    3.9560   68.6730 C.ar  474  TYR474     -0.0201
     67  CD1      117.4800    4.9210   68.0270 C.ar  474  TYR474     -0.0009
     68  CD2      118.7980    4.2980   69.8990 C.ar  474  TYR474     -0.0009
     69  CE1      117.3210    6.1910   68.5820 C.ar  474  TYR474      0.0417
     70  CE2      118.6300    5.5640   70.4600 C.ar  474  TYR474      0.0417
     71  CZ       117.8900    6.4980   69.7900 C.ar  474  TYR474      0.1957
     72  OH       117.7740    7.7640   70.3420 O.3   474  TYR474     -0.2866
     73  N        120.1550    7.9120   65.5160 N.3   476  ALA476     -0.1245
     74  CA       119.7390    9.1730   66.1220 C.3   476  ALA476      0.1562
     75  C        120.6620   10.2880   65.6620 C.2   476  ALA476      0.2260
     76  O        121.8550   10.0820   65.4290 O.2   476  ALA476     -0.2867
     77  CB       119.7580    9.0780   67.6460 C.3   476  ALA476      0.0290
     78  N        121.0290   14.4820   66.9160 N.3   478  GLY478     -0.1225
     79  CA       120.5370   15.6060   67.6940 C.3   478  GLY478      0.1811
     80  C        120.0940   15.2100   69.0870 C.2   478  GLY478      0.2280
     81  O        120.5340   14.2050   69.6660 O.2   478  GLY478     -0.2866
     82  N        117.9390   14.1110   72.3590 N.3   480  SER480     -0.1217
     83  CA       116.8540   13.2920   72.8690 C.3   480  SER480      0.1889
     84  C        115.6430   14.1540   73.1600 C.2   480  SER480      0.2288
     85  O        115.7470   15.3640   73.4080 O.2   480  SER480     -0.2866
     86  CB       117.2930   12.5700   74.1340 C.3   480  SER480      0.2089
     87  OG       117.5200   13.4950   75.1950 O.3   480  SER480     -0.2183
     88  N        116.0240   15.7840   76.5990 N.3   483  ASP483     -0.1239
     89  CA       116.9900   16.8810   76.6680 C.3   483  ASP483      0.1674
     90  C        116.4330   18.1360   76.0040 C.2   483  ASP483      0.2266
     91  O        116.7020   19.2620   76.4420 O.2   483  ASP483     -0.2867
     92  CB       118.3030   16.4710   76.0010 C.3   483  ASP483      0.1410
     93  CG       119.1440   15.5580   76.8710 C.2   483  ASP483      0.3668
     94  OD1      118.7490   15.3240   78.0290 O.co2 483  ASP483     -0.2456
     95  OD2      120.2050   15.0840   76.3930 O.co2 483  ASP483     -0.2456
     96  N        115.1070   10.4490   65.4690 N.3   533  HIS533     -0.1241
     97  CA       115.2550    9.1360   66.0980 C.3   533  HIS533      0.1621
     98  C        114.5470    8.0680   65.2800 C.2   533  HIS533      0.2264
     99  O        113.3770    8.2490   64.9380 O.2   533  HIS533     -0.2867
    100  CB       114.6680    9.1770   67.5090 C.3   533  HIS533      0.0745
    101  CG       115.3500   10.1900   68.3700 C.ar  533  HIS533      0.0817
    102  ND1      116.4650    9.8810   69.1240 N.ar  533  HIS533     -0.2268
    103  CD2      115.1540   11.5250   68.5070 C.ar  533  HIS533      0.1154
    104  CE1      116.9040   10.9800   69.7210 C.ar  533  HIS533      0.1986
    105  NE2      116.1280   11.9920   69.3610 N.ar  533  HIS533     -0.2212
@<TRIPOS>BOND
     1    99    98    2
     2    57    56    2
     3    54    55    1
     4    98    97    1
     5    56    55    1
     6    48    49    1
     7    48    47    1
     8    48    51    1
     9    76    75    2
    10    49    50    2
    11    96    97    1
    12    73    74    1
    13    52    51    1
    14    75    74    1
    15    55    58    1
    16    53    51    1
    17    61    62    1
    18    63    62    1
    19    63    64    2
    20    97   100    1
    21    74    77    1
    22    62    65    1
    23    78    79    1
    24    58    60    1
    25    58    59    1
    26   100   101    1
    27    79    80    1
    28    67    69   ar
    29    67    66   ar
    30    65    66    1
    31   101   103   ar
    32   101   102   ar
    33   103   105   ar
    34    69    71   ar
    35    66    68   ar
    36    80    81    2
    37   102   104   ar
    38   105   104   ar
    39    71    72    1
    40    71    70   ar
    41    68    70   ar
    42     9     7   ar
    43     9    11   ar
    44    12    11    1
    45     7     6   ar
    46    11    10   ar
    47    37    35   ar
    48    37    38   ar
    49     6     5    1
    50     6     8   ar
    51    82    83    1
    52    35    33   ar
    53    10     8   ar
    54     4     3    2
    55     5     2    1
    56    38    36   ar
    57    46    44   ar
    58    83    84    1
    59    83    86    1
    60    43    44    1
    61    43    40    1
    62    44    45   ar
    63    84    85    2
    64     3     2    1
    65     2     1    1
    66    33    32    1
    67    33    34   ar
    68    36    34   ar
    69    86    87    1
    70    39    40    1
    71    39    30   am
    72    32    29    1
    73    40    41    1
    74    42    41    2
    75    29    30    1
    76    29    28    1
    77    30    31    2
    78    27    26    2
    79    92    89    1
    80    92    93    1
    81    90    91    2
    82    90    89    1
    83    28    26   am
    84    95    93   ar
    85    88    89    1
    86    26    25    1
    87    93    94   ar
    88    25    24    1
    89    16    15    2
    90    24    15   am
    91    15    14    1
    92    13    14    1
    93    14    17    1
    94    17    18    1
    95    18    19    1
    96    19    20    1
    97    20    21    2
    98    21    22    1
    99    21    23    1
