@<TRIPOS>MOLECULE
tmp/6fn0A01.pdb
 115 113 0 0 0
SMALL
GASTEIGER

@<TRIPOS>ATOM
      1  N         -1.3170  -21.0790  -11.0030 N.3    34  PHE34      -0.1227
      2  CA        -0.2540  -21.9370  -10.4930 C.3    34  PHE34       0.1736
      3  C         -0.0310  -21.5950   -9.0330 C.2    34  PHE34       0.2595
      4  O          0.1880  -20.4450   -8.6910 O.2    34  PHE34      -0.2718
      5  CB         1.0390  -21.7460  -11.2740 C.3    34  PHE34       0.0547
      6  CG         2.0810  -22.7700  -10.9590 C.ar   34  PHE34      -0.0202
      7  CD1        2.9680  -22.5780   -9.9120 C.ar   34  PHE34      -0.0042
      8  CD2        2.1650  -23.9410  -11.6990 C.ar   34  PHE34      -0.0042
      9  CE1        3.9220  -23.5380   -9.6130 C.ar   34  PHE34      -0.0003
     10  CE2        3.1210  -24.9060  -11.4040 C.ar   34  PHE34      -0.0003
     11  CZ         4.0000  -24.7060  -10.3620 C.ar   34  PHE34      -0.0000
     12  N         -0.0910  -22.6040   -8.1780 N.am   35  VAL35      -0.1966
     13  CA         0.0600  -22.4160   -6.7430 C.3    35  VAL35       0.1727
     14  C          1.4890  -22.7510   -6.3660 C.2    35  VAL35       0.2616
     15  O          1.9770  -23.8350   -6.6670 O.2    35  VAL35      -0.2715
     16  CB        -0.9080  -23.2940   -5.9500 C.3    35  VAL35       0.0290
     17  CG1       -0.8260  -22.9700   -4.4580 C.3    35  VAL35       0.0023
     18  CG2       -2.3230  -23.1070   -6.4870 C.3    35  VAL35       0.0023
     19  N          2.1330  -21.8080   -5.6900 N.am   36  LEU36      -0.1963
     20  CA         3.5580  -21.8120   -5.4390 C.3    36  LEU36       0.1728
     21  C          3.7780  -21.7370   -3.9440 C.2    36  LEU36       0.2616
     22  O          3.3460  -20.7820   -3.3090 O.2    36  LEU36      -0.2715
     23  CB         4.1570  -20.5780   -6.0970 C.3    36  LEU36       0.0311
     24  CG         5.6740  -20.3980   -6.0330 C.3    36  LEU36       0.0022
     25  CD1        6.3510  -20.9740   -7.2700 C.3    36  LEU36       0.0001
     26  CD2        6.0230  -18.9220   -5.8800 C.3    36  LEU36       0.0001
     27  N          4.4380  -22.7380   -3.3750 N.am   37  ASP37      -0.1971
     28  CA         4.8050  -22.7250   -1.9500 C.3    37  ASP37       0.1709
     29  C          6.0190  -21.7870   -1.7250 C.2    37  ASP37       0.2293
     30  O          7.1400  -22.1360   -2.0840 O.2    37  ASP37      -0.2864
     31  CB         5.1030  -24.1640   -1.4950 C.3    37  ASP37       0.1436
     32  CG         4.9520  -24.3570   -0.0100 C.2    37  ASP37       0.3671
     33  OD1        5.5430  -23.5900    0.7810 O.co2  37  ASP37      -0.2456
     34  OD2        4.2400  -25.3100    0.3550 O.co2  37  ASP37      -0.2456
     35  N          9.1080  -23.3260    0.4540 N.3    40  PHE40      -0.1241
     36  CA         9.3930  -24.6910   -0.0410 C.3    40  PHE40       0.1605
     37  C         10.8310  -25.0640    0.2130 C.2    40  PHE40       0.2264
     38  O         11.1290  -26.1480    0.7250 O.2    40  PHE40      -0.2867
     39  CB         9.1410  -24.7860   -1.5470 C.3    40  PHE40       0.0534
     40  CG         9.0580  -26.1960   -2.0590 C.ar   40  PHE40      -0.0203
     41  CD1        8.0010  -27.0380   -1.6620 C.ar   40  PHE40      -0.0042
     42  CD2       10.0080  -26.6910   -2.9490 C.ar   40  PHE40      -0.0042
     43  CE1        7.9020  -28.3480   -2.1330 C.ar   40  PHE40      -0.0003
     44  CE2        9.9140  -28.0000   -3.4220 C.ar   40  PHE40      -0.0003
     45  CZ         8.8610  -28.8280   -3.0140 C.ar   40  PHE40      -0.0000
     46  N         16.5400  -28.9030   -3.5700 N.3    48  VAL48      -0.1245
     47  CA        16.1370  -28.7430   -4.9600 C.3    48  VAL48       0.1561
     48  C         17.1590  -27.8250   -5.6240 C.2    48  VAL48       0.2260
     49  O         17.5700  -26.8070   -5.0430 O.2    48  VAL48      -0.2867
     50  CB        14.7430  -28.0930   -5.0720 C.3    48  VAL48       0.0252
     51  CG1       14.3780  -27.8220   -6.5300 C.3    48  VAL48       0.0019
     52  CG2       13.6830  -28.9570   -4.3890 C.3    48  VAL48       0.0019
     53  N         16.3930  -27.0270  -11.6730 N.3    52  ARG52      -0.1231
     54  CA        15.0150  -27.4930  -11.8880 C.3    52  ARG52       0.1694
     55  C         14.0430  -26.3530  -11.6210 C.2    52  ARG52       0.2592
     56  O         13.0750  -26.1800  -12.3670 O.2    52  ARG52      -0.2718
     57  CB        14.6200  -28.7610  -11.0880 C.3    52  ARG52       0.0321
     58  CG        13.2980  -29.3700  -11.6190 C.3    52  ARG52       0.0489
     59  CD        12.7640  -30.6480  -10.9490 C.3    52  ARG52       0.2205
     60  NE        12.8160  -30.6230   -9.4820 N.pl3  52  ARG52      -0.0865
     61  CZ        13.8250  -31.0810   -8.7340 C.cat  52  ARG52       0.5346
     62  NH1       14.9150  -31.6180   -9.2910 N.pl3  52  ARG52       0.1354
     63  NH2       13.7480  -31.0060   -7.4040 N.pl3  52  ARG52       0.1354
     64  N         14.3100  -25.5620  -10.5860 N.am   53  TYR53      -0.1976
     65  CA        13.3530  -24.5420  -10.1880 C.3    53  TYR53       0.1639
     66  C         13.2160  -23.5130  -11.2760 C.2    53  TYR53       0.2290
     67  O         12.1090  -23.1390  -11.6330 O.2    53  TYR53      -0.2864
     68  CB        13.7320  -23.8500   -8.8790 C.3    53  TYR53       0.0560
     69  CG        12.5160  -23.3330   -8.1440 C.ar   53  TYR53      -0.0198
     70  CD1       11.7090  -24.2070   -7.4330 C.ar   53  TYR53      -0.0009
     71  CD2       12.1580  -21.9820   -8.1710 C.ar   53  TYR53      -0.0009
     72  CE1       10.5870  -23.7620   -6.7580 C.ar   53  TYR53       0.0417
     73  CE2       11.0320  -21.5240   -7.4910 C.ar   53  TYR53       0.0417
     74  CZ        10.2570  -22.4300   -6.7880 C.ar   53  TYR53       0.1957
     75  OH         9.1350  -22.0520   -6.1060 O.3    53  TYR53      -0.2866
     76  N         11.1570  -24.5140  -14.3230 N.3    56  LEU56      -0.1245
     77  CA         9.7380  -24.2720  -14.0310 C.3    56  LEU56       0.1561
     78  C          9.3830  -22.8030  -14.2680 C.2    56  LEU56       0.2260
     79  O          8.4710  -22.5040  -15.0410 O.2    56  LEU56      -0.2867
     80  CB         9.3970  -24.6870  -12.5880 C.3    56  LEU56       0.0270
     81  CG         8.0600  -24.2840  -11.9620 C.3    56  LEU56       0.0019
     82  CD1        6.9100  -24.7100  -12.8400 C.3    56  LEU56       0.0001
     83  CD2        7.9170  -24.9340  -10.6080 C.3    56  LEU56       0.0001
     84  N          1.8100  -38.3410   -3.8860 N.3   106  TYR106     -0.1241
     85  CA         1.5120  -37.0380   -3.2740 C.3   106  TYR106      0.1605
     86  C          0.3590  -36.3020   -3.9680 C.2   106  TYR106      0.2264
     87  O         -0.5110  -35.7810   -3.3040 O.2   106  TYR106     -0.2867
     88  CB         2.7650  -36.1190   -3.1600 C.3   106  TYR106      0.0534
     89  CG         2.3900  -34.6560   -2.9310 C.ar  106  TYR106     -0.0201
     90  CD1        1.7960  -34.2380   -1.7190 C.ar  106  TYR106     -0.0009
     91  CD2        2.5520  -33.7070   -3.9480 C.ar  106  TYR106     -0.0009
     92  CE1        1.3950  -32.9130   -1.5290 C.ar  106  TYR106      0.0417
     93  CE2        2.1620  -32.3760   -3.7720 C.ar  106  TYR106      0.0417
     94  CZ         1.5830  -31.9720   -2.5700 C.ar  106  TYR106      0.1957
     95  OH         1.1910  -30.6400   -2.4220 O.3   106  TYR106     -0.2866
     96  N          8.1600  -34.0650  -18.7030 N.3   255  LYS255     -0.1231
     97  CA         8.0160  -34.0780  -17.2600 C.3   255  LYS255      0.1693
     98  C          7.1040  -32.9390  -16.7510 C.2   255  LYS255      0.2592
     99  O          6.1740  -33.1620  -15.9570 O.2   255  LYS255     -0.2718
    100  CB         9.4130  -33.9860  -16.6420 C.3   255  LYS255      0.0285
    101  CG         9.4910  -33.8110  -15.1340 C.3   255  LYS255      0.0035
    102  CD         9.7330  -32.3710  -14.7640 C.3   255  LYS255      0.0206
    103  CE         9.9890  -32.2380  -13.2870 C.3   255  LYS255      0.1093
    104  NZ         8.9570  -32.9220  -12.4470 N.3   255  LYS255     -0.1314
    105  N          7.3710  -31.7180  -17.2080 N.am  256  PHE256     -0.1976
    106  CA         6.5400  -30.5600  -16.8270 C.3   256  PHE256      0.1639
    107  C          5.2700  -30.4180  -17.6810 C.2   256  PHE256      0.2290
    108  O          4.4420  -29.5670  -17.4110 O.2   256  PHE256     -0.2864
    109  CB         7.3520  -29.2610  -16.9040 C.3   256  PHE256      0.0560
    110  CG         8.2940  -29.0570  -15.7530 C.ar  256  PHE256     -0.0200
    111  CD1        7.8080  -28.7590  -14.4920 C.ar  256  PHE256     -0.0042
    112  CD2        9.6660  -29.1160  -15.9370 C.ar  256  PHE256     -0.0042
    113  CE1        8.6680  -28.5420  -13.4280 C.ar  256  PHE256     -0.0003
    114  CE2       10.5300  -28.9140  -14.8850 C.ar  256  PHE256     -0.0003
    115  CZ        10.0260  -28.6270  -13.6270 C.ar  256  PHE256     -0.0000
@<TRIPOS>BOND
     1    96    97    1
     2   107   108    2
     3   107   106    1
     4    97    98    1
     5    97   100    1
     6   105   106    1
     7   105    98   am
     8   109   106    1
     9   109   110    1
    10    98    99    2
    11   100   101    1
    12   112   110   ar
    13   112   114   ar
    14   110   111   ar
    15   101   102    1
    16    79    78    2
    17   114   115   ar
    18   102   103    1
    19   111   113   ar
    20    76    77    1
    21    78    77    1
    22    77    80    1
    23   115   113   ar
    24   103   104    1
    25    82    81    1
    26    80    81    1
    27    56    55    2
    28    81    83    1
    29    54    53    1
    30    54    55    1
    31    54    57    1
    32     8    10   ar
    33     8     6   ar
    34    67    66    2
    35    55    64   am
    36    58    57    1
    37    58    59    1
    38    10    11   ar
    39    66    65    1
    40     5     6    1
    41     5     2    1
    42     1     2    1
    43     6     7   ar
    44    59    60    1
    45    64    65    1
    46     2     3    1
    47    11     9   ar
    48    65    68    1
    49     7     9   ar
    50    60    61    2
    51    62    61    1
    52     3     4    2
    53     3    12   am
    54    68    69    1
    55    61    63    1
    56    12    13    1
    57    71    69   ar
    58    71    73   ar
    59    69    70   ar
    60    73    74   ar
    61    70    72   ar
    62    25    24    1
    63    74    72   ar
    64    74    75    1
    65    13    14    1
    66    13    16    1
    67    15    14    2
    68    51    50    1
    69    18    16    1
    70    14    19   am
    71    23    24    1
    72    23    20    1
    73    24    26    1
    74    16    17    1
    75    19    20    1
    76    48    49    2
    77    48    47    1
    78    20    21    1
    79    50    47    1
    80    50    52    1
    81    47    46    1
    82    86    87    2
    83    86    85    1
    84    91    93   ar
    85    91    89   ar
    86    21    27   am
    87    21    22    2
    88    84    85    1
    89    93    94   ar
    90    44    45   ar
    91    44    42   ar
    92    27    28    1
    93    85    88    1
    94    88    89    1
    95    45    43   ar
    96    42    40   ar
    97    89    90   ar
    98    94    95    1
    99    94    92   ar
   100    43    41   ar
   101    30    29    2
   102    40    41   ar
   103    40    39    1
   104    28    29    1
   105    28    31    1
   106    90    92   ar
   107    39    36    1
   108    31    32    1
   109    36    37    1
   110    36    35    1
   111    32    34   ar
   112    32    33   ar
   113    37    38    2
