@<TRIPOS>MOLECULE
tmp/6fn2A01.pdb
 212 209 0 0 0
SMALL
GASTEIGER

@<TRIPOS>ATOM
      1  N        -13.3930   21.2170   12.7210 N.3     7  TRP7       -0.1227
      2  CA       -13.8660   19.9290   12.2780 C.3     7  TRP7        0.1737
      3  C        -14.1580   20.0050   10.7720 C.2     7  TRP7        0.2595
      4  O        -14.9820   20.7910   10.3360 O.2     7  TRP7       -0.2718
      5  CB       -15.0810   19.5020   13.1170 C.3     7  TRP7        0.0564
      6  CG       -15.7150   18.1740   12.7400 C.ar    7  TRP7        0.0003
      7  CD1      -15.1080   17.1170   12.1540 C.ar    7  TRP7        0.0946
      8  CD2      -17.0810   17.7860   12.9480 C.ar    7  TRP7        0.0152
      9  NE1      -16.0040   16.0880   11.9750 N.ar    7  TRP7       -0.2442
     10  CE2      -17.2250   16.4770   12.4530 C.ar    7  TRP7        0.0810
     11  CE3      -18.1990   18.4250   13.4970 C.ar    7  TRP7        0.0012
     12  CZ2      -18.4400   15.7870   12.4920 C.ar    7  TRP7        0.0191
     13  CZ3      -19.4110   17.7360   13.5450 C.ar    7  TRP7        0.0001
     14  CH2      -19.5120   16.4230   13.0420 C.ar    7  TRP7        0.0015
     15  N        -13.4260   19.1980   10.0030 N.am    8  PHE8       -0.1962
     16  CA       -13.5710   19.0580    8.5560 C.3     8  PHE8        0.1771
     17  C        -14.4870   17.8750    8.2460 C.2     8  PHE8        0.2619
     18  O        -14.3670   16.8070    8.8480 O.2     8  PHE8       -0.2715
     19  CB       -12.2030   18.7840    7.9090 C.3     8  PHE8        0.0574
     20  CG       -11.2590   19.9400    7.9770 C.ar    8  PHE8       -0.0200
     21  CD1      -10.4320   20.1240    9.0810 C.ar    8  PHE8       -0.0042
     22  CD2      -11.2140   20.8720    6.9490 C.ar    8  PHE8       -0.0042
     23  CE1       -9.5570   21.2080    9.1500 C.ar    8  PHE8       -0.0003
     24  CE2      -10.3360   21.9450    7.0010 C.ar    8  PHE8       -0.0003
     25  CZ        -9.5120   22.1200    8.1150 C.ar    8  PHE8       -0.0000
     26  N        -15.4030   18.0720    7.3100 N.am    9  ARG9       -0.1963
     27  CA       -16.2800   16.9920    6.8420 C.3     9  ARG9        0.1729
     28  C        -16.2940   17.0940    5.3160 C.2     9  ARG9        0.2616
     29  O        -15.7750   16.2110    4.6190 O.2     9  ARG9       -0.2715
     30  CB       -17.6820   17.0740    7.4790 C.3     9  ARG9        0.0348
     31  CG       -17.6990   17.2900    8.9960 C.3     9  ARG9        0.0492
     32  CD       -17.6780   18.7750    9.3790 C.3     9  ARG9        0.2205
     33  NE       -18.8790   19.4550    8.8860 N.pl3   9  ARG9       -0.0865
     34  CZ       -20.0850   19.4030    9.4600 C.cat   9  ARG9        0.5346
     35  NH1      -21.1180   20.0370    8.8890 N.pl3   9  ARG9        0.1354
     36  NH2      -20.2680   18.7200   10.5970 N.pl3   9  ARG9        0.1354
     37  N        -16.8640   18.1870    4.8170 N.am   10  LYS10      -0.1977
     38  CA       -16.5030   18.7360    3.5240 C.3    10  LYS10       0.1596
     39  C        -15.5550   19.9040    3.8700 C.2    10  LYS10       0.2287
     40  O        -14.9820   19.9270    4.9670 O.2    10  LYS10      -0.2864
     41  CB       -17.7640   19.2180    2.7830 C.3    10  LYS10       0.0298
     42  CG       -18.8810   18.1980    2.6590 C.3    10  LYS10       0.0038
     43  CD       -20.0180   18.8060    1.8580 C.3    10  LYS10       0.0206
     44  CE       -21.1930   17.8500    1.6950 C.3    10  LYS10       0.1093
     45  NZ       -22.3720   18.4550    0.9740 N.3    10  LYS10      -0.1314
     46  N        -10.8010   15.4130   11.4240 N.3    34  PHE34      -0.1227
     47  CA       -11.7130   14.7480   10.4980 C.3    34  PHE34       0.1736
     48  C        -12.0710   13.4290   11.1600 C.2    34  PHE34       0.2595
     49  O        -11.1880   12.7090   11.6320 O.2    34  PHE34      -0.2718
     50  CB       -11.0370   14.5070    9.1600 C.3    34  PHE34       0.0547
     51  CG       -11.9360   13.9200    8.1150 C.ar   34  PHE34      -0.0202
     52  CD1      -12.0860   12.5420    7.9970 C.ar   34  PHE34      -0.0042
     53  CD2      -12.6010   14.7410    7.2120 C.ar   34  PHE34      -0.0042
     54  CE1      -12.9090   11.9990    7.0200 C.ar   34  PHE34      -0.0003
     55  CE2      -13.4300   14.2000    6.2200 C.ar   34  PHE34      -0.0003
     56  CZ       -13.5800   12.8320    6.1250 C.ar   34  PHE34      -0.0000
     57  N        -13.3590   13.1260   11.2190 N.am   35  VAL35      -0.1966
     58  CA       -13.8210   11.9110   11.8630 C.3    35  VAL35       0.1727
     59  C        -14.0590   10.8960   10.7550 C.2    35  VAL35       0.2616
     60  O        -14.9550   11.0630    9.9370 O.2    35  VAL35      -0.2715
     61  CB       -15.0760   12.1800   12.7150 C.3    35  VAL35       0.0290
     62  CG1      -15.6230   10.8990   13.3220 C.3    35  VAL35       0.0023
     63  CG2      -14.7450   13.1710   13.8290 C.3    35  VAL35       0.0023
     64  N        -13.2160    9.8660   10.7130 N.am   36  LEU36      -0.1963
     65  CA       -13.3620    8.7730    9.7490 C.3    36  LEU36       0.1728
     66  C        -14.5080    7.9050   10.2530 C.2    36  LEU36       0.2616
     67  O        -14.3400    7.0650   11.1510 O.2    36  LEU36      -0.2715
     68  CB       -12.0540    8.0030    9.5740 C.3    36  LEU36       0.0311
     69  CG       -11.8400    7.3700    8.1930 C.3    36  LEU36       0.0022
     70  CD1      -11.5780    8.4460    7.1380 C.3    36  LEU36       0.0001
     71  CD2      -10.6710    6.3950    8.2120 C.3    36  LEU36       0.0001
     72  N        -15.6760    8.1440    9.6640 N.am   37  ASP37      -0.1971
     73  CA       -16.9600    7.7780   10.2340 C.3    37  ASP37       0.1709
     74  C        -17.4480    6.4530    9.6010 C.2    37  ASP37       0.2293
     75  O        -17.5500    6.3600    8.3620 O.2    37  ASP37      -0.2864
     76  CB       -17.9120    8.9420    9.9530 C.3    37  ASP37       0.1436
     77  CG       -19.3290    8.7500   10.5040 C.2    37  ASP37       0.3671
     78  OD1      -19.7370    7.6280   10.8520 O.co2  37  ASP37      -0.2456
     79  OD2      -20.0420    9.7870   10.5710 O.co2  37  ASP37      -0.2456
     80  N        -20.0290    5.8030    6.4170 N.3    40  PHE40      -0.1241
     81  CA       -19.6970    5.8600    4.9940 C.3    40  PHE40       0.1605
     82  C        -18.9990    4.5810    4.5060 C.2    40  PHE40       0.2264
     83  O        -18.6980    4.4610    3.3200 O.2    40  PHE40      -0.2867
     84  CB       -18.8330    7.1020    4.7020 C.3    40  PHE40       0.0534
     85  CG       -19.4450    8.3930    5.1810 C.ar   40  PHE40      -0.0203
     86  CD1      -19.2400    8.8310    6.4860 C.ar   40  PHE40      -0.0042
     87  CD2      -20.2440    9.1590    4.3440 C.ar   40  PHE40      -0.0042
     88  CE1      -19.8130    9.9950    6.9400 C.ar   40  PHE40      -0.0003
     89  CE2      -20.8140   10.3290    4.8010 C.ar   40  PHE40      -0.0003
     90  CZ       -20.5940   10.7510    6.0940 C.ar   40  PHE40      -0.0000
     91  N        -25.5890    3.4900    1.8830 N.3    46  TYR46      -0.1241
     92  CA       -24.5100    4.3470    1.3570 C.3    46  TYR46       0.1605
     93  C        -23.4470    3.5030    0.6450 C.2    46  TYR46       0.2264
     94  O        -22.9030    2.5530    1.2140 O.2    46  TYR46      -0.2867
     95  CB       -23.8680    5.2740    2.4150 C.3    46  TYR46       0.0534
     96  CG       -23.0280    6.3670    1.7850 C.ar   46  TYR46      -0.0201
     97  CD1      -23.6330    7.4370    1.1440 C.ar   46  TYR46      -0.0009
     98  CD2      -21.6320    6.3110    1.7920 C.ar   46  TYR46      -0.0009
     99  CE1      -22.8820    8.4260    0.5460 C.ar   46  TYR46       0.0417
    100  CE2      -20.8730    7.3000    1.1880 C.ar   46  TYR46       0.0417
    101  CZ       -21.5080    8.3570    0.5740 C.ar   46  TYR46       0.1957
    102  OH       -20.7850    9.3470   -0.0290 O.3    46  TYR46      -0.2866
    103  N        -19.8540    3.4290   -1.9170 N.3    48  VAL48      -0.1245
    104  CA       -18.6430    4.1800   -2.2440 C.3    48  VAL48       0.1561
    105  C        -17.5570    3.2750   -2.8390 C.2    48  VAL48       0.2260
    106  O        -17.1480    2.3030   -2.2210 O.2    48  VAL48      -0.2867
    107  CB       -18.1070    4.9850   -1.0160 C.3    48  VAL48       0.0252
    108  CG1      -17.6530    4.0780    0.1100 C.3    48  VAL48       0.0019
    109  CG2      -16.9890    5.9270   -1.4270 C.3    48  VAL48       0.0019
    110  N        -13.6430    6.9940   -5.2030 N.3    52  ARG52      -0.1231
    111  CA       -14.0530    8.1520   -4.4200 C.3    52  ARG52       0.1694
    112  C        -13.3650    8.1710   -3.0790 C.2    52  ARG52       0.2592
    113  O        -12.8440    9.2050   -2.6880 O.2    52  ARG52      -0.2718
    114  CB       -15.5680    8.2870   -4.2100 C.3    52  ARG52       0.0321
    115  CG       -15.9070    9.6230   -3.5240 C.3    52  ARG52       0.0489
    116  CD       -17.2950   10.1990   -3.8020 C.3    52  ARG52       0.2205
    117  NE       -18.3250    9.5010   -3.0390 N.pl3  52  ARG52      -0.0865
    118  CZ       -18.9890    8.4110   -3.4180 C.cat  52  ARG52       0.5346
    119  NH1      -18.7920    7.8260   -4.6140 N.pl3  52  ARG52       0.1354
    120  NH2      -19.8890    7.9020   -2.5840 N.pl3  52  ARG52       0.1354
    121  N        -13.3510    7.0390   -2.3850 N.am   53  TYR53      -0.1976
    122  CA       -12.7520    6.9870   -1.0620 C.3    53  TYR53       0.1639
    123  C        -11.2430    7.3320   -1.0850 C.2    53  TYR53       0.2290
    124  O        -10.7470    8.0480   -0.2070 O.2    53  TYR53      -0.2864
    125  CB       -13.0030    5.6310   -0.3750 C.3    53  TYR53       0.0560
    126  CG       -13.0380    5.7770    1.1180 C.ar   53  TYR53      -0.0198
    127  CD1      -11.8620    5.8440    1.8480 C.ar   53  TYR53      -0.0009
    128  CD2      -14.2470    5.9050    1.8000 C.ar   53  TYR53      -0.0009
    129  CE1      -11.8860    5.9940    3.2240 C.ar   53  TYR53       0.0417
    130  CE2      -14.2820    6.0680    3.1780 C.ar   53  TYR53       0.0417
    131  CZ       -13.0950    6.1160    3.8840 C.ar   53  TYR53       0.1957
    132  OH       -13.0880    6.2800    5.2470 O.3    53  TYR53      -0.2866
    133  N        -10.9310   11.1290   -1.4580 N.3    56  LEU56      -0.1245
    134  CA       -11.0080   11.6430   -0.0820 C.3    56  LEU56       0.1561
    135  C         -9.6890   11.5350    0.7170 C.2    56  LEU56       0.2260
    136  O         -9.2180   12.5160    1.2730 O.2    56  LEU56      -0.2867
    137  CB       -12.1330   10.9430    0.6770 C.3    56  LEU56       0.0270
    138  CG       -12.2660   11.2130    2.1780 C.3    56  LEU56       0.0019
    139  CD1      -12.4990   12.6890    2.4320 C.3    56  LEU56       0.0001
    140  CD2      -13.4200   10.3960    2.7300 C.3    56  LEU56       0.0001
    141  N        -19.0540   10.3800   15.2770 N.3    81  PRO81      -0.2116
    142  CA       -18.8870   11.6980   15.9170 C.3    81  PRO81       0.1372
    143  C        -19.5620   11.8580   17.2980 C.2    81  PRO81       0.2244
    144  O        -18.9820   12.4690   18.1800 O.2    81  PRO81      -0.2868
    145  CB       -19.4850   12.6650   14.8960 C.3    81  PRO81       0.0268
    146  CG       -19.3970   11.9580   13.5880 C.3    81  PRO81       0.0207
    147  CD       -19.4840   10.4940   13.8700 C.3    81  PRO81       0.0892
    148  N        -23.3110   22.0660    6.6930 N.3   102  ASP102     -0.1239
    149  CA       -23.8010   21.2800    5.5450 C.3   102  ASP102      0.1674
    150  C        -25.2920   21.0060    5.7380 C.2   102  ASP102      0.2266
    151  O        -25.8130   21.0770    6.8570 O.2   102  ASP102     -0.2867
    152  CB       -23.0220   19.9720    5.3340 C.3   102  ASP102      0.1410
    153  CG       -23.3600   19.2880    3.9820 C.2   102  ASP102      0.3668
    154  OD1      -23.5390   19.9930    2.9470 O.co2 102  ASP102     -0.2456
    155  OD2      -23.4600   18.0480    3.9540 O.co2 102  ASP102     -0.2456
    156  N        -27.1160   18.3230    4.0100 N.3   104  GLU104     -0.1245
    157  CA       -27.5620   16.9610    3.6970 C.3   104  GLU104      0.1567
    158  C        -28.2940   16.3340    4.8840 C.2   104  GLU104      0.2260
    159  O        -28.0950   16.7800    6.0180 O.2   104  GLU104     -0.2867
    160  CB       -26.3930   16.0760    3.3130 C.3   104  GLU104      0.0388
    161  CG       -25.7030   16.5390    2.0450 C.3   104  GLU104      0.1160
    162  CD       -24.6550   15.5710    1.5680 C.2   104  GLU104      0.3649
    163  OE1      -24.5960   14.4340    2.0970 O.co2 104  GLU104     -0.2457
    164  OE2      -23.8900   15.9440    0.6570 O.co2 104  GLU104     -0.2457
    165  N        -27.9630   13.3560    6.5090 N.3   106  TYR106     -0.1227
    166  CA       -27.0510   12.8300    7.5290 C.3   106  TYR106      0.1736
    167  C        -26.3890   13.9730    8.3080 C.2   106  TYR106      0.2595
    168  O        -26.3790   13.9680    9.5390 O.2   106  TYR106     -0.2718
    169  CB       -25.9740   11.9250    6.9300 C.3   106  TYR106      0.0548
    170  CG       -25.0320   11.3730    7.9850 C.ar  106  TYR106     -0.0200
    171  CD1      -25.5170   10.5690    9.0290 C.ar  106  TYR106     -0.0009
    172  CD2      -23.6600   11.6450    7.9490 C.ar  106  TYR106     -0.0009
    173  CE1      -24.6690   10.0510   10.0000 C.ar  106  TYR106      0.0417
    174  CE2      -22.8030   11.1390    8.9190 C.ar  106  TYR106      0.0417
    175  CZ       -23.3150   10.3380    9.9430 C.ar  106  TYR106      0.1957
    176  OH       -22.4860    9.8390   10.9190 O.3   106  TYR106     -0.2866
    177  N        -25.8640   14.9520    7.5710 N.am  107  ALA107     -0.1980
    178  CA       -25.2350   16.1180    8.1640 C.3   107  ALA107      0.1597
    179  C        -26.1370   16.7970    9.2150 C.2   107  ALA107      0.2287
    180  O        -25.6660   17.1040   10.3070 O.2   107  ALA107     -0.2864
    181  CB       -24.8380   17.1010    7.0920 C.3   107  ALA107      0.0319
    182  N        -26.4600   14.3160   12.3370 N.3   110  ARG110     -0.1245
    183  CA       -25.1360   14.3490   12.9660 C.3   110  ARG110      0.1563
    184  C        -24.8790   15.6890   13.6420 C.2   110  ARG110      0.2260
    185  O        -24.5030   15.7170   14.8180 O.2   110  ARG110     -0.2867
    186  CB       -24.0550   14.0690   11.9220 C.3   110  ARG110      0.0307
    187  CG       -22.6100   14.0900   12.4160 C.3   110  ARG110      0.0489
    188  CD       -21.6480   14.0460   11.2430 C.3   110  ARG110      0.2205
    189  NE       -21.8400   15.1980   10.3360 N.pl3 110  ARG110     -0.0865
    190  CZ       -21.3700   15.2870    9.0860 C.cat 110  ARG110      0.5346
    191  NH1      -20.6440   14.3090    8.5530 N.pl3 110  ARG110      0.1354
    192  NH2      -21.6110   16.3810    8.3670 N.pl3 110  ARG110      0.1354
    193  N        -17.3230   19.1700   -4.6200 N.3   255  LYS255     -0.1231
    194  CA       -18.0350   18.2190   -3.7910 C.3   255  LYS255      0.1693
    195  C        -17.4020   18.0390   -2.3960 C.2   255  LYS255      0.2592
    196  O        -18.1090   18.1330   -1.3710 O.2   255  LYS255     -0.2718
    197  CB       -18.1620   16.8830   -4.5190 C.3   255  LYS255      0.0285
    198  CG       -18.9440   15.8400   -3.7400 C.3   255  LYS255      0.0035
    199  CD       -18.0280   14.8980   -2.9380 C.3   255  LYS255      0.0206
    200  CE       -18.5760   14.6030   -1.5350 C.3   255  LYS255      0.1093
    201  NZ       -19.7390   13.6880   -1.5740 N.3   255  LYS255     -0.1314
    202  N        -16.0790   17.8320   -2.3710 N.am  256  PHE256     -0.1976
    203  CA       -15.3260   17.7080   -1.1140 C.3   256  PHE256      0.1639
    204  C        -14.9210   19.0450   -0.4700 C.2   256  PHE256      0.2290
    205  O        -14.5180   19.1070    0.7000 O.2   256  PHE256     -0.2864
    206  CB       -14.1070   16.7950   -1.3050 C.3   256  PHE256      0.0560
    207  CG       -14.4610   15.3510   -1.3310 C.ar  256  PHE256     -0.0200
    208  CD1      -14.8690   14.7130   -0.1640 C.ar  256  PHE256     -0.0042
    209  CD2      -14.4550   14.6320   -2.5220 C.ar  256  PHE256     -0.0042
    210  CE1      -15.2300   13.3680   -0.1680 C.ar  256  PHE256     -0.0003
    211  CE2      -14.8220   13.2920   -2.5450 C.ar  256  PHE256     -0.0003
    212  CZ       -15.1910   12.6580   -1.3610 C.ar  256  PHE256     -0.0000
@<TRIPOS>BOND
     1   110   111    1
     2   193   194    1
     3   119   118    1
     4   197   194    1
     5   197   198    1
     6   111   114    1
     7   111   112    1
     8   114   115    1
     9   116   115    1
    10   116   117    1
    11   194   195    1
    12   198   199    1
    13   118   117    2
    14   118   120    1
    15   112   113    2
    16   112   121   am
    17   199   200    1
    18   105   104    1
    19   105   106    2
    20   211   209   ar
    21   211   212   ar
    22   209   207   ar
    23   195   202   am
    24   195   196    2
    25   121   122    1
    26   202   203    1
    27   104   103    1
    28   104   107    1
    29   201   200    1
    30   133   134    1
    31   109   107    1
    32   212   210   ar
    33   207   206    1
    34   207   208   ar
    35   206   203    1
    36   203   204    1
    37   123   122    1
    38   123   124    2
    39   122   125    1
    40   107   108    1
    41   204   205    2
    42   125   126    1
    43   210   208   ar
    44   134   137    1
    45   134   135    1
    46   102   101    1
    47    99   101   ar
    48    99    97   ar
    49   101   100   ar
    50    93    94    2
    51    93    92    1
    52   164   162   ar
    53   137   138    1
    54   135   136    2
    55    45    44    1
    56   126   128   ar
    57   126   127   ar
    58    97    96   ar
    59   100    98   ar
    60    92    91    1
    61    92    95    1
    62   162   161    1
    63   162   163   ar
    64    44    43    1
    65    96    98   ar
    66    96    95    1
    67   128   130   ar
    68   127   129   ar
    69    43    42    1
    70   161   160    1
    71   138   139    1
    72   138   140    1
    73    42    41    1
    74    41    38    1
    75   154   153   ar
    76   130   131   ar
    77   129   131   ar
    78   160   157    1
    79    83    82    2
    80    38    39    1
    81    38    37    1
    82   157   156    1
    83   157   158    1
    84    39    40    2
    85   131   132    1
    86   155   153   ar
    87   153   152    1
    88    87    89   ar
    89    87    85   ar
    90    82    81    1
    91    29    28    2
    92    84    81    1
    93    84    85    1
    94    89    90   ar
    95    37    28   am
    96   158   159    2
    97    81    80    1
    98    85    86   ar
    99    28    27    1
   100   152   149    1
   101   149   150    1
   102   149   148    1
   103   150   151    2
   104    90    88   ar
   105    56    55   ar
   106    56    54   ar
   107    55    53   ar
   108    86    88   ar
   109   165   166    1
   110    27    26    1
   111    27    30    1
   112   169   166    1
   113   169   170    1
   114    22    24   ar
   115    22    20   ar
   116    24    25   ar
   117    54    52   ar
   118   181   178    1
   119    70    69    1
   120    53    51   ar
   121    26    17   am
   122    30    31    1
   123   166   167    1
   124   177   178    1
   125   177   167   am
   126    19    20    1
   127    19    16    1
   128   172   170   ar
   129   172   174   ar
   130    20    21   ar
   131   170   171   ar
   132    52    51   ar
   133    51    50    1
   134    25    23   ar
   135   178   179    1
   136    69    71    1
   137    69    68    1
   138    17    16    1
   139    17    18    2
   140   167   168    2
   141    75    74    2
   142   192   190    1
   143   191   190    1
   144    16    15    1
   145    33    32    1
   146    33    34    2
   147    35    34    1
   148   174   175   ar
   149    31    32    1
   150   171   173   ar
   151    21    23   ar
   152   190   189    2
   153    50    47    1
   154   179   180    2
   155    34    36    1
   156    68    65    1
   157    74    73    1
   158    72    73    1
   159    72    66   am
   160    65    66    1
   161    65    64    1
   162    60    59    2
   163   175   173   ar
   164   175   176    1
   165    76    73    1
   166    76    77    1
   167    15     3   am
   168    66    67    2
   169     4     3    2
   170   189   188    1
   171    47    48    1
   172    47    46    1
   173    77    79   ar
   174    77    78   ar
   175    64    59   am
   176    59    58    1
   177     3     2    1
   178    48    57   am
   179    48    49    2
   180    57    58    1
   181   188   187    1
   182    58    61    1
   183   186   187    1
   184   186   183    1
   185     9     7   ar
   186     9    10   ar
   187     7     6   ar
   188     2     1    1
   189     2     5    1
   190   182   183    1
   191    10    12   ar
   192    10     8   ar
   193    12    14   ar
   194    61    62    1
   195    61    63    1
   196     6     8   ar
   197     6     5    1
   198     8    11   ar
   199   183   184    1
   200    14    13   ar
   201    11    13   ar
   202   146   147    1
   203   146   145    1
   204   184   185    2
   205   147   141    1
   206   145   142    1
   207   141   142    1
   208   142   143    1
   209   143   144    2
