@<TRIPOS>MOLECULE
tmp/6fn5A00.pdb
 173 162 0 0 0
SMALL
GASTEIGER

@<TRIPOS>ATOM
      1  N        -19.9660   20.1370   38.0280 N.3    21  ILE21      -0.1231
      2  CA       -19.6240   19.5910   39.3360 C.3    21  ILE21       0.1692
      3  C        -18.3960   20.3130   39.8790 C.2    21  ILE21       0.2593
      4  O        -18.4500   20.9240   40.9520 O.2    21  ILE21      -0.2718
      5  CB       -19.3970   18.0690   39.2710 C.3    21  ILE21       0.0266
      6  CG1      -20.7370   17.3500   39.1070 C.3    21  ILE21       0.0019
      7  CG2      -18.6750   17.5810   40.5160 C.3    21  ILE21       0.0020
      8  CD1      -20.6330   15.8480   39.1200 C.3    21  ILE21       0.0001
      9  N        -17.2900   20.2600   39.1470 N.am   22  GLY22      -0.1942
     10  CA       -16.0830   20.9190   39.6050 C.3    22  GLY22       0.2014
     11  C        -15.0700   21.0850   38.4910 C.2    22  GLY22       0.2638
     12  O        -15.3670   20.8710   37.3140 O.2    22  GLY22      -0.2714
     13  N        -13.8570   21.4680   38.8850 N.am   23  GLU23      -0.1977
     14  CA       -12.8170   21.8040   37.9170 C.3    23  GLU23       0.1602
     15  C        -11.4140   21.4030   38.3790 C.2    23  GLU23       0.2287
     16  O        -11.2480   20.6970   39.3750 O.2    23  GLU23      -0.2864
     17  CB       -12.8500   23.3040   37.6180 C.3    23  GLU23       0.0415
     18  CG       -12.0610   23.7000   36.3850 C.3    23  GLU23       0.1163
     19  CD       -11.9800   25.2010   36.2000 C.2    23  GLU23       0.3649
     20  OE1      -13.0200   25.8800   36.3320 O.co2  23  GLU23      -0.2457
     21  OE2      -10.8680   25.7020   35.9300 O.co2  23  GLU23      -0.2457
     22  N         -8.5680   20.1530   33.1790 N.3    25  GLY25      -0.1210
     23  CA        -9.6650   19.2240   33.3400 C.3    25  GLY25       0.1956
     24  C        -10.9260   19.9100   33.8200 C.2    25  GLY25       0.2612
     25  O        -10.9430   21.1160   34.0710 O.2    25  GLY25      -0.2717
     26  N        -11.9880   19.1130   33.9570 N.am   26  MET26      -0.1965
     27  CA       -13.3060   19.5860   34.3610 C.3    26  MET26       0.1736
     28  C        -14.2510   18.3980   34.4830 C.2    26  MET26       0.2616
     29  O        -14.2090   17.4850   33.6550 O.2    26  MET26      -0.2715
     30  CB       -13.8590   20.5930   33.3490 C.3    26  MET26       0.0427
     31  CG       -15.2140   21.1450   33.7070 C.3    26  MET26       0.0599
     32  SD       -15.6050   22.5360   32.6430 S.3    26  MET26      -0.1393
     33  CE       -17.2000   23.0020   33.2770 C.3    26  MET26       0.0692
     34  N        -15.1060   18.4240   35.5080 N.am   27  VAL27      -0.1977
     35  CA       -15.9860   17.3060   35.8380 C.3    27  VAL27       0.1596
     36  C        -17.4320   17.7850   35.8540 C.2    27  VAL27       0.2287
     37  O        -17.7410   18.8340   36.4300 O.2    27  VAL27      -0.2864
     38  CB       -15.6110   16.6700   37.1940 C.3    27  VAL27       0.0276
     39  CG1      -16.5210   15.4920   37.4980 C.3    27  VAL27       0.0022
     40  CG2      -14.1520   16.2340   37.1890 C.3    27  VAL27       0.0022
     41  N        -20.9970   10.3880   36.0230 N.3    40  ALA40      -0.1245
     42  CA       -19.9860   11.4320   36.0960 C.3    40  ALA40       0.1562
     43  C        -19.0680   11.3450   34.8850 C.2    40  ALA40       0.2260
     44  O        -18.7280   10.2490   34.4250 O.2    40  ALA40      -0.2867
     45  CB       -19.1610   11.3160   37.3790 C.3    40  ALA40       0.0290
     46  N        -15.4630   13.3450   33.3650 N.3    42  LYS42      -0.1245
     47  CA       -14.4140   14.3500   33.4660 C.3    42  LYS42       0.1561
     48  C        -13.7260   14.5350   32.1190 C.2    42  LYS42       0.2260
     49  O        -13.3630   13.5580   31.4520 O.2    42  LYS42      -0.2867
     50  CB       -13.3970   14.0150   34.5610 C.3    42  LYS42       0.0271
     51  CG       -12.6190   12.7400   34.4040 C.3    42  LYS42       0.0035
     52  CD       -11.5680   12.6670   35.4970 C.3    42  LYS42       0.0206
     53  CE       -10.5940   11.5290   35.2790 C.3    42  LYS42       0.1093
     54  NZ        -9.5030   11.5800   36.2980 N.3    42  LYS42      -0.1314
     55  N         -3.1640    6.9630   34.8160 N.3    59  GLU59      -0.1245
     56  CA        -4.5150    6.8060   35.3420 C.3    59  GLU59       0.1567
     57  C         -5.3470    5.8690   34.4750 C.2    59  GLU59       0.2260
     58  O         -6.0350    4.9730   34.9840 O.2    59  GLU59      -0.2867
     59  CB        -5.1820    8.1740   35.4420 C.3    59  GLU59       0.0388
     60  CG        -6.6910    8.1060   35.5800 C.3    59  GLU59       0.1160
     61  CD        -7.2070    9.0960   36.5980 C.2    59  GLU59       0.3649
     62  OE1       -7.6700   10.1860   36.1970 O.co2  59  GLU59      -0.2457
     63  OE2       -7.1220    8.7890   37.8060 O.co2  59  GLU59      -0.2457
     64  N        -12.6210    3.5290   41.8890 N.3    72  ILE72      -0.1245
     65  CA       -13.4950    4.0340   40.8380 C.3    72  ILE72       0.1561
     66  C        -13.1490    3.3430   39.5280 C.2    72  ILE72       0.2260
     67  O        -11.9750    3.1330   39.1900 O.2    72  ILE72      -0.2867
     68  CB       -13.4120    5.5650   40.7090 C.3    72  ILE72       0.0252
     69  CG1      -14.5810    6.0980   39.8650 C.3    72  ILE72       0.0019
     70  CG2      -12.1130    5.9920   40.0620 C.3    72  ILE72       0.0019
     71  CD1      -15.9830    5.8500   40.4530 C.3    72  ILE72       0.0001
     72  N        -17.5450    7.8130   34.5140 N.3    93  GLN93      -0.1231
     73  CA       -17.4420    7.0340   35.7370 C.3    93  GLN93       0.1698
     74  C        -18.8020    7.0050   36.4140 C.2    93  GLN93       0.2592
     75  O        -19.6890    7.8070   36.1030 O.2    93  GLN93      -0.2718
     76  CB       -16.3630    7.6120   36.6750 C.3    93  GLN93       0.0381
     77  CG       -14.9500    7.6150   36.0630 C.3    93  GLN93       0.0905
     78  CD       -13.8750    8.1810   36.9840 C.2    93  GLN93       0.2608
     79  OE1      -14.1570    8.9630   37.8930 O.2    93  GLN93      -0.2717
     80  NE2      -12.6300    7.7780   36.7520 N.am   93  GLN93      -0.0878
     81  N        -18.9690    6.0590   37.3370 N.am   94  ASP94      -0.1960
     82  CA       -20.1510    6.0830   38.1890 C.3    94  ASP94       0.1840
     83  C        -20.2390    7.4280   38.8950 C.2    94  ASP94       0.2622
     84  O        -19.2230    7.9960   39.3140 O.2    94  ASP94      -0.2715
     85  CB       -20.0970    4.9630   39.2300 C.3    94  ASP94       0.1450
     86  CG       -20.1520    3.5870   38.6130 C.2    94  ASP94       0.3671
     87  OD1      -20.6690    3.4520   37.4830 O.co2  94  ASP94      -0.2456
     88  OD2      -19.6750    2.6380   39.2730 O.co2  94  ASP94      -0.2456
     89  N        -21.4570    7.9360   39.0240 N.am   95  LEU95      -0.1963
     90  CA       -21.6730    9.2140   39.6810 C.3    95  LEU95       0.1728
     91  C        -21.6290    9.0330   41.1920 C.2    95  LEU95       0.2616
     92  O        -22.2800    8.1370   41.7410 O.2    95  LEU95      -0.2715
     93  CB       -23.0090    9.8200   39.2540 C.3    95  LEU95       0.0311
     94  CG       -23.4280   11.1130   39.9570 C.3    95  LEU95       0.0022
     95  CD1      -22.5360   12.2690   39.5670 C.3    95  LEU95       0.0001
     96  CD2      -24.8870   11.4480   39.6760 C.3    95  LEU95       0.0001
     97  N        -20.8600    9.8840   41.8590 N.am   96  MET96      -0.1963
     98  CA       -20.7360    9.8640   43.3060 C.3    96  MET96       0.1736
     99  C        -21.2910   11.1700   43.8550 C.2    96  MET96       0.2616
    100  O        -21.2550   12.2050   43.1840 O.2    96  MET96      -0.2715
    101  CB       -19.2750    9.6590   43.7240 C.3    96  MET96       0.0427
    102  CG       -18.6100    8.4400   43.0710 C.3    96  MET96       0.0599
    103  SD       -19.3080    6.8390   43.5680 S.3    96  MET96      -0.1393
    104  CE       -18.4850    6.5750   45.1400 C.3    96  MET96       0.0692
    105  N        -21.8250   11.1170   45.0730 N.am   97  GLU97      -0.1963
    106  CA       -22.4840   12.2940   45.6360 C.3    97  GLU97       0.1733
    107  C        -21.4810   13.3490   46.0970 C.2    97  GLU97       0.2617
    108  O        -21.7150   14.5510   45.9130 O.2    97  GLU97      -0.2715
    109  CB       -23.3950   11.8840   46.7960 C.3    97  GLU97       0.0429
    110  CG       -23.9910   13.0670   47.5470 C.3    97  GLU97       0.1163
    111  CD       -25.2350   12.7090   48.3280 C.2    97  GLU97       0.3649
    112  OE1      -25.1220   11.9660   49.3260 O.co2  97  GLU97      -0.2457
    113  OE2      -26.3290   13.1620   47.9330 O.co2  97  GLU97      -0.2457
    114  N        -20.3650   12.9240   46.6920 N.am   98  THR98      -0.1937
    115  CA       -19.3800   13.8470   47.2370 C.3    98  THR98       0.2028
    116  C        -18.0340   13.1280   47.3190 C.2    98  THR98       0.2642
    117  O        -17.8820   11.9980   46.8450 O.2    98  THR98      -0.2714
    118  CB       -19.8390   14.3750   48.6040 C.3    98  THR98       0.1808
    119  OG1      -18.9360   15.3860   49.0640 O.3    98  THR98      -0.2208
    120  CG2      -19.9030   13.2390   49.6330 C.3    98  THR98       0.0379
    121  N        -17.0440   13.8010   47.9050 N.am   99  ASP99      -0.1971
    122  CA       -15.7950   13.1520   48.2890 C.3    99  ASP99       0.1709
    123  C        -15.5080   13.4900   49.7450 C.2    99  ASP99       0.2293
    124  O        -16.1460   14.3630   50.3360 O.2    99  ASP99      -0.2864
    125  CB       -14.6110   13.5520   47.3810 C.3    99  ASP99       0.1436
    126  CG       -14.2870   15.0450   47.4340 C.2    99  ASP99       0.3671
    127  OD1      -13.9570   15.5580   48.5240 O.co2  99  ASP99      -0.2456
    128  OD2      -14.3400   15.7080   46.3710 O.co2  99  ASP99      -0.2456
    129  N        -14.7080   17.2350   50.7360 N.3   102  LYS102     -0.1245
    130  CA       -15.8880   18.0890   50.8230 C.3   102  LYS102      0.1561
    131  C        -16.7610   17.7100   52.0140 C.2   102  LYS102      0.2260
    132  O        -17.2870   18.5850   52.7090 O.2   102  LYS102     -0.2867
    133  CB       -16.6840   18.0090   49.5170 C.3   102  LYS102      0.0271
    134  CG       -16.0930   18.8550   48.3990 C.3   102  LYS102      0.0035
    135  CD       -16.1480   18.1690   47.0540 C.3   102  LYS102      0.0206
    136  CE       -17.5630   17.8380   46.6360 C.3   102  LYS102      0.1093
    137  NZ       -17.5660   17.0430   45.3760 N.3   102  LYS102     -0.1314
    138  N         -9.5840   14.2100   49.2350 N.3   141  SER141     -0.1202
    139  CA       -10.2490   14.5360   47.9800 C.3   141  SER141      0.2020
    140  C        -10.1570   13.4170   46.9480 C.2   141  SER141      0.2618
    141  O        -10.8910   13.4600   45.9570 O.2   141  SER141     -0.2717
    142  CB        -9.6930   15.8350   47.3970 C.3   141  SER141      0.2103
    143  OG        -8.3070   15.7220   47.1470 O.3   141  SER141     -0.2182
    144  N         -9.3050   12.4120   47.1510 N.am  142  ASN142     -0.1974
    145  CA        -9.2080   11.3010   46.2130 C.3   142  ASN142      0.1688
    146  C         -9.9920   10.0780   46.6830 C.2   142  ASN142      0.2292
    147  O         -9.7430    8.9660   46.2060 O.2   142  ASN142     -0.2864
    148  CB        -7.7380   10.9540   45.9450 C.3   142  ASN142      0.1181
    149  CG        -7.0480   11.9820   45.0430 C.2   142  ASN142      0.2629
    150  OD1       -7.6890   12.6240   44.1970 O.2   142  ASN142     -0.2716
    151  ND2       -5.7410   12.1490   45.2260 N.am  142  ASN142     -0.0877
    152  N        -13.9720    9.0160   46.9030 N.3   144  LEU144     -0.1245
    153  CA       -15.3280    9.4070   46.5170 C.3   144  LEU144      0.1561
    154  C        -16.3740    8.6030   47.2840 C.2   144  LEU144      0.2260
    155  O        -16.1830    7.4160   47.5620 O.2   144  LEU144     -0.2867
    156  CB       -15.5430    9.2090   45.0150 C.3   144  LEU144      0.0270
    157  CG       -14.5280    9.8150   44.0400 C.3   144  LEU144      0.0019
    158  CD1      -14.7550    9.2630   42.6360 C.3   144  LEU144      0.0001
    159  CD2      -14.6200   11.3300   44.0340 C.3   144  LEU144      0.0001
    160  N         -9.8810    7.1780   43.8800 N.3   153  CYS153     -0.1221
    161  CA        -9.7220    7.6980   42.5230 C.3   153  CYS153      0.1808
    162  C         -8.3670    8.3970   42.3800 C.2   153  CYS153      0.2601
    163  O         -7.5630    8.4450   43.3160 O.2   153  CYS153     -0.2717
    164  CB       -10.8650    8.6590   42.1590 C.3   153  CYS153      0.0970
    165  SG       -10.8520   10.2400   43.0630 S.3   153  CYS153     -0.0800
    166  N         -8.1210    8.9240   41.1730 N.am  154  ASP154     -0.1973
    167  CA        -6.9260    9.6820   40.7860 C.3   154  ASP154      0.1709
    168  C         -5.6330    8.8930   40.9740 C.2   154  ASP154      0.2293
    169  O         -5.0010    8.9560   42.0340 O.2   154  ASP154     -0.2864
    170  CB        -6.8440   11.0060   41.5520 C.3   154  ASP154      0.1436
    171  CG        -5.6620   11.8740   41.1140 C.2   154  ASP154      0.3671
    172  OD1       -4.9510   11.5120   40.1490 O.co2 154  ASP154     -0.2456
    173  OD2       -5.4400   12.9300   41.7460 O.co2 154  ASP154     -0.2456
@<TRIPOS>BOND
     1    49    48    2
     2    48    47    1
     3    32    33    1
     4    32    31    1
     5    22    23    1
     6    23    24    1
     7    30    31    1
     8    30    27    1
     9    46    47    1
    10    47    50    1
    11    29    28    2
    12    24    26   am
    13    24    25    2
    14    26    27    1
    15    27    28    1
    16    51    50    1
    17    51    52    1
    18    44    43    2
    19    57    58    2
    20    57    56    1
    21    28    34   am
    22    72    73    1
    23    55    56    1
    24    43    42    1
    25    53    52    1
    26    53    54    1
    27    56    59    1
    28    59    60    1
    29    34    35    1
    30    60    61    1
    31    73    74    1
    32    73    76    1
    33    35    36    1
    34    35    38    1
    35    36    37    2
    36    21    19   ar
    37    41    42    1
    38    77    76    1
    39    77    78    1
    40    42    45    1
    41    75    74    2
    42    62    61   ar
    43    19    20   ar
    44    19    18    1
    45    18    17    1
    46    74    81   am
    47    61    63   ar
    48    80    78   am
    49    78    79    2
    50    40    38    1
    51    38    39    1
    52    12    11    2
    53    81    82    1
    54    87    86   ar
    55    17    14    1
    56    14    15    1
    57    14    13    1
    58     1     2    1
    59    82    83    1
    60    82    85    1
    61    15    16    2
    62    11    13   am
    63    11    10    1
    64    86    85    1
    65    86    88   ar
    66    83    89   am
    67    83    84    2
    68    89    90    1
    69     6     8    1
    70     6     5    1
    71     9    10    1
    72     9     3   am
    73    67    66    2
    74    93    90    1
    75    93    94    1
    76     5     2    1
    77     5     7    1
    78     2     3    1
    79    66    65    1
    80    95    94    1
    81    96    94    1
    82    90    91    1
    83    69    71    1
    84    69    68    1
    85     3     4    2
    86    70    68    1
    87   172   171   ar
    88    68    65    1
    89   167   168    1
    90   167   166    1
    91   167   170    1
    92    65    64    1
    93   168   169    2
    94   171   170    1
    95   171   173   ar
    96   166   162   am
    97    91    92    2
    98    91    97   am
    99    97    98    1
   100   164   161    1
   101   164   165    1
   102   162   161    1
   103   162   163    2
   104   161   160    1
   105   158   157    1
   106   102   103    1
   107   102   101    1
   108   100    99    2
   109    98   101    1
   110    98    99    1
   111   103   104    1
   112    99   105   am
   113   159   157    1
   114   157   156    1
   115   150   149    2
   116   156   153    1
   117   149   151   am
   118   149   148    1
   119   105   106    1
   120   137   136    1
   121   106   107    1
   122   106   109    1
   123   108   107    2
   124   148   145    1
   125   141   140    2
   126   107   114   am
   127   147   146    2
   128   145   146    1
   129   145   144    1
   130   128   126   ar
   131   153   152    1
   132   153   154    1
   133   136   135    1
   134   114   115    1
   135   109   110    1
   136   117   116    2
   137   140   144   am
   138   140   139    1
   139   135   134    1
   140   143   142    1
   141   115   116    1
   142   115   118    1
   143   154   155    2
   144   116   121   am
   145   125   126    1
   146   125   122    1
   147   142   139    1
   148   126   127   ar
   149   110   111    1
   150   121   122    1
   151   113   111   ar
   152   139   138    1
   153   122   123    1
   154   111   112   ar
   155   134   133    1
   156   118   119    1
   157   118   120    1
   158   133   130    1
   159   123   124    2
   160   129   130    1
   161   130   131    1
   162   131   132    2
