@<TRIPOS>MOLECULE
tmp/6fnbA01.pdb
 141 131 0 0 0
SMALL
GASTEIGER

@<TRIPOS>ATOM
      1  N         11.8590    1.6360    9.9600 N.3    49  LYS49      -0.1231
      2  CA        11.6390    2.7630    9.0490 C.3    49  LYS49       0.1693
      3  C         12.5960    2.7030    7.8590 C.2    49  LYS49       0.2592
      4  O         12.1680    2.7760    6.7000 O.2    49  LYS49      -0.2718
      5  CB        11.8130    4.0860    9.8010 C.3    49  LYS49       0.0285
      6  CG        11.5980    5.3460    8.9820 C.3    49  LYS49       0.0035
      7  CD        11.6680    6.5760    9.8760 C.3    49  LYS49       0.0206
      8  CE        11.3320    7.8590    9.1300 C.3    49  LYS49       0.1093
      9  NZ        12.1860    8.0600    7.9290 N.3    49  LYS49      -0.1314
     10  N         13.8820    2.5450    8.1690 N.am   50  ASN50      -0.1974
     11  CA        14.9380    2.4590    7.1630 C.3    50  ASN50       0.1688
     12  C         14.9330    1.1440    6.3770 C.2    50  ASN50       0.2292
     13  O         15.2270    1.1440    5.1830 O.2    50  ASN50      -0.2864
     14  CB        16.3100    2.6930    7.8130 C.3    50  ASN50       0.1181
     15  CG        16.5680    4.1600    8.1050 C.2    50  ASN50       0.2629
     16  OD1       16.8600    4.9330    7.1980 O.2    50  ASN50      -0.2716
     17  ND2       16.4560    4.5500    9.3690 N.am   50  ASN50      -0.0877
     18  N         11.6500    1.4860    4.3110 N.3    53  GLY53      -0.1210
     19  CA        11.7650    2.6900    3.4830 C.3    53  GLY53       0.1956
     20  C         12.6380    2.5440    2.2470 C.2    53  GLY53       0.2611
     21  O         12.3210    3.0930    1.1910 O.2    53  GLY53      -0.2717
     22  N         13.7380    1.8060    2.3750 N.am   54  ALA54      -0.1979
     23  CA        14.5930    1.4990    1.2260 C.3    54  ALA54       0.1597
     24  C         13.8190    0.7440    0.1420 C.2    54  ALA54       0.2287
     25  O         13.9840    1.0320   -1.0430 O.2    54  ALA54      -0.2864
     26  CB        15.8180    0.7050    1.6570 C.3    54  ALA54       0.0319
     27  N         10.4400    0.8080   -0.1560 N.3    56  ARG56      -0.1231
     28  CA         9.4520    1.7730   -0.6530 C.3    56  ARG56       0.1694
     29  C         10.0740    2.6960   -1.6950 C.2    56  ARG56       0.2592
     30  O          9.5110    2.8970   -2.7650 O.2    56  ARG56      -0.2718
     31  CB         8.8550    2.6080    0.4860 C.3    56  ARG56       0.0321
     32  CG         7.9370    1.8300    1.4110 C.3    56  ARG56       0.0489
     33  CD         7.5480    2.6510    2.6260 C.3    56  ARG56       0.2205
     34  NE         6.6180    3.7280    2.2770 N.pl3  56  ARG56      -0.0865
     35  CZ         6.5600    4.9400    2.8460 C.cat  56  ARG56       0.5346
     36  NH1        7.3940    5.3020    3.8220 N.pl3  56  ARG56       0.1354
     37  NH2        5.6490    5.8150    2.4210 N.pl3  56  ARG56       0.1354
     38  N         11.2360    3.2500   -1.3720 N.am   57  SER57      -0.1952
     39  CA        11.9790    4.0920   -2.3100 C.3    57  SER57       0.1924
     40  C         12.2850    3.3530   -3.6180 C.2    57  SER57       0.2314
     41  O         12.0600    3.8960   -4.7000 O.2    57  SER57      -0.2863
     42  CB        13.2730    4.5820   -1.6670 C.3    57  SER57       0.2116
     43  OG        13.9950    5.4130   -2.5560 O.3    57  SER57      -0.2180
     44  N          9.0510    2.7150   -5.7470 N.3    60  ARG60      -0.1245
     45  CA         8.5730    3.9030   -6.4630 C.3    60  ARG60       0.1563
     46  C          9.3690    4.1910   -7.7370 C.2    60  ARG60       0.2260
     47  O          8.7890    4.5880   -8.7470 O.2    60  ARG60      -0.2867
     48  CB         8.5600    5.1270   -5.5420 C.3    60  ARG60       0.0307
     49  CG         7.5070    5.0330   -4.4470 C.3    60  ARG60       0.0489
     50  CD         7.5830    6.1990   -3.4760 C.3    60  ARG60       0.2205
     51  NE         6.6060    6.0590   -2.3930 N.pl3  60  ARG60      -0.0865
     52  CZ         6.2390    7.0280   -1.5520 C.cat  60  ARG60       0.5346
     53  NH1        5.3300    6.7700   -0.6150 N.pl3  60  ARG60       0.1354
     54  NH2        6.7560    8.2500   -1.6380 N.pl3  60  ARG60       0.1354
     55  N         -0.6360    0.8440    6.0480 N.3   126  ARG126     -0.1231
     56  CA        -0.5990    1.8070    4.9400 C.3   126  ARG126      0.1694
     57  C          0.4710    1.4570    3.9010 C.2   126  ARG126      0.2592
     58  O          0.2290    1.5980    2.7030 O.2   126  ARG126     -0.2718
     59  CB        -0.4040    3.2480    5.4470 C.3   126  ARG126      0.0321
     60  CG        -0.2590    4.2940    4.3460 C.3   126  ARG126      0.0489
     61  CD        -0.5390    5.6970    4.8540 C.3   126  ARG126      0.2205
     62  NE         0.3480    6.0710    5.9630 N.pl3 126  ARG126     -0.0865
     63  CZ         1.5950    6.5300    5.8440 C.cat 126  ARG126      0.5346
     64  NH1        2.1640    6.6990    4.6510 N.pl3 126  ARG126      0.1354
     65  NH2        2.2920    6.8260    6.9400 N.pl3 126  ARG126      0.1354
     66  N          1.6410    1.0010    4.3460 N.am  127  TYR127     -0.1976
     67  CA         2.7100    0.6150    3.4040 C.3   127  TYR127      0.1639
     68  C          2.3320   -0.6450    2.6110 C.2   127  TYR127      0.2290
     69  O          2.6750   -0.7580    1.4300 O.2   127  TYR127     -0.2864
     70  CB         4.0720    0.4530    4.1040 C.3   127  TYR127      0.0560
     71  CG         4.5000    1.6460    4.9530 C.ar  127  TYR127     -0.0198
     72  CD1        4.1720    2.9630    4.5920 C.ar  127  TYR127     -0.0009
     73  CD2        5.2450    1.4560    6.1200 C.ar  127  TYR127     -0.0009
     74  CE1        4.5620    4.0400    5.3780 C.ar  127  TYR127      0.0417
     75  CE2        5.6440    2.5290    6.9050 C.ar  127  TYR127      0.0417
     76  CZ         5.2990    3.8170    6.5340 C.ar  127  TYR127      0.1957
     77  OH         5.6870    4.8780    7.3170 O.3   127  TYR127     -0.2866
     78  N         -0.4950   14.1540   11.3460 N.3   171  LEU171     -0.1231
     79  CA         0.2360   14.2160   10.0880 C.3   171  LEU171      0.1693
     80  C          0.0550   12.9290    9.2670 C.2   171  LEU171      0.2592
     81  O         -0.3580   12.9870    8.1130 O.2   171  LEU171     -0.2718
     82  CB         1.7210   14.4740   10.3550 C.3   171  LEU171      0.0284
     83  CG         2.6430   14.6120    9.1380 C.3   171  LEU171      0.0019
     84  CD1        2.3490   15.8980    8.3870 C.3   171  LEU171      0.0001
     85  CD2        4.1010   14.5640    9.5650 C.3   171  LEU171      0.0001
     86  N          0.3630   11.7830    9.8720 N.am  172  ASN172     -0.1974
     87  CA         0.3200   10.4920    9.1670 C.3   172  ASN172      0.1688
     88  C         -1.0890   10.0680    8.7550 C.2   172  ASN172      0.2292
     89  O         -1.2650    9.4660    7.7000 O.2   172  ASN172     -0.2864
     90  CB         0.9660    9.3760   10.0100 C.3   172  ASN172      0.1181
     91  CG         2.4800    9.5000   10.0860 C.2   172  ASN172      0.2629
     92  OD1        3.0360   10.5960    9.9780 O.2   172  ASN172     -0.2716
     93  ND2        3.1530    8.3700   10.2690 N.am  172  ASN172     -0.0877
     94  N         -2.1090   12.1460    5.7890 N.3   175  VAL175     -0.1245
     95  CA        -1.4400   11.5500    4.6250 C.3   175  VAL175      0.1561
     96  C         -2.1840   10.2980    4.1350 C.2   175  VAL175      0.2260
     97  O         -2.3230   10.0930    2.9240 O.2   175  VAL175     -0.2867
     98  CB         0.0490   11.2310    4.9190 C.3   175  VAL175      0.0252
     99  CG1        0.6730   10.3660    3.8290 C.3   175  VAL175      0.0019
    100  CG2        0.8470   12.5220    5.0630 C.3   175  VAL175      0.0019
    101  N         -3.4560   10.0970    0.3860 N.3   179  GLU179     -0.1245
    102  CA        -2.7210    9.2010   -0.5200 C.3   179  GLU179      0.1567
    103  C         -3.3710    7.8320   -0.7220 C.2   179  GLU179      0.2260
    104  O         -3.2850    7.2760   -1.8130 O.2   179  GLU179     -0.2867
    105  CB        -1.2590    9.0570   -0.0730 C.3   179  GLU179      0.0388
    106  CG        -0.4610   10.3450   -0.2700 C.3   179  GLU179      0.1160
    107  CD         0.9900   10.2630    0.1770 C.2   179  GLU179      0.3649
    108  OE1        1.6700   11.3100    0.1150 O.co2 179  GLU179     -0.2457
    109  OE2        1.4560    9.1780    0.5920 O.co2 179  GLU179     -0.2457
    110  N          8.0910   21.5870   14.5870 N.3   215  LEU215     -0.1231
    111  CA         8.4930   21.0540   13.2810 C.3   215  LEU215      0.1693
    112  C          7.3310   20.3090   12.6050 C.2   215  LEU215      0.2591
    113  O          7.1130   20.4600   11.4030 O.2   215  LEU215     -0.2718
    114  CB         9.7200   20.1420   13.4010 C.3   215  LEU215      0.0284
    115  CG        10.2140   19.4740   12.1030 C.3   215  LEU215      0.0019
    116  CD1       10.5040   20.4800   10.9860 C.3   215  LEU215      0.0001
    117  CD2       11.4430   18.6170   12.3780 C.3   215  LEU215      0.0001
    118  N          6.5950   19.5150   13.3800 N.am  216  ILE216     -0.1980
    119  CA         5.4680   18.7410   12.8530 C.3   216  ILE216      0.1595
    120  C          4.3080   19.6690   12.4570 C.2   216  ILE216      0.2287
    121  O          3.6700   19.4440   11.4280 O.2   216  ILE216     -0.2864
    122  CB         5.0020   17.6510   13.8480 C.3   216  ILE216      0.0276
    123  CG1        6.1200   16.6200   14.0710 C.3   216  ILE216      0.0022
    124  CG2        3.7700   16.9160   13.3260 C.3   216  ILE216      0.0022
    125  CD1        5.9480   15.7710   15.3160 C.3   216  ILE216      0.0001
    126  N          5.0540   20.9670    9.1330 N.3   219  LEU219     -0.1245
    127  CA         4.7580   19.9430    8.1210 C.3   219  LEU219      0.1561
    128  C          3.2630   19.8250    7.8190 C.2   219  LEU219      0.2260
    129  O          2.8780   19.6730    6.6540 O.2   219  LEU219     -0.2867
    130  CB         5.3240   18.5780    8.5310 C.3   219  LEU219      0.0270
    131  CG         6.8530   18.4400    8.5950 C.3   219  LEU219      0.0019
    132  CD1        7.2280   17.0810    9.1690 C.3   219  LEU219      0.0001
    133  CD2        7.5120   18.6350    7.2350 C.3   219  LEU219      0.0001
    134  N          1.5580   20.7440    4.1140 N.3   223  ASN223     -0.1240
    135  CA         0.6010   19.8870    3.4090 C.3   223  ASN223      0.1653
    136  C         -0.7020   20.6150    3.0760 C.2   223  ASN223      0.2266
    137  O         -1.2340   20.4280    1.9800 O.2   223  ASN223     -0.2867
    138  CB         0.3010   18.6060    4.2030 C.3   223  ASN223      0.1155
    139  CG         1.4170   17.5830    4.1140 C.2   223  ASN223      0.2627
    140  OD1        2.2070   17.5840    3.1700 O.2   223  ASN223     -0.2716
    141  ND2        1.4740   16.6880    5.0950 N.am  223  ASN223     -0.0877
@<TRIPOS>BOND
     1    47    46    2
     2    46    45    1
     3    45    44    1
     4    45    48    1
     5    48    49    1
     6    41    40    2
     7    49    50    1
     8    40    39    1
     9    50    51    1
    10    30    29    2
    11    43    42    1
    12    51    52    2
    13    39    42    1
    14    39    38    1
    15   104   103    2
    16    29    38   am
    17    29    28    1
    18    54    52    1
    19    52    53    1
    20    25    24    2
    21   103   102    1
    22    28    27    1
    23    28    31    1
    24   102   105    1
    25   102   101    1
    26   106   105    1
    27   106   107    1
    28   108   107   ar
    29    24    23    1
    30   107   109   ar
    31    31    32    1
    32    21    20    2
    33    23    26    1
    34    23    22    1
    35    32    33    1
    36    69    68    2
    37   137   136    2
    38    20    22   am
    39    20    19    1
    40    34    33    1
    41    34    35    2
    42    37    35    1
    43    68    67    1
    44    58    57    2
    45    35    36    1
    46    97    96    2
    47   136   135    1
    48   140   139    2
    49    67    70    1
    50    67    66    1
    51   135   134    1
    52   135   138    1
    53    19    18    1
    54    99    98    1
    55    57    66   am
    56    57    56    1
    57    70    71    1
    58   139   138    1
    59   139   141   am
    60    96    95    1
    61    60    61    1
    62    60    59    1
    63    72    71   ar
    64    72    74   ar
    65    95    98    1
    66    95    94    1
    67    64    63    1
    68    61    62    1
    69    98   100    1
    70    56    59    1
    71    56    55    1
    72    71    73   ar
    73    13    12    2
    74    74    76   ar
    75    63    62    2
    76    63    65    1
    77    73    75   ar
    78    12    11    1
    79    76    75   ar
    80    76    77    1
    81   129   128    2
    82     4     3    2
    83    11    14    1
    84    11    10    1
    85    16    15    2
    86   133   131    1
    87    89    88    2
    88    14    15    1
    89   128   127    1
    90     3    10   am
    91     3     2    1
    92     9     8    1
    93    15    17   am
    94    81    80    2
    95   127   130    1
    96   127   126    1
    97    84    83    1
    98   130   131    1
    99   131   132    1
   100    88    87    1
   101     6     5    1
   102     6     7    1
   103     2     5    1
   104     2     1    1
   105     8     7    1
   106    83    85    1
   107    83    82    1
   108    87    86    1
   109    87    90    1
   110    80    86   am
   111    80    79    1
   112    92    91    2
   113    90    91    1
   114    91    93   am
   115    79    82    1
   116    79    78    1
   117   116   115    1
   118   113   112    2
   119   121   120    2
   120   115   117    1
   121   115   114    1
   122   120   119    1
   123   112   111    1
   124   112   118   am
   125   119   118    1
   126   119   122    1
   127   111   114    1
   128   111   110    1
   129   124   122    1
   130   122   123    1
   131   123   125    1
