@<TRIPOS>MOLECULE
tmp/6fncA00.pdb
 145 134 0 0 0
SMALL
GASTEIGER

@<TRIPOS>ATOM
      1  N         11.7020    1.7180    9.9120 N.3    49  LYS49      -0.1231
      2  CA        11.4580    2.8500    9.0050 C.3    49  LYS49       0.1693
      3  C         12.4520    2.8610    7.8450 C.2    49  LYS49       0.2592
      4  O         12.0600    3.0320    6.6870 O.2    49  LYS49      -0.2718
      5  CB        11.5250    4.1780    9.7760 C.3    49  LYS49       0.0285
      6  CG        11.5480    5.4440    8.9270 C.3    49  LYS49       0.0035
      7  CD        11.3980    6.6940    9.7910 C.3    49  LYS49       0.0206
      8  CE        12.1130    7.9030    9.1960 C.3    49  LYS49       0.1093
      9  NZ        11.5560    8.3360    7.8820 N.3    49  LYS49      -0.1314
     10  N         13.7290    2.6700    8.1650 N.am   50  ASN50      -0.1974
     11  CA        14.7930    2.6330    7.1560 C.3    50  ASN50       0.1688
     12  C         14.8120    1.3430    6.3420 C.2    50  ASN50       0.2292
     13  O         15.1360    1.3760    5.1530 O.2    50  ASN50      -0.2864
     14  CB        16.1650    2.8610    7.8060 C.3    50  ASN50       0.1181
     15  CG        16.4060    4.3170    8.1420 C.2    50  ASN50       0.2629
     16  OD1       16.6560    5.1260    7.2530 O.2    50  ASN50      -0.2716
     17  ND2       16.3260    4.6590    9.4200 N.am   50  ASN50      -0.0877
     18  N         11.6390    1.6860    4.2500 N.3    53  GLY53      -0.1210
     19  CA        11.8370    2.8770    3.4270 C.3    53  GLY53       0.1956
     20  C         12.6730    2.6460    2.1850 C.2    53  GLY53       0.2611
     21  O         12.3440    3.1550    1.1100 O.2    53  GLY53      -0.2717
     22  N         13.7470    1.8680    2.3270 N.am   54  ALA54      -0.1979
     23  CA        14.5850    1.4990    1.1890 C.3    54  ALA54       0.1597
     24  C         13.7820    0.7740    0.1040 C.2    54  ALA54       0.2287
     25  O         13.9530    1.0600   -1.0810 O.2    54  ALA54      -0.2864
     26  CB        15.7590    0.6380    1.6380 C.3    54  ALA54       0.0319
     27  N         10.3560    0.8530   -0.2360 N.3    56  ARG56      -0.1231
     28  CA         9.3620    1.8130   -0.7320 C.3    56  ARG56       0.1694
     29  C          9.9570    2.7170   -1.8080 C.2    56  ARG56       0.2592
     30  O          9.3840    2.8630   -2.8850 O.2    56  ARG56      -0.2718
     31  CB         8.8060    2.6640    0.4110 C.3    56  ARG56       0.0321
     32  CG         7.8890    1.9060    1.3560 C.3    56  ARG56       0.0489
     33  CD         7.5370    2.7420    2.5710 C.3    56  ARG56       0.2205
     34  NE         6.5650    3.7900    2.2470 N.pl3  56  ARG56      -0.0865
     35  CZ         6.5210    5.0170    2.7790 C.cat  56  ARG56       0.5346
     36  NH1        7.4100    5.4300    3.6870 N.pl3  56  ARG56       0.1354
     37  NH2        5.5670    5.8580    2.3900 N.pl3  56  ARG56       0.1354
     38  N         11.1130    3.3040   -1.5100 N.am   57  SER57      -0.1952
     39  CA        11.8410    4.1420   -2.4690 C.3    57  SER57       0.1924
     40  C         12.1260    3.3960   -3.7740 C.2    57  SER57       0.2314
     41  O         11.8640    3.9150   -4.8600 O.2    57  SER57      -0.2863
     42  CB        13.1560    4.6300   -1.8580 C.3    57  SER57       0.2116
     43  OG        13.8580    5.4650   -2.7620 O.3    57  SER57      -0.2180
     44  N          8.8670    2.7210   -5.8170 N.3    60  ARG60      -0.1245
     45  CA         8.3910    3.9110   -6.5260 C.3    60  ARG60       0.1563
     46  C          9.1530    4.1740   -7.8240 C.2    60  ARG60       0.2260
     47  O          8.5490    4.5680   -8.8150 O.2    60  ARG60      -0.2867
     48  CB         8.4280    5.1430   -5.6160 C.3    60  ARG60       0.0307
     49  CG         7.3910    5.0760   -4.5060 C.3    60  ARG60       0.0489
     50  CD         7.4470    6.2820   -3.5850 C.3    60  ARG60       0.2205
     51  NE         6.4700    6.1680   -2.4990 N.pl3  60  ARG60      -0.0865
     52  CZ         6.0990    7.1570   -1.6860 C.cat  60  ARG60       0.5346
     53  NH1        5.1890    6.9220   -0.7410 N.pl3  60  ARG60       0.1354
     54  NH2        6.6130    8.3820   -1.8090 N.pl3  60  ARG60       0.1354
     55  N         -0.7080    1.0310    5.9760 N.3   127  ARG127     -0.1231
     56  CA        -0.6720    1.9920    4.8680 C.3   127  ARG127      0.1694
     57  C          0.4090    1.6460    3.8380 C.2   127  ARG127      0.2592
     58  O          0.1620    1.7560    2.6400 O.2   127  ARG127     -0.2718
     59  CB        -0.5140    3.4350    5.3760 C.3   127  ARG127      0.0321
     60  CG        -0.2740    4.4680    4.2840 C.3   127  ARG127      0.0489
     61  CD        -0.5470    5.8730    4.7860 C.3   127  ARG127      0.2205
     62  NE         0.3400    6.2270    5.8940 N.pl3 127  ARG127     -0.0865
     63  CZ         1.5930    6.6690    5.7760 C.cat 127  ARG127      0.5346
     64  NH1        2.1650    6.8300    4.5810 N.pl3 127  ARG127      0.1354
     65  NH2        2.2890    6.9560    6.8740 N.pl3 127  ARG127      0.1354
     66  N          1.5860    1.2110    4.2870 N.am  128  TYR128     -0.1976
     67  CA         2.6460    0.8010    3.3480 C.3   128  TYR128      0.1639
     68  C          2.2430   -0.4610    2.5840 C.2   128  TYR128      0.2290
     69  O          2.5630   -0.5960    1.4050 O.2   128  TYR128     -0.2864
     70  CB         4.0110    0.6160    4.0390 C.3   128  TYR128      0.0560
     71  CG         4.4720    1.7930    4.8910 C.ar  128  TYR128     -0.0198
     72  CD1        4.1450    3.1110    4.5560 C.ar  128  TYR128     -0.0009
     73  CD2        5.2480    1.5850    6.0370 C.ar  128  TYR128     -0.0009
     74  CE1        4.5580    4.1750    5.3420 C.ar  128  TYR128      0.0417
     75  CE2        5.6710    2.6500    6.8230 C.ar  128  TYR128      0.0417
     76  CZ         5.3230    3.9420    6.4690 C.ar  128  TYR128      0.1957
     77  OH         5.7290    5.0090    7.2320 O.3   128  TYR128     -0.2866
     78  N          2.3140   14.2080   15.2560 N.3   169  GLY169     -0.1225
     79  CA         2.8220   13.2290   14.2970 C.3   169  GLY169      0.1811
     80  C          1.7460   12.2990   13.7650 C.2   169  GLY169      0.2280
     81  O          1.7430   11.9560   12.5830 O.2   169  GLY169     -0.2866
     82  N         -0.3580   14.2520   11.3010 N.3   172  LEU172     -0.1231
     83  CA         0.3700   14.3270   10.0330 C.3   172  LEU172      0.1693
     84  C          0.1890   13.0520    9.2030 C.2   172  LEU172      0.2592
     85  O         -0.2040   13.1290    8.0400 O.2   172  LEU172     -0.2718
     86  CB         1.8630   14.5930   10.2710 C.3   172  LEU172      0.0284
     87  CG         2.7710   14.7830    9.0500 C.3   172  LEU172      0.0019
     88  CD1        2.4450   16.0810    8.3310 C.3   172  LEU172      0.0001
     89  CD2        4.2370   14.7670    9.4670 C.3   172  LEU172      0.0001
     90  N          0.4680   11.8910    9.7960 N.am  173  ASN173     -0.1974
     91  CA         0.3810   10.6130    9.0590 C.3   173  ASN173      0.1688
     92  C         -1.0560   10.2310    8.6810 C.2   173  ASN173      0.2292
     93  O         -1.2830    9.7220    7.5900 O.2   173  ASN173     -0.2864
     94  CB         1.0510    9.4670    9.8360 C.3   173  ASN173      0.1181
     95  CG         2.5640    9.6230    9.9220 C.2   173  ASN173      0.2629
     96  OD1        3.0980   10.7180    9.7320 O.2   173  ASN173     -0.2716
     97  ND2        3.2600    8.5280   10.2060 N.am  173  ASN173     -0.0877
     98  N         -2.1330   12.3590    5.8150 N.3   176  VAL176     -0.1245
     99  CA        -1.4890   11.7640    4.6410 C.3   176  VAL176      0.1561
    100  C         -2.2080   10.4870    4.1760 C.2   176  VAL176      0.2260
    101  O         -2.3140   10.2410    2.9780 O.2   176  VAL176     -0.2867
    102  CB         0.0180   11.5010    4.8950 C.3   176  VAL176      0.0252
    103  CG1        0.6260   10.5870    3.8390 C.3   176  VAL176      0.0019
    104  CG2        0.7750   12.8240    4.9350 C.3   176  VAL176      0.0019
    105  N         -3.4960   10.4140    0.3890 N.3   180  GLU180     -0.1245
    106  CA        -2.7910    9.5120   -0.5300 C.3   180  GLU180      0.1567
    107  C         -3.4660    8.1560   -0.7360 C.2   180  GLU180      0.2260
    108  O         -3.3670    7.5890   -1.8190 O.2   180  GLU180     -0.2867
    109  CB        -1.3340    9.3140   -0.0810 C.3   180  GLU180      0.0388
    110  CG        -0.4920   10.5800   -0.2070 C.3   180  GLU180      0.1160
    111  CD         0.9500   10.4160    0.2560 C.2   180  GLU180      0.3649
    112  OE1        1.6840   11.4300    0.2410 O.co2 180  GLU180     -0.2457
    113  OE2        1.3550    9.2930    0.6400 O.co2 180  GLU180     -0.2457
    114  N          8.1790   21.7750   14.5720 N.3   213  LEU213     -0.1231
    115  CA         8.5950   21.2170   13.2820 C.3   213  LEU213      0.1693
    116  C          7.4470   20.4690   12.5980 C.2   213  LEU213      0.2591
    117  O          7.2330   20.6290   11.3990 O.2   213  LEU213     -0.2718
    118  CB         9.8080   20.2910   13.4350 C.3   213  LEU213      0.0284
    119  CG        10.3060   19.5480   12.1840 C.3   213  LEU213      0.0019
    120  CD1       10.5520   20.4860   11.0070 C.3   213  LEU213      0.0001
    121  CD2       11.5740   18.7680   12.5140 C.3   213  LEU213      0.0001
    122  N          6.7180   19.6590   13.3610 N.am  214  ILE214     -0.1980
    123  CA         5.5820   18.9000   12.8190 C.3   214  ILE214      0.1595
    124  C          4.4390   19.8500   12.4340 C.2   214  ILE214      0.2287
    125  O          3.8050   19.6570   11.3970 O.2   214  ILE214     -0.2864
    126  CB         5.0970   17.8000   13.7930 C.3   214  ILE214      0.0276
    127  CG1        6.2150   16.7800   14.0430 C.3   214  ILE214      0.0022
    128  CG2        3.8940   17.0550   13.2220 C.3   214  ILE214      0.0022
    129  CD1        6.0770   16.0180   15.3430 C.3   214  ILE214      0.0001
    130  N          5.2580   21.1280    9.0900 N.3   217  LEU217     -0.1245
    131  CA         4.9450   20.0910    8.0990 C.3   217  LEU217      0.1561
    132  C          3.4440   19.9900    7.8190 C.2   217  LEU217      0.2260
    133  O          3.0410   19.8270    6.6680 O.2   217  LEU217     -0.2867
    134  CB         5.4750   18.7220    8.5370 C.3   217  LEU217      0.0270
    135  CG         6.9910   18.5490    8.6560 C.3   217  LEU217      0.0019
    136  CD1        7.3030   17.2010    9.2870 C.3   217  LEU217      0.0001
    137  CD2        7.6900   18.6800    7.3100 C.3   217  LEU217      0.0001
    138  N          1.6280   20.8160    4.1070 N.3   221  ASN221     -0.1240
    139  CA         0.6860   19.9360    3.4080 C.3   221  ASN221      0.1653
    140  C         -0.6140   20.6640    3.0910 C.2   221  ASN221      0.2266
    141  O         -1.1600   20.4740    2.0120 O.2   221  ASN221     -0.2867
    142  CB         0.4040   18.6450    4.1990 C.3   221  ASN221      0.1155
    143  CG         1.4960   17.6030    4.0350 C.2   221  ASN221      0.2627
    144  OD1        2.2650   17.6390    3.0770 O.2   221  ASN221     -0.2716
    145  ND2        1.5590   16.6570    4.9650 N.am  221  ASN221     -0.0877
@<TRIPOS>BOND
     1    47    46    2
     2    46    45    1
     3    45    44    1
     4    45    48    1
     5    48    49    1
     6    41    40    2
     7    49    50    1
     8    40    39    1
     9    50    51    1
    10    30    29    2
    11    43    42    1
    12    51    52    2
    13    39    42    1
    14    39    38    1
    15   108   107    2
    16    54    52    1
    17    29    38   am
    18    29    28    1
    19    52    53    1
    20    25    24    2
    21   107   106    1
    22    28    27    1
    23    28    31    1
    24   106   109    1
    25   106   105    1
    26   110   109    1
    27   110   111    1
    28    24    23    1
    29   112   111   ar
    30   111   113   ar
    31    31    32    1
    32    21    20    2
    33    23    26    1
    34    23    22    1
    35    32    33    1
    36    69    68    2
    37   141   140    2
    38    20    22   am
    39    20    19    1
    40    34    33    1
    41    34    35    2
    42    37    35    1
    43    68    67    1
    44    58    57    2
    45    35    36    1
    46   101   100    2
    47   144   143    2
    48   140   139    1
    49    67    70    1
    50    67    66    1
    51   139   138    1
    52   139   142    1
    53    19    18    1
    54    57    66   am
    55    57    56    1
    56   103   102    1
    57   143   142    1
    58   143   145   am
    59    70    71    1
    60   100    99    1
    61    60    61    1
    62    60    59    1
    63    72    71   ar
    64    72    74   ar
    65    64    63    1
    66    99   102    1
    67    99    98    1
    68    61    62    1
    69    56    59    1
    70    56    55    1
    71    71    73   ar
    72   102   104    1
    73    13    12    2
    74    74    76   ar
    75    63    62    2
    76    63    65    1
    77    73    75   ar
    78    12    11    1
    79    76    75   ar
    80    76    77    1
    81   133   132    2
    82     4     3    2
    83    11    14    1
    84    11    10    1
    85    16    15    2
    86   137   135    1
    87    93    92    2
    88    14    15    1
    89   132   131    1
    90     3    10   am
    91     3     2    1
    92     9     8    1
    93    85    84    2
    94   131   134    1
    95   131   130    1
    96    15    17   am
    97    88    87    1
    98   134   135    1
    99   135   136    1
   100    92    91    1
   101     6     5    1
   102     6     7    1
   103     2     5    1
   104     2     1    1
   105    87    89    1
   106    87    86    1
   107    91    90    1
   108    91    94    1
   109     8     7    1
   110    84    90   am
   111    84    83    1
   112    96    95    2
   113    94    95    1
   114    95    97   am
   115    83    86    1
   116    83    82    1
   117   120   119    1
   118   125   124    2
   119   117   116    2
   120   119   121    1
   121   119   118    1
   122   124   123    1
   123    81    80    2
   124   116   115    1
   125   116   122   am
   126   123   122    1
   127   123   126    1
   128   128   126    1
   129   115   118    1
   130   115   114    1
   131    80    79    1
   132   126   127    1
   133   127   129    1
   134    79    78    1
