@<TRIPOS>MOLECULE
tmp/6fneA01.pdb
 139 130 0 0 0
SMALL
GASTEIGER

@<TRIPOS>ATOM
      1  N          7.7270  -21.6370   13.3600 N.3     2  ASN2       -0.1240
      2  CA         8.4380  -20.3930   13.0350 C.3     2  ASN2        0.1653
      3  C          9.3150  -20.5950   11.7990 C.2     2  ASN2        0.2266
      4  O         10.5440  -20.6040   11.8400 O.2     2  ASN2       -0.2867
      5  CB         9.2340  -19.8890   14.2300 C.3     2  ASN2        0.1155
      6  CG         8.4250  -18.9490   15.0830 C.2     2  ASN2        0.2627
      7  OD1        7.3390  -18.5210   14.6860 O.2     2  ASN2       -0.2716
      8  ND2        8.9490  -18.6090   16.2600 N.am    2  ASN2       -0.0877
      9  N          6.5760  -17.1050    8.2930 N.3     7  LYS7       -0.1245
     10  CA         6.7530  -15.7230    8.7480 C.3     7  LYS7        0.1561
     11  C          6.6210  -14.7480    7.5830 C.2     7  LYS7        0.2260
     12  O          5.7840  -13.8400    7.6100 O.2     7  LYS7       -0.2867
     13  CB         8.1070  -15.5700    9.4460 C.3     7  LYS7        0.0271
     14  CG         8.2180  -16.3980   10.7470 C.3     7  LYS7        0.0035
     15  CD         9.3780  -15.9870   11.6680 C.3     7  LYS7        0.0206
     16  CE        10.6980  -16.5330   11.1560 C.3     7  LYS7        0.1093
     17  NZ        11.8670  -16.2260   12.0270 N.3     7  LYS7       -0.1314
     18  N          3.0030  -14.0640    6.7520 N.3    10  TYR10      -0.1227
     19  CA         2.4660  -13.1300    7.7380 C.3    10  TYR10       0.1736
     20  C          2.7930  -11.6990    7.3540 C.2    10  TYR10       0.2595
     21  O          1.8890  -10.8880    7.1110 O.2    10  TYR10      -0.2718
     22  CB         3.0210  -13.4360    9.1290 C.3    10  TYR10       0.0548
     23  CG         2.3940  -12.6410   10.2490 C.ar   10  TYR10      -0.0200
     24  CD1        1.0360  -12.7710   10.5710 C.ar   10  TYR10      -0.0009
     25  CD2        3.1520  -11.7840   11.0010 C.ar   10  TYR10      -0.0009
     26  CE1        0.4630  -12.0380   11.6180 C.ar   10  TYR10       0.0417
     27  CE2        2.6000  -11.0720   12.0420 C.ar   10  TYR10       0.0417
     28  CZ         1.2660  -11.1880   12.3430 C.ar   10  TYR10       0.1957
     29  OH         0.7840  -10.4220   13.3800 O.3    10  TYR10      -0.2866
     30  N          4.0840  -11.3550    7.2700 N.am   11  ARG11      -0.1980
     31  CA         4.4080   -9.9670    6.9230 C.3    11  ARG11       0.1597
     32  C          3.7650   -9.5580    5.6060 C.2    11  ARG11       0.2287
     33  O          3.3430   -8.4090    5.4580 O.2    11  ARG11      -0.2864
     34  CB         5.9120   -9.7500    6.8750 C.3    11  ARG11       0.0334
     35  CG         6.6340  -10.3580    8.0940 C.3    11  ARG11       0.0492
     36  CD         8.0690   -9.9200    8.1850 C.3    11  ARG11       0.2205
     37  NE         8.7220  -10.1000    6.9070 N.pl3  11  ARG11      -0.0865
     38  CZ         9.4140  -11.1720    6.5780 C.cat  11  ARG11       0.5346
     39  NH1        9.5420  -12.1410    7.4740 N.pl3  11  ARG11       0.1354
     40  NH2        9.9700  -11.2600    5.3590 N.pl3  11  ARG11       0.1354
     41  N          0.2410   -8.4200    6.4980 N.3    14  LEU14      -0.1245
     42  CA         0.3430   -7.0740    7.0670 C.3    14  LEU14       0.1561
     43  C          0.5840   -6.0060    6.0100 C.2    14  LEU14       0.2260
     44  O         -0.0590   -4.9520    6.0310 O.2    14  LEU14      -0.2867
     45  CB         1.4520   -7.0650    8.1100 C.3    14  LEU14       0.0270
     46  CG         1.2370   -8.0130    9.3130 C.3    14  LEU14       0.0019
     47  CD1        2.2590   -7.7450   10.4250 C.3    14  LEU14       0.0001
     48  CD2       -0.1730   -7.9400    9.9190 C.3    14  LEU14       0.0001
     49  N         -1.8480   -6.7230   17.5430 N.3    48  ARG48      -0.1231
     50  CA        -0.6840   -7.1170   16.7400 C.3    48  ARG48       0.1694
     51  C          0.1390   -5.9250   16.2680 C.2    48  ARG48       0.2592
     52  O         -0.3980   -4.9960   15.6620 O.2    48  ARG48      -0.2718
     53  CB        -1.1280   -7.9270   15.5170 C.3    48  ARG48       0.0321
     54  CG        -1.6130   -9.3260   15.8360 C.3    48  ARG48       0.0489
     55  CD        -0.6470  -10.1050   16.6940 C.3    48  ARG48       0.2205
     56  NE        -0.1690  -11.3060   16.0150 N.pl3  48  ARG48      -0.0865
     57  CZ        -0.7880  -12.4810   16.0460 C.cat  48  ARG48       0.5346
     58  NH1       -1.9190  -12.6130   16.7240 N.pl3  48  ARG48       0.1354
     59  NH2       -0.2770  -13.5220   15.3980 N.pl3  48  ARG48       0.1354
     60  N          1.4480   -5.9680   16.5060 N.am   49  LYS49      -0.1966
     61  CA         2.2860   -4.9410   15.9000 C.3    49  LYS49       0.1728
     62  C          2.4370   -5.2130   14.4010 C.2    49  LYS49       0.2616
     63  O          2.2260   -6.3320   13.9110 O.2    49  LYS49      -0.2715
     64  CB         3.6770   -4.8770   16.5480 C.3    49  LYS49       0.0311
     65  CG         3.7010   -4.5600   18.0340 C.3    49  LYS49       0.0038
     66  CD         5.0930   -4.8370   18.6190 C.3    49  LYS49       0.0206
     67  CE         5.9510   -3.5650   18.7530 C.3    49  LYS49       0.1093
     68  NZ         7.2970   -3.8100   19.3690 N.3    49  LYS49      -0.1314
     69  N          2.8550   -4.1760   13.6760 N.am   50  GLY50      -0.1955
     70  CA         3.0330   -4.2610   12.2420 C.3    50  GLY50       0.1869
     71  C          1.8720   -3.7060   11.4720 C.2    50  GLY50       0.2309
     72  O          1.9070   -3.7060   10.2340 O.2    50  GLY50      -0.2863
     73  N          8.0450    5.2890   13.5550 N.3   203  GLN203     -0.1245
     74  CA         9.4840    5.0900   13.4540 C.3   203  GLN203      0.1566
     75  C         10.0050    5.5660   12.1000 C.2   203  GLN203      0.2260
     76  O         11.0950    6.1440   12.0310 O.2   203  GLN203     -0.2867
     77  CB         9.8180    3.6210   13.6640 C.3   203  GLN203      0.0367
     78  CG        10.9760    3.3420   14.6080 C.3   203  GLN203      0.0905
     79  CD        11.2650    1.8410   14.7710 C.2   203  GLN203      0.2608
     80  OE1       10.3620    1.0440   15.0370 O.2   203  GLN203     -0.2717
     81  NE2       12.5290    1.4560   14.6000 N.am  203  GLN203     -0.0878
     82  N          8.2000   -0.0560    6.5100 N.3   225  ARG225     -0.1231
     83  CA         8.6450   -0.4730    7.8270 C.3   225  ARG225      0.1694
     84  C         10.1660   -0.3800    7.8620 C.2   225  ARG225      0.2592
     85  O         10.8450   -0.7620    6.9020 O.2   225  ARG225     -0.2718
     86  CB         8.1800   -1.9050    8.0570 C.3   225  ARG225      0.0321
     87  CG         8.3930   -2.4740    9.4120 C.3   225  ARG225      0.0489
     88  CD         8.0130   -3.9590    9.4430 C.3   225  ARG225      0.2205
     89  NE         9.1520   -4.8490    9.1940 N.pl3 225  ARG225     -0.0865
     90  CZ         9.2880   -5.6340    8.1190 C.cat 225  ARG225      0.5346
     91  NH1       10.3660   -6.4100    8.0020 N.pl3 225  ARG225      0.1354
     92  NH2        8.3520   -5.6570    7.1640 N.pl3 225  ARG225      0.1354
     93  N         10.7220    0.1800    8.9160 N.am  226  LEU226     -0.1966
     94  CA        12.1750    0.2080    8.9820 C.3   226  LEU226      0.1728
     95  C         12.6300   -1.1880    9.3310 C.2   226  LEU226      0.2616
     96  O         12.0500   -1.8070   10.2200 O.2   226  LEU226     -0.2715
     97  CB        12.6710    1.2070   10.0200 C.3   226  LEU226      0.0311
     98  CG        14.1910    1.2240   10.0170 C.3   226  LEU226      0.0022
     99  CD1       14.7040    1.4690    8.6140 C.3   226  LEU226      0.0001
    100  CD2       14.6920    2.2860   10.9450 C.3   226  LEU226      0.0001
    101  N         13.6450   -1.6940    8.6290 N.am  227  VAL227     -0.1977
    102  CA        14.1420   -3.0550    8.8300 C.3   227  VAL227      0.1596
    103  C         15.5230   -3.0580    9.4740 C.2   227  VAL227      0.2287
    104  O         15.8010   -3.8580   10.3620 O.2   227  VAL227     -0.2864
    105  CB        14.1570   -3.8510    7.5030 C.3   227  VAL227      0.0276
    106  CG1       14.8350   -5.1690    7.6980 C.3   227  VAL227      0.0022
    107  CG2       12.7590   -4.0770    6.9720 C.3   227  VAL227      0.0022
    108  N         19.2940   -9.7880    5.6370 N.3   327  ASP327     -0.1239
    109  CA        18.0980   -8.9570    5.7860 C.3   327  ASP327      0.1674
    110  C         17.6040   -8.4280    4.4460 C.2   327  ASP327      0.2266
    111  O         16.3950   -8.3900    4.1790 O.2   327  ASP327     -0.2867
    112  CB        18.3770   -7.7740    6.7090 C.3   327  ASP327      0.1410
    113  CG        18.1720   -8.1170    8.1800 C.2   327  ASP327      0.3668
    114  OD1       17.2480   -8.9130    8.4970 O.co2 327  ASP327     -0.2456
    115  OD2       18.9190   -7.5760    9.0240 O.co2 327  ASP327     -0.2456
    116  N         16.0340  -11.2940    2.2750 N.3   330  GLU330     -0.1231
    117  CA        14.6750  -11.6600    2.6690 C.3   330  GLU330      0.1699
    118  C         13.6660  -10.5560    2.3380 C.2   330  GLU330      0.2592
    119  O         12.5080  -10.8400    2.0090 O.2   330  GLU330     -0.2718
    120  CB        14.6220  -11.9620    4.1590 C.3   330  GLU330      0.0402
    121  CG        13.2240  -12.0980    4.6560 C.3   330  GLU330      0.1161
    122  CD        12.6320  -13.4500    4.3310 C.2   330  GLU330      0.3649
    123  OE1       13.3510  -14.2670    3.7050 O.co2 330  GLU330     -0.2457
    124  OE2       11.4620  -13.6990    4.7070 O.co2 330  GLU330     -0.2457
    125  N         14.0520   -9.2870    2.4730 N.am  331  SER331     -0.1952
    126  CA        13.1530   -8.2300    2.0320 C.3   331  SER331      0.1924
    127  C         12.8700   -8.3660    0.5410 C.2   331  SER331      0.2314
    128  O         11.7180   -8.2440    0.1030 O.2   331  SER331     -0.2863
    129  CB        13.7590   -6.8760    2.3380 C.3   331  SER331      0.2116
    130  OG        14.0630   -6.8050    3.7110 O.3   331  SER331     -0.2180
    131  N         10.4420  -11.0240    0.1540 N.3   334  GLU334     -0.1245
    132  CA         9.1390  -10.5230    0.5800 C.3   334  GLU334      0.1567
    133  C          8.4860   -9.6940   -0.5230 C.2   334  GLU334      0.2260
    134  O          7.3010   -9.8480   -0.8070 O.2   334  GLU334     -0.2867
    135  CB         9.3170   -9.6850    1.8440 C.3   334  GLU334      0.0388
    136  CG         8.0830   -9.4990    2.6600 C.3   334  GLU334      0.1160
    137  CD         8.2440   -8.3490    3.6180 C.2   334  GLU334      0.3649
    138  OE1        8.9530   -8.5370    4.6390 O.co2 334  GLU334     -0.2457
    139  OE2        7.6960   -7.2580    3.3180 O.co2 334  GLU334     -0.2457
@<TRIPOS>BOND
     1   134   133    2
     2   133   132    1
     3   128   127    2
     4   131   132    1
     5   127   126    1
     6   132   135    1
     7   135   136    1
     8   119   118    2
     9   126   129    1
    10   126   125    1
    11   116   117    1
    12   118   125   am
    13   118   117    1
    14   129   130    1
    15   136   137    1
    16   117   120    1
    17   139   137   ar
    18   137   138   ar
    19   123   122   ar
    20   120   121    1
    21   111   110    2
    22   122   121    1
    23   122   124   ar
    24   110   109    1
    25    40    38    1
    26    33    32    2
    27    32    31    1
    28   108   109    1
    29   109   112    1
    30    43    44    2
    31    43    42    1
    32    41    42    1
    33    82    83    1
    34    38    37    2
    35    38    39    1
    36   112   113    1
    37    18    19    1
    38    34    31    1
    39    34    35    1
    40    85    84    2
    41    37    36    1
    42    31    30    1
    43   107   105    1
    44    42    45    1
    45    21    20    2
    46    92    90    1
    47    30    20   am
    48    20    19    1
    49   105   106    1
    50   105   102    1
    51    11    12    2
    52    11    10    1
    53    19    22    1
    54    83    84    1
    55    83    86    1
    56    84    93   am
    57    91    90    1
    58    86    87    1
    59    35    36    1
    60    45    46    1
    61    90    89    2
    62   113   114   ar
    63   113   115   ar
    64     9    10    1
    65    99    98    1
    66   101   102    1
    67   101    95   am
    68    10    13    1
    69   102   103    1
    70    93    94    1
    71    94    95    1
    72    94    97    1
    73    22    23    1
    74    89    88    1
    75    46    48    1
    76    46    47    1
    77    95    96    2
    78    87    88    1
    79    13    14    1
    80   103   104    2
    81    98    97    1
    82    98   100    1
    83    72    71    2
    84    23    24   ar
    85    23    25   ar
    86    24    26   ar
    87    14    15    1
    88    25    27   ar
    89    16    15    1
    90    16    17    1
    91    71    70    1
    92    26    28   ar
    93     3     4    2
    94     3     2    1
    95    76    75    2
    96    27    28   ar
    97    75    74    1
    98    70    69    1
    99    28    29    1
   100     2     1    1
   101     2     5    1
   102    74    73    1
   103    74    77    1
   104    77    78    1
   105    69    62   am
   106    63    62    2
   107     5     6    1
   108    62    61    1
   109    81    79   am
   110    78    79    1
   111     7     6    2
   112    79    80    2
   113     6     8   am
   114    59    57    1
   115    53    54    1
   116    53    50    1
   117    52    51    2
   118    54    55    1
   119    61    60    1
   120    61    64    1
   121    56    57    2
   122    56    55    1
   123    57    58    1
   124    51    60   am
   125    51    50    1
   126    64    65    1
   127    50    49    1
   128    65    66    1
   129    66    67    1
   130    67    68    1
