@<TRIPOS>MOLECULE
tmp/6fngA00.pdb
 221 211 0 0 0
SMALL
GASTEIGER

@<TRIPOS>ATOM
      1  N        -94.7360  -23.5630   47.7370 N.3    21  ILE21      -0.1231
      2  CA       -94.4460  -22.1350   47.8560 C.3    21  ILE21       0.1692
      3  C        -94.8980  -21.5770   49.1970 C.2    21  ILE21       0.2593
      4  O        -94.8360  -20.3640   49.4260 O.2    21  ILE21      -0.2718
      5  CB       -95.0560  -21.3240   46.6990 C.3    21  ILE21       0.0266
      6  CG1      -96.5850  -21.4000   46.7460 C.3    21  ILE21       0.0019
      7  CG2      -94.4980  -21.7900   45.3660 C.3    21  ILE21       0.0020
      8  CD1      -97.2670  -20.4820   45.7630 C.3    21  ILE21       0.0001
      9  N        -95.3570  -22.4410   50.0910 N.am   22  GLY22      -0.1942
     10  CA       -95.7720  -21.9660   51.3910 C.3    22  GLY22       0.2014
     11  C        -96.4220  -23.0730   52.1900 C.2    22  GLY22       0.2638
     12  O        -96.4540  -24.2360   51.7790 O.2    22  GLY22      -0.2714
     13  N        -96.9360  -22.6790   53.3460 N.am   23  ALA23      -0.1977
     14  CA       -97.6000  -23.5910   54.2570 C.3    23  ALA23       0.1597
     15  C        -99.0010  -23.0790   54.5420 C.2    23  ALA23       0.2287
     16  O        -99.2270  -21.8670   54.6360 O.2    23  ALA23      -0.2864
     17  CB       -96.8210  -23.7130   55.5690 C.3    23  ALA23       0.0319
     18  N        -98.9140  -25.0910   50.5290 N.3    29  VAL29      -0.1245
     19  CA       -99.3720  -24.2720   49.4160 C.3    29  VAL29       0.1561
     20  C        -98.4280  -24.5130   48.2520 C.2    29  VAL29       0.2260
     21  O        -97.2040  -24.5520   48.4300 O.2    29  VAL29      -0.2867
     22  CB       -99.4480  -22.7770   49.7840 C.3    29  VAL29       0.0252
     23  CG1      -99.9110  -21.9590   48.5880 C.3    29  VAL29       0.0019
     24  CG2     -100.3850  -22.5770   50.9630 C.3    29  VAL29       0.0019
     25  N       -102.2820  -20.7840   42.5090 N.3    41  ALA41      -0.1231
     26  CA      -101.8010  -21.1510   43.8280 C.3    41  ALA41       0.1694
     27  C       -102.8200  -22.0910   44.4520 C.2    41  ALA41       0.2592
     28  O       -104.0280  -21.9090   44.2850 O.2    41  ALA41      -0.2718
     29  CB      -101.6230  -19.9100   44.7050 C.3    41  ALA41       0.0304
     30  N       -102.3300  -23.0980   45.1670 N.am   42  ILE42      -0.1966
     31  CA      -103.1550  -24.2020   45.6410 C.3    42  ILE42       0.1727
     32  C       -102.8200  -24.4490   47.1000 C.2    42  ILE42       0.2616
     33  O       -101.6970  -24.8560   47.4120 O.2    42  ILE42      -0.2715
     34  CB      -102.8710  -25.4790   44.8340 C.3    42  ILE42       0.0290
     35  CG1     -103.1220  -25.2490   43.3440 C.3    42  ILE42       0.0022
     36  CG2     -103.6800  -26.6420   45.3600 C.3    42  ILE42       0.0023
     37  CD1     -102.3530  -26.1910   42.4540 C.3    42  ILE42       0.0001
     38  N       -103.7840  -24.2440   47.9870 N.am   43  LYS43      -0.1977
     39  CA      -103.5860  -24.5360   49.4010 C.3    43  LYS43       0.1596
     40  C       -104.3030  -25.8340   49.7410 C.2    43  LYS43       0.2287
     41  O       -105.4960  -25.9690   49.4670 O.2    43  LYS43      -0.2864
     42  CB      -104.1070  -23.4080   50.2920 C.3    43  LYS43       0.0298
     43  CG      -103.9200  -23.7140   51.7690 C.3    43  LYS43       0.0038
     44  CD      -103.8230  -22.4580   52.6130 C.3    43  LYS43       0.0206
     45  CE      -105.1880  -21.8640   52.8510 C.3    43  LYS43       0.1093
     46  NZ      -105.1270  -20.7360   53.8300 N.3    43  LYS43      -0.1314
     47  N       -112.9880  -20.5390   54.8820 N.3    60  GLU60      -0.1245
     48  CA      -112.1420  -19.6540   54.0900 C.3    60  GLU60       0.1567
     49  C       -112.5080  -19.7380   52.6140 C.2    60  GLU60       0.2260
     50  O       -112.6780  -18.7120   51.9430 O.2    60  GLU60      -0.2867
     51  CB      -110.6690  -20.0100   54.3060 C.3    60  GLU60       0.0388
     52  CG      -109.7310  -19.1610   53.4560 C.3    60  GLU60       0.1160
     53  CD      -108.2630  -19.4860   53.6610 C.2    60  GLU60       0.3649
     54  OE1     -107.9360  -20.5290   54.2680 O.co2  60  GLU60      -0.2457
     55  OE2     -107.4170  -18.7060   53.1970 O.co2  60  GLU60      -0.2457
     56  N       -115.8840  -17.8710   51.9900 N.3    63  ILE63      -0.1231
     57  CA      -115.8510  -16.4130   51.9720 C.3    63  ILE63       0.1692
     58  C       -115.0750  -15.9030   50.7670 C.2    63  ILE63       0.2591
     59  O       -115.4330  -14.8730   50.1790 O.2    63  ILE63      -0.2718
     60  CB      -115.3500  -15.8170   53.3010 C.3    63  ILE63       0.0266
     61  CG1     -113.8580  -16.0840   53.5070 C.3    63  ILE63       0.0019
     62  CG2     -116.1850  -16.3230   54.4680 C.3    63  ILE63       0.0020
     63  CD1     -113.2640  -15.3120   54.6650 C.3    63  ILE63       0.0001
     64  N       -114.0110  -16.6040   50.3720 N.am   64  MET64      -0.1979
     65  CA      -113.2560  -16.1690   49.2040 C.3    64  MET64       0.1605
     66  C       -114.1030  -16.2420   47.9410 C.2    64  MET64       0.2287
     67  O       -113.9980  -15.3800   47.0590 O.2    64  MET64      -0.2864
     68  CB      -111.9840  -16.9960   49.0590 C.3    64  MET64       0.0413
     69  CG      -110.9810  -16.7750   50.1700 C.3    64  MET64       0.0598
     70  SD      -109.5660  -17.8490   49.9470 S.3    64  MET64      -0.1393
     71  CE      -108.7640  -17.0120   48.5860 C.3    64  MET64       0.0692
     72  N       -116.3770  -13.1930   47.8200 N.3    67  PHE67      -0.1241
     73  CA      -115.7460  -11.9390   47.4390 C.3    67  PHE67       0.1605
     74  C       -115.5660  -11.9110   45.9270 C.2    67  PHE67       0.2264
     75  O       -114.9190  -12.7950   45.3550 O.2    67  PHE67      -0.2867
     76  CB      -114.3990  -11.8180   48.1370 C.3    67  PHE67       0.0534
     77  CG      -114.4870  -11.7850   49.6320 C.ar   67  PHE67      -0.0203
     78  CD1     -115.6210  -11.3230   50.2820 C.ar   67  PHE67      -0.0042
     79  CD2     -113.4140  -12.2100   50.3970 C.ar   67  PHE67      -0.0042
     80  CE1     -115.6770  -11.2880   51.6590 C.ar   67  PHE67      -0.0003
     81  CE2     -113.4720  -12.1830   51.7630 C.ar   67  PHE67      -0.0003
     82  CZ      -114.5980  -11.7240   52.3990 C.ar   67  PHE67      -0.0000
     83  N       -109.5320   -7.8390   45.1820 N.3    72  ILE72      -0.1231
     84  CA      -109.4720   -8.9650   46.1070 C.3    72  ILE72       0.1692
     85  C       -109.0260  -10.1790   45.3100 C.2    72  ILE72       0.2591
     86  O       -109.5260  -10.4080   44.2060 O.2    72  ILE72      -0.2718
     87  CB      -110.8340   -9.2390   46.7780 C.3    72  ILE72       0.0266
     88  CG1     -111.3430   -8.0000   47.5180 C.3    72  ILE72       0.0019
     89  CG2     -110.7430  -10.4510   47.6960 C.3    72  ILE72       0.0020
     90  CD1     -110.4770   -7.5460   48.6680 C.3    72  ILE72       0.0001
     91  N       -108.0860  -10.9510   45.8620 N.am   73  ILE73      -0.1980
     92  CA      -107.5910  -12.1440   45.1820 C.3    73  ILE73       0.1595
     93  C       -108.7540  -13.0280   44.7530 C.2    73  ILE73       0.2287
     94  O       -109.7180  -13.2260   45.4990 O.2    73  ILE73      -0.2864
     95  CB      -106.6170  -12.9030   46.1020 C.3    73  ILE73       0.0276
     96  CG1     -105.9030  -14.0150   45.3250 C.3    73  ILE73       0.0022
     97  CG2     -107.3160  -13.4380   47.3580 C.3    73  ILE73       0.0022
     98  CD1     -104.8750  -14.7850   46.1310 C.3    73  ILE73       0.0001
     99  N       -107.9070  -25.2340   48.1580 N.3    87  ILE87      -0.1245
    100  CA      -108.3590  -23.9060   47.7680 C.3    87  ILE87       0.1561
    101  C       -107.4380  -23.4300   46.6570 C.2    87  ILE87       0.2260
    102  O       -106.2130  -23.4440   46.8130 O.2    87  ILE87      -0.2867
    103  CB      -108.3190  -22.9410   48.9610 C.3    87  ILE87       0.0252
    104  CG1     -109.3460  -23.3540   50.0150 C.3    87  ILE87       0.0019
    105  CG2     -108.5200  -21.5080   48.4970 C.3    87  ILE87       0.0019
    106  CD1     -109.2310  -22.5790   51.3140 C.3    87  ILE87       0.0001
    107  N       -106.4780  -20.4520   43.8950 N.3    89  THR89      -0.1203
    108  CA      -106.6140  -19.0490   43.5310 C.3    89  THR89       0.1994
    109  C       -105.8160  -18.7550   42.2750 C.2    89  THR89       0.2618
    110  O       -104.9620  -19.5340   41.8480 O.2    89  THR89      -0.2717
    111  CB      -106.1140  -18.0980   44.6320 C.3    89  THR89       0.1784
    112  OG1     -104.6820  -18.1680   44.7340 O.3    89  THR89      -0.2211
    113  CG2     -106.7400  -18.4280   45.9660 C.3    89  THR89       0.0376
    114  N       -106.0860  -17.5830   41.7140 N.am   90  GLU90      -0.1965
    115  CA      -105.2090  -17.0440   40.6930 C.3    90  GLU90       0.1733
    116  C       -103.7890  -16.8940   41.2330 C.2    90  GLU90       0.2616
    117  O       -103.5480  -16.8470   42.4440 O.2    90  GLU90      -0.2715
    118  CB      -105.7300  -15.6920   40.2010 C.3    90  GLU90       0.0429
    119  CG      -105.7840  -14.5960   41.2610 C.3    90  GLU90       0.1163
    120  CD      -106.4600  -13.3290   40.7560 C.2    90  GLU90       0.3649
    121  OE1     -106.5820  -13.1630   39.5230 O.co2  90  GLU90      -0.2457
    122  OE2     -106.8660  -12.4920   41.5900 O.co2  90  GLU90      -0.2457
    123  N       -102.8420  -16.8560   40.3040 N.am   91  TYR91      -0.1960
    124  CA      -101.4310  -16.6800   40.5990 C.3    91  TYR91       0.1771
    125  C       -101.0040  -15.3820   39.9410 C.2    91  TYR91       0.2619
    126  O       -101.2330  -15.1830   38.7420 O.2    91  TYR91      -0.2715
    127  CB      -100.6190  -17.8560   40.0530 C.3    91  TYR91       0.0574
    128  CG       -99.1620  -17.8420   40.4460 C.ar   91  TYR91      -0.0198
    129  CD1      -98.7270  -18.4620   41.6070 C.ar   91  TYR91      -0.0009
    130  CD2      -98.2180  -17.2110   39.6480 C.ar   91  TYR91      -0.0009
    131  CE1      -97.3920  -18.4520   41.9640 C.ar   91  TYR91       0.0417
    132  CE2      -96.8840  -17.1920   39.9960 C.ar   91  TYR91       0.0417
    133  CZ       -96.4760  -17.8120   41.1530 C.ar   91  TYR91       0.1957
    134  OH       -95.1450  -17.7960   41.5010 O.3    91  TYR91      -0.2866
    135  N       -100.5080  -14.4640   40.7640 N.am   92  MET92      -0.1977
    136  CA      -100.0710  -13.1590   40.2990 C.3    92  MET92       0.1605
    137  C        -98.6590  -13.2850   39.7730 C.2    92  MET92       0.2287
    138  O        -97.8200  -13.9520   40.3770 O.2    92  MET92      -0.2864
    139  CB      -100.1240  -12.1370   41.4350 C.3    92  MET92       0.0413
    140  CG      -101.5320  -11.7550   41.8610 C.3    92  MET92       0.0598
    141  SD      -102.7420  -11.9760   40.5420 S.3    92  MET92      -0.1393
    142  CE      -101.8810  -11.2230   39.1640 C.3    92  MET92       0.0692
    143  N        -96.0630  -11.1680   42.0920 N.3    95  GLY95      -0.1210
    144  CA       -95.8960  -11.5450   43.4780 C.3    95  GLY95       0.1956
    145  C        -96.4060  -10.5120   44.4710 C.2    95  GLY95       0.2611
    146  O        -97.2630   -9.6710   44.1790 O.2    95  GLY95      -0.2717
    147  N        -95.8600  -10.6150   45.6770 N.am   96  ALA96      -0.1979
    148  CA       -96.2920   -9.7930   46.7910 C.3    96  ALA96       0.1597
    149  C        -95.7470   -8.3760   46.6810 C.2    96  ALA96       0.2287
    150  O        -94.6080   -8.1580   46.2520 O.2    96  ALA96      -0.2864
    151  CB       -95.8540  -10.4270   48.1080 C.3    96  ALA96       0.0319
    152  N       -114.2770   -5.3920   51.6070 N.3   127  LEU127     -0.1245
    153  CA      -114.2020   -6.3420   52.7170 C.3   127  LEU127      0.1561
    154  C       -114.9430   -5.8210   53.9330 C.2   127  LEU127      0.2260
    155  O       -115.7520   -6.5410   54.5420 O.2   127  LEU127     -0.2867
    156  CB      -112.7510   -6.6450   53.0790 C.3   127  LEU127      0.0270
    157  CG      -111.9580   -7.4330   52.0410 C.3   127  LEU127      0.0019
    158  CD1     -110.5340   -7.6110   52.5190 C.3   127  LEU127      0.0001
    159  CD2     -112.5910   -8.7840   51.7430 C.3   127  LEU127      0.0001
    160  N       -116.1070   -8.2100   56.8530 N.3   132  TYR132     -0.1241
    161  CA      -114.8830   -8.9790   57.0160 C.3   132  TYR132      0.1605
    162  C       -113.7770   -8.0660   57.5180 C.2   132  TYR132      0.2264
    163  O       -113.3970   -7.1110   56.8320 O.2   132  TYR132     -0.2867
    164  CB      -114.4620   -9.6560   55.7130 C.3   132  TYR132      0.0534
    165  CG      -113.2990  -10.5720   55.9570 C.ar  132  TYR132     -0.0201
    166  CD1     -113.4910  -11.8100   56.5490 C.ar  132  TYR132     -0.0009
    167  CD2     -112.0020  -10.1800   55.6550 C.ar  132  TYR132     -0.0009
    168  CE1     -112.4190  -12.6420   56.8180 C.ar  132  TYR132      0.0417
    169  CE2     -110.9210  -11.0010   55.9100 C.ar  132  TYR132      0.0417
    170  CZ      -111.1430  -12.2330   56.4960 C.ar  132  TYR132      0.1957
    171  OH      -110.0910  -13.0770   56.7760 O.3   132  TYR132     -0.2866
    172  N       -109.9150   -7.7900   58.3120 N.3   134  HIS134     -0.1241
    173  CA      -108.7590   -8.5140   57.8020 C.3   134  HIS134      0.1621
    174  C       -107.8070   -8.9250   58.9240 C.2   134  HIS134      0.2264
    175  O       -107.3880  -10.0870   59.0000 O.2   134  HIS134     -0.2867
    176  CB      -108.0480   -7.6520   56.7700 C.3   134  HIS134      0.0745
    177  CG      -107.0010   -8.3870   56.0080 C.ar  134  HIS134      0.0817
    178  ND1     -105.8230   -8.8140   56.5840 N.ar  134  HIS134     -0.2268
    179  CD2     -106.9700   -8.7980   54.7180 C.ar  134  HIS134      0.1154
    180  CE1     -105.1090   -9.4470   55.6720 C.ar  134  HIS134      0.1986
    181  NE2     -105.7810   -9.4500   54.5320 N.ar  134  HIS134     -0.2212
    182  N       -101.0720   -8.8680   46.4940 N.3   143  LEU143     -0.1245
    183  CA      -100.4660   -9.3300   45.2510 C.3   143  LEU143      0.1561
    184  C       -100.6320   -8.2660   44.1770 C.2   143  LEU143      0.2260
    185  O       -101.5660   -7.4630   44.2150 O.2   143  LEU143     -0.2867
    186  CB      -101.1170  -10.6250   44.7740 C.3   143  LEU143      0.0270
    187  CG      -100.8510  -11.8340   45.6590 C.3   143  LEU143      0.0019
    188  CD1     -101.7450  -13.0020   45.2740 C.3   143  LEU143      0.0001
    189  CD2      -99.3930  -12.2390   45.5720 C.3   143  LEU143      0.0001
    190  N       -105.8940   -7.5970   47.4830 N.3   152  VAL152     -0.1231
    191  CA      -105.7820   -7.9480   48.8840 C.3   152  VAL152      0.1692
    192  C       -105.9430   -9.4520   49.0340 C.2   152  VAL152      0.2593
    193  O       -106.8420  -10.0670   48.4400 O.2   152  VAL152     -0.2718
    194  CB      -106.8220   -7.1750   49.7120 C.3   152  VAL152      0.0266
    195  CG1     -106.7320   -7.5630   51.1750 C.3   152  VAL152      0.0020
    196  CG2     -106.6210   -5.6760   49.5540 C.3   152  VAL152      0.0020
    197  N       -105.0710  -10.0410   49.8460 N.am  153  SER153     -0.1938
    198  CA      -105.0170  -11.4700   50.0990 C.3   153  SER153      0.2055
    199  C       -104.7570  -11.6710   51.5830 C.2   153  SER153      0.2643
    200  O       -104.6270  -10.7110   52.3460 O.2   153  SER153     -0.2714
    201  CB      -103.8710  -12.1100   49.3020 C.3   153  SER153      0.2130
    202  OG      -103.9080  -11.7370   47.9310 O.3   153  SER153     -0.2179
    203  N       -104.6360  -12.9310   52.0010 N.am  154  ASP154     -0.1957
    204  CA      -104.1490  -13.2290   53.3510 C.3   154  ASP154      0.1840
    205  C       -103.3460  -14.5210   53.3020 C.2   154  ASP154      0.2622
    206  O       -103.9090  -15.6060   53.1130 O.2   154  ASP154     -0.2715
    207  CB      -105.2920  -13.3360   54.3470 C.3   154  ASP154      0.1450
    208  CG      -104.8080  -13.4750   55.7840 C.2   154  ASP154      0.3671
    209  OD1     -103.6030  -13.7560   56.0100 O.co2 154  ASP154     -0.2456
    210  OD2     -105.6390  -13.3150   56.6980 O.co2 154  ASP154     -0.2456
    211  N       -102.0350  -14.4010   53.4550 N.am  155  PHE155     -0.1974
    212  CA      -101.1380  -15.5420   53.3770 C.3   155  PHE155      0.1639
    213  C       -100.8520  -16.1710   54.7300 C.2   155  PHE155      0.2290
    214  O       -100.0430  -17.1030   54.8030 O.2   155  PHE155     -0.2864
    215  CB       -99.8450  -15.1370   52.6820 C.3   155  PHE155      0.0560
    216  CG      -100.0720  -14.5540   51.3320 C.ar  155  PHE155     -0.0200
    217  CD1     -100.8920  -15.1950   50.4200 C.ar  155  PHE155     -0.0042
    218  CD2      -99.5210  -13.3330   50.9920 C.ar  155  PHE155     -0.0042
    219  CE1     -101.1240  -14.6480   49.1830 C.ar  155  PHE155     -0.0003
    220  CE2      -99.7480  -12.7840   49.7610 C.ar  155  PHE155     -0.0003
    221  CZ      -100.5490  -13.4340   48.8510 C.ar  155  PHE155     -0.0000
@<TRIPOS>BOND
     1   126   125    2
     2   142   141    1
     3   121   120   ar
     4   130   132   ar
     5   130   128   ar
     6   137   136    1
     7   137   138    2
     8   125   124    1
     9   125   135   am
    10   132   133   ar
    11   127   128    1
    12   127   124    1
    13   118   115    1
    14   118   119    1
    15   136   135    1
    16   136   139    1
    17   123   124    1
    18   123   116   am
    19   128   129   ar
    20   141   140    1
    21   115   116    1
    22   115   114    1
    23   120   119    1
    24   120   122   ar
    25   133   134    1
    26   133   131   ar
    27   116   117    2
    28   139   140    1
    29   129   131   ar
    30   114   109   am
    31   110   109    2
    32   143   144    1
    33   109   108    1
    34    37    35    1
    35    25    26    1
    36    35    34    1
    37   144   145    1
    38   108   107    1
    39   108   111    1
    40    26    27    1
    41    26    29    1
    42   184   185    2
    43   184   183    1
    44   146   145    2
    45    86    85    2
    46    28    27    2
    47    27    30   am
    48   145   147   am
    49   111   112    1
    50   111   113    1
    51    93    92    1
    52    93    94    2
    53   186   183    1
    54   186   187    1
    55    34    36    1
    56    34    31    1
    57    30    31    1
    58    92    91    1
    59    92    95    1
    60    83    84    1
    61   183   182    1
    62   188   187    1
    63    85    91   am
    64    85    84    1
    65    96    95    1
    66    96    98    1
    67    75    74    2
    68     7     5    1
    69   189   187    1
    70    31    32    1
    71   147   148    1
    72     8     6    1
    73    74    73    1
    74    95    97    1
    75    84    87    1
    76   150   149    2
    77   101   102    2
    78   101   100    1
    79   149   148    1
    80     5     6    1
    81     5     2    1
    82    87    88    1
    83    87    89    1
    84   148   151    1
    85    67    66    2
    86    32    33    2
    87    32    38   am
    88    73    72    1
    89    73    76    1
    90   190   191    1
    91    88    90    1
    92     1     2    1
    93   100    99    1
    94   100   103    1
    95     2     3    1
    96   202   201    1
    97    66    65    1
    98    38    39    1
    99    76    77    1
   100    20    21    2
   101    20    19    1
   102   193   192    2
   103   105   103    1
   104    71    70    1
   105    23    22    1
   106   221   219   ar
   107   221   220   ar
   108   191   192    1
   109   191   194    1
   110   103   104    1
   111   192   197   am
   112    68    65    1
   113    68    69    1
   114   219   217   ar
   115     3     4    2
   116     3     9   am
   117    65    64    1
   118   201   198    1
   119    39    40    1
   120    39    42    1
   121    19    22    1
   122    19    18    1
   123    41    40    2
   124   196   194    1
   125    77    78   ar
   126    77    79   ar
   127   194   195    1
   128   220   218   ar
   129    22    24    1
   130   197   198    1
   131    70    69    1
   132   104   106    1
   133     9    10    1
   134   198   199    1
   135    59    58    2
   136    78    80   ar
   137    42    43    1
   138    64    58   am
   139    79    81   ar
   140   217   216   ar
   141    58    57    1
   142   218   216   ar
   143   216   215    1
   144    10    11    1
   145   199   203   am
   146   199   200    2
   147   152   153    1
   148    80    82   ar
   149   159   157    1
   150    81    82   ar
   151    43    44    1
   152    12    11    2
   153    50    49    2
   154    57    56    1
   155    57    60    1
   156   203   204    1
   157   157   158    1
   158   157   156    1
   159    11    13   am
   160    44    45    1
   161    49    48    1
   162   215   212    1
   163   153   156    1
   164   153   154    1
   165    45    46    1
   166   206   205    2
   167    55    53   ar
   168    60    61    1
   169    60    62    1
   170   205   204    1
   171   205   211   am
   172    13    14    1
   173   204   207    1
   174   212   211    1
   175   212   213    1
   176    52    53    1
   177    52    51    1
   178    61    63    1
   179    53    54   ar
   180   154   155    2
   181    48    51    1
   182    48    47    1
   183    14    15    1
   184    14    17    1
   185   207   208    1
   186   181   179   ar
   187   181   180   ar
   188    15    16    2
   189   179   177   ar
   190   213   214    2
   191   167   169   ar
   192   167   165   ar
   193   180   178   ar
   194   164   165    1
   195   164   161    1
   196   208   209   ar
   197   208   210   ar
   198   169   170   ar
   199   165   166   ar
   200   177   178   ar
   201   177   176    1
   202   170   171    1
   203   170   168   ar
   204   166   168   ar
   205   176   173    1
   206   163   162    2
   207   160   161    1
   208   161   162    1
   209   173   172    1
   210   173   174    1
   211   174   175    2
