@<TRIPOS>MOLECULE
tmp/6fnhB00.pdb
 121 113 0 0 0
SMALL
GASTEIGER

@<TRIPOS>ATOM
      1  N         52.3900   95.8230   35.9580 N.3    18  ILE18      -0.1231
      2  CA        53.4220   95.8850   36.9900 C.3    18  ILE18       0.1692
      3  C         53.0060   96.6660   38.2160 C.2    18  ILE18       0.2593
      4  O         53.7410   96.6420   39.2140 O.2    18  ILE18      -0.2718
      5  CB        54.7650   96.4140   36.4500 C.3    18  ILE18       0.0266
      6  CG1       54.6130   97.8700   35.9970 C.3    18  ILE18       0.0019
      7  CG2       55.2800   95.5190   35.3280 C.3    18  ILE18       0.0020
      8  CD1       55.8930   98.4760   35.4420 C.3    18  ILE18       0.0001
      9  N         51.8840   97.3690   38.1820 N.am   19  GLY19      -0.1942
     10  CA        51.5270   98.1680   39.3380 C.3    19  GLY19       0.2014
     11  C         50.2350   98.9110   39.1040 C.2    19  GLY19       0.2639
     12  O         49.6620   98.8910   38.0080 O.2    19  GLY19      -0.2714
     13  N         49.7790   99.5690   40.1660 N.am   20  ALA20      -0.1963
     14  CA        48.6170  100.4430   40.1130 C.3    20  ALA20       0.1728
     15  C         49.0770  101.8240   40.5400 C.2    20  ALA20       0.2616
     16  O         49.6880  101.9780   41.6030 O.2    20  ALA20      -0.2715
     17  CB        47.4950   99.9320   41.0180 C.3    20  ALA20       0.0334
     18  N         48.8390  102.8140   39.6820 N.am   21  GLY21      -0.1955
     19  CA        49.1360  104.1890   39.9940 C.3    21  GLY21       0.1869
     20  C         47.8990  104.9040   40.5080 C.2    21  GLY21       0.2309
     21  O         46.8090  104.3410   40.6090 O.2    21  GLY21      -0.2863
     22  N         49.5790  100.4060   35.6310 N.3    26  VAL26      -0.1245
     23  CA        50.8780  100.6410   35.0160 C.3    26  VAL26       0.1561
     24  C         51.3650   99.3200   34.4450 C.2    26  VAL26       0.2260
     25  O         51.2590   98.2770   35.1050 O.2    26  VAL26      -0.2867
     26  CB        51.8980  101.1800   36.0430 C.3    26  VAL26       0.0252
     27  CG1       53.2410  101.4270   35.3780 C.3    26  VAL26       0.0019
     28  CG2       51.3700  102.4590   36.7510 C.3    26  VAL26       0.0019
     29  N         57.8660  101.7050   30.5990 N.3    40  ALA40      -0.1245
     30  CA        56.7550  101.6710   31.5330 C.3    40  ALA40       0.1562
     31  C         55.6300  102.4990   30.9370 C.2    40  ALA40       0.2260
     32  O         55.8770  103.5370   30.3140 O.2    40  ALA40      -0.2867
     33  CB        57.1340  102.2610   32.8920 C.3    40  ALA40       0.0290
     34  N         51.9530  104.1400   31.8240 N.3    42  LYS42      -0.1245
     35  CA        50.9620  104.5360   32.8160 C.3    42  LYS42       0.1561
     36  C         49.6950  104.9150   32.0650 C.2    42  LYS42       0.2260
     37  O         49.7180  105.7980   31.2070 O.2    42  LYS42      -0.2867
     38  CB        51.4660  105.7200   33.6410 C.3    42  LYS42       0.0271
     39  CG        52.9430  105.6470   33.9940 C.3    42  LYS42       0.0035
     40  CD        53.1910  106.0910   35.4260 C.3    42  LYS42       0.0206
     41  CE        53.1310  107.6050   35.5530 C.3    42  LYS42       0.1093
     42  NZ        53.0640  108.0410   36.9750 N.3    42  LYS42      -0.1314
     43  N         63.7980  110.4370   35.8050 N.3    72  ILE72      -0.1245
     44  CA        63.1120  109.4990   34.9040 C.3    72  ILE72       0.1561
     45  C         62.8360  110.1660   33.5640 C.2    72  ILE72       0.2260
     46  O         62.3480  111.3020   33.5060 O.2    72  ILE72      -0.2867
     47  CB        61.8270  108.9660   35.5750 C.3    72  ILE72       0.0252
     48  CG1       61.2460  107.8060   34.7700 C.3    72  ILE72       0.0019
     49  CG2       60.7790  110.0470   35.7490 C.3    72  ILE72       0.0019
     50  CD1       62.0250  106.5510   34.9710 C.3    72  ILE72       0.0001
     51  N         57.3660  106.1020   29.8980 N.3    88  THR88      -0.1203
     52  CA        58.6920  106.4410   30.4050 C.3    88  THR88       0.1994
     53  C         59.6540  105.2880   30.1360 C.2    88  THR88       0.2618
     54  O         59.2440  104.1680   29.8140 O.2    88  THR88      -0.2717
     55  CB        58.6730  106.7110   31.9230 C.3    88  THR88       0.1784
     56  OG1       58.5150  105.4680   32.6150 O.3    88  THR88      -0.2211
     57  CG2       57.5200  107.6180   32.3200 C.3    88  THR88       0.0376
     58  N         60.9490  105.5650   30.2970 N.am   89  GLU89      -0.1965
     59  CA        61.9360  104.4880   30.3190 C.3    89  GLU89       0.1733
     60  C         61.5690  103.4650   31.3840 C.2    89  GLU89       0.2616
     61  O         60.9350  103.7850   32.3940 O.2    89  GLU89      -0.2715
     62  CB        63.3480  105.0260   30.5810 C.3    89  GLU89       0.0429
     63  CG        63.5370  105.6490   31.9630 C.3    89  GLU89       0.1163
     64  CD        64.9420  106.2040   32.1910 C.2    89  GLU89       0.3649
     65  OE1       65.0580  107.3740   32.6100 O.co2  89  GLU89      -0.2457
     66  OE2       65.9250  105.4710   31.9670 O.co2  89  GLU89      -0.2457
     67  N         61.9570  102.2100   31.1450 N.am   90  TYR90      -0.1960
     68  CA        61.6490  101.1250   32.0630 C.3    90  TYR90       0.1771
     69  C         62.7560  100.9660   33.1060 C.2    90  TYR90       0.2619
     70  O         63.9450  100.9440   32.7600 O.2    90  TYR90      -0.2715
     71  CB        61.4940   99.8210   31.2770 C.3    90  TYR90       0.0574
     72  CG        61.0340   98.6850   32.1410 C.ar   90  TYR90      -0.0198
     73  CD1       59.8450   98.7670   32.8490 C.ar   90  TYR90      -0.0009
     74  CD2       61.8020   97.5410   32.2820 C.ar   90  TYR90      -0.0009
     75  CE1       59.4210   97.7310   33.6580 C.ar   90  TYR90       0.0417
     76  CE2       61.3850   96.5010   33.0890 C.ar   90  TYR90       0.0417
     77  CZ        60.1980   96.6050   33.7680 C.ar   90  TYR90       0.1957
     78  OH        59.7800   95.5710   34.5740 O.3    90  TYR90      -0.2866
     79  N         62.3620  100.8420   34.3730 N.am   91  MET91      -0.1963
     80  CA        63.2900  100.7150   35.4930 C.3    91  MET91       0.1736
     81  C         63.0620   99.3450   36.1300 C.2    91  MET91       0.2616
     82  O         62.2080   99.1710   36.9970 O.2    91  MET91      -0.2715
     83  CB        63.0680  101.8980   36.4770 C.3    91  MET91       0.0427
     84  CG        63.2100  103.2730   35.7630 C.3    91  MET91       0.0599
     85  SD        64.8930  103.6960   35.3440 S.3    91  MET91      -0.1393
     86  CE        65.5640  104.1040   37.0050 C.3    91  MET91       0.0692
     87  N         63.8500   98.3650   35.6740 N.am   92  GLU92      -0.1977
     88  CA        63.5670   96.9580   35.9490 C.3    92  GLU92       0.1602
     89  C         63.5150   96.6420   37.4400 C.2    92  GLU92       0.2287
     90  O         62.7650   95.7480   37.8690 O.2    92  GLU92      -0.2864
     91  CB        64.6450   96.1160   35.2690 C.3    92  GLU92       0.0415
     92  CG        64.5180   94.6360   35.4590 C.3    92  GLU92       0.1163
     93  CD        65.6340   93.9070   34.7500 C.2    92  GLU92       0.3649
     94  OE1       66.6770   93.6250   35.3890 O.co2  92  GLU92      -0.2457
     95  OE2       65.4790   93.6540   33.5410 O.co2  92  GLU92      -0.2457
     96  N         62.4980   98.5710   39.9290 N.3    94  GLY94      -0.1225
     97  CA        61.4080   99.1090   40.7170 C.3    94  GLY94       0.1811
     98  C         61.8310  100.1820   41.7190 C.2    94  GLY94       0.2280
     99  O         62.8730  100.8350   41.5910 O.2    94  GLY94      -0.2866
    100  N         63.3480  105.2840   41.4100 N.3   142  LEU142     -0.1245
    101  CA        63.3300  104.0010   40.7140 C.3   142  LEU142      0.1561
    102  C         64.7480  103.5760   40.3560 C.2   142  LEU142      0.2260
    103  O         65.6520  104.3970   40.2470 O.2   142  LEU142     -0.2867
    104  CB        62.4570  104.0660   39.4600 C.3   142  LEU142      0.0270
    105  CG        60.9570  104.2520   39.7030 C.3   142  LEU142      0.0019
    106  CD1       60.2670  104.3800   38.3520 C.3   142  LEU142      0.0001
    107  CD2       60.3520  103.0940   40.4910 C.3   142  LEU142      0.0001
    108  N         61.7170  109.8680   40.2850 N.3   152  SER152     -0.1202
    109  CA        60.7630  109.2890   39.3350 C.3   152  SER152      0.2020
    110  C         59.3020  109.6460   39.5440 C.2   152  SER152      0.2618
    111  O         58.5020  109.4260   38.6230 O.2   152  SER152     -0.2717
    112  CB        60.8830  107.7590   39.3060 C.3   152  SER152      0.2103
    113  OG        62.1060  107.3490   38.7140 O.3   152  SER152     -0.2182
    114  N         58.9150  110.1700   40.7000 N.am  153  ASP153     -0.1973
    115  CA        57.5160  110.3980   41.0260 C.3   153  ASP153      0.1709
    116  C         57.3470  111.8750   41.3060 C.2   153  ASP153      0.2293
    117  O         57.9850  112.4170   42.2150 O.2   153  ASP153     -0.2864
    118  CB        57.0860  109.5700   42.2420 C.3   153  ASP153      0.1436
    119  CG        55.6080  109.7480   42.5870 C.2   153  ASP153      0.3671
    120  OD1       54.8720  108.7370   42.5650 O.co2 153  ASP153     -0.2456
    121  OD2       55.1860  110.8840   42.9060 O.co2 153  ASP153     -0.2456
@<TRIPOS>BOND
     1    54    53    2
     2    51    52    1
     3    53    58   am
     4    53    52    1
     5    58    59    1
     6    32    31    2
     7    59    62    1
     8    59    60    1
     9    52    55    1
    10    62    63    1
    11    29    30    1
    12    31    30    1
    13    67    60   am
    14    67    68    1
    15    37    36    2
    16    71    68    1
    17    71    72    1
    18    60    61    2
    19    30    33    1
    20    34    35    1
    21    55    57    1
    22    55    56    1
    23    63    64    1
    24    66    64   ar
    25    68    69    1
    26    36    35    1
    27    72    74   ar
    28    72    73   ar
    29    64    65   ar
    30    74    76   ar
    31    70    69    2
    32    35    38    1
    33    73    75   ar
    34    76    77   ar
    35    69    79   am
    36    46    45    2
    37    95    93   ar
    38    45    44    1
    39    38    39    1
    40    75    77   ar
    41    77    78    1
    42    39    40    1
    43    79    80    1
    44    24    23    1
    45    24    25    2
    46    93    94   ar
    47    93    92    1
    48    48    50    1
    49    48    47    1
    50    44    47    1
    51    44    43    1
    52    23    22    1
    53    23    26    1
    54    91    92    1
    55    91    88    1
    56     7     5    1
    57    85    84    1
    58    85    86    1
    59    27    26    1
    60    40    41    1
    61     8     6    1
    62    80    81    1
    63    80    83    1
    64    41    42    1
    65    47    49    1
    66    87    88    1
    67    87    81   am
    68    84    83    1
    69    88    89    1
    70     1     2    1
    71     6     5    1
    72    26    28    1
    73    81    82    2
    74     5     2    1
    75     2     3    1
    76    89    90    2
    77    12    11    2
    78     9     3   am
    79     9    10    1
    80     3     4    2
    81   106   105    1
    82   111   110    2
    83   113   112    1
    84    11    10    1
    85    11    13   am
    86   112   109    1
    87   109   110    1
    88   109   108    1
    89   104   105    1
    90   104   101    1
    91   110   114   am
    92    18    19    1
    93    18    15   am
    94   105   107    1
    95    96    97    1
    96    19    20    1
    97    14    13    1
    98    14    15    1
    99    14    17    1
   100   103   102    2
   101   102   101    1
   102    20    21    2
   103    15    16    2
   104   114   115    1
   105   101   100    1
   106    97    98    1
   107   115   116    1
   108   115   118    1
   109   116   117    2
   110    99    98    2
   111   118   119    1
   112   120   119   ar
   113   119   121   ar
