@<TRIPOS>MOLECULE
tmp/6fnjB00.pdb
 216 205 0 0 0
SMALL
GASTEIGER

@<TRIPOS>ATOM
      1  N         -7.3350   14.9390   39.1220 N.3    15  ILE15      -0.1245
      2  CA        -8.5050   15.3700   39.8810 C.3    15  ILE15       0.1561
      3  C         -8.2050   16.4560   40.8990 C.2    15  ILE15       0.2260
      4  O         -9.1530   17.0320   41.4570 O.2    15  ILE15      -0.2867
      5  CB        -9.2460   14.1880   40.5430 C.3    15  ILE15       0.0252
      6  CG1       -8.3890   13.5360   41.6270 C.3    15  ILE15       0.0019
      7  CG2       -9.6440   13.1600   39.5010 C.3    15  ILE15       0.0019
      8  CD1       -9.0880   12.3840   42.3370 C.3    15  ILE15       0.0001
      9  N         -4.8580   18.9820   43.1730 N.3    17  ALA17      -0.1245
     10  CA        -3.5820   19.6830   43.2300 C.3    17  ALA17       0.1562
     11  C         -3.0110   19.5510   44.6340 C.2    17  ALA17       0.2260
     12  O         -3.6620   19.9400   45.6090 O.2    17  ALA17      -0.2867
     13  CB        -3.7720   21.1620   42.8780 C.3    17  ALA17       0.0290
     14  N         -3.0230   15.2470   42.1330 N.3    23  VAL23      -0.1245
     15  CA        -3.8580   14.1610   42.6280 C.3    23  VAL23       0.1561
     16  C         -4.6070   13.5890   41.4350 C.2    23  VAL23       0.2260
     17  O         -5.2680   14.3330   40.7010 O.2    23  VAL23      -0.2867
     18  CB        -4.8460   14.6500   43.7030 C.3    23  VAL23       0.0252
     19  CG1       -5.6930   13.4910   44.1930 C.3    23  VAL23       0.0019
     20  CG2       -4.0980   15.3110   44.8490 C.3    23  VAL23       0.0019
     21  N         -6.7190    6.2170   43.9620 N.3    39  ALA39      -0.1231
     22  CA        -6.3650    7.6250   43.9640 C.3    39  ALA39       0.1694
     23  C         -4.8570    7.7160   44.1190 C.2    39  ALA39       0.2592
     24  O         -4.2460    6.8960   44.8110 O.2    39  ALA39      -0.2718
     25  CB        -7.0450    8.3680   45.1170 C.3    39  ALA39       0.0304
     26  N         -4.2490    8.6750   43.4220 N.am   40  ILE40      -0.1966
     27  CA        -2.7990    8.7530   43.3180 C.3    40  ILE40       0.1727
     28  C         -2.3640   10.1820   43.5950 C.2    40  ILE40       0.2616
     29  O         -2.8590   11.1180   42.9580 O.2    40  ILE40      -0.2715
     30  CB        -2.3090    8.3240   41.9200 C.3    40  ILE40       0.0290
     31  CG1       -2.8750    6.9530   41.5330 C.3    40  ILE40       0.0022
     32  CG2       -0.7860    8.3200   41.8950 C.3    40  ILE40       0.0023
     33  CD1       -2.5440    6.5450   40.0900 C.3    40  ILE40       0.0001
     34  N         -1.4290   10.3460   44.5240 N.am   41  LYS41      -0.1977
     35  CA        -0.7260   11.6020   44.7260 C.3    41  LYS41       0.1596
     36  C          0.6340   11.4500   44.0690 C.2    41  LYS41       0.2287
     37  O          1.3370   10.4650   44.3180 O.2    41  LYS41      -0.2864
     38  CB        -0.5230   11.8850   46.2200 C.3    41  LYS41       0.0298
     39  CG        -1.4510   12.9350   46.7860 C.3    41  LYS41       0.0038
     40  CD        -1.1990   13.1460   48.2860 C.3    41  LYS41       0.0206
     41  CE        -0.3320   14.3590   48.5260 C.3    41  LYS41       0.1093
     42  NZ        -0.4880   14.8270   49.9380 N.3    41  LYS41      -0.1314
     43  N          4.4530   11.0320   54.3960 N.3    58  GLU58      -0.1245
     44  CA         3.0160   10.8210   54.5020 C.3    58  GLU58       0.1567
     45  C          2.6650    9.3480   54.3550 C.2    58  GLU58       0.2260
     46  O          1.8290    8.8220   55.0980 O.2    58  GLU58      -0.2867
     47  CB         2.2750   11.6540   53.4590 C.3    58  GLU58       0.0388
     48  CG         0.7750   11.4070   53.4910 C.3    58  GLU58       0.1160
     49  CD        -0.0020   12.2970   52.5480 C.2    58  GLU58       0.3649
     50  OE1       -1.2400   12.3430   52.6730 O.co2  58  GLU58      -0.2457
     51  OE2        0.6130   12.9490   51.6770 O.co2  58  GLU58      -0.2457
     52  N          3.4370    7.4750   57.5440 N.3    61  ILE61      -0.1231
     53  CA         2.3860    7.6890   58.5390 C.3    61  ILE61       0.1692
     54  C          1.1600    6.8430   58.2180 C.2    61  ILE61       0.2591
     55  O          0.6440    6.1130   59.0720 O.2    61  ILE61      -0.2718
     56  CB         2.0470    9.1870   58.6370 C.3    61  ILE61       0.0266
     57  CG1        3.2200    9.9500   59.2520 C.3    61  ILE61       0.0019
     58  CG2        0.7690    9.4030   59.4270 C.3    61  ILE61       0.0020
     59  CD1        3.1550   11.4380   59.0390 C.3    61  ILE61       0.0001
     60  N          0.6870    6.9180   56.9700 N.am   62  MET62      -0.1979
     61  CA        -0.5420    6.2300   56.5860 C.3    62  MET62       0.1605
     62  C         -0.4110    4.7230   56.7150 C.2    62  MET62       0.2287
     63  O         -1.3850    4.0360   57.0390 O.2    62  MET62      -0.2864
     64  CB        -0.8730    6.5530   55.1330 C.3    62  MET62       0.0413
     65  CG        -1.0430    8.0090   54.8580 C.3    62  MET62       0.0598
     66  SD        -1.3360    8.1580   53.1110 S.3    62  MET62      -0.1393
     67  CE        -2.9110    7.3210   53.0090 C.3    62  MET62       0.0692
     68  N         -1.7850    2.7140   59.6780 N.3    65  PHE65      -0.1241
     69  CA        -3.2150    2.6760   59.9460 C.3    65  PHE65       0.1605
     70  C         -3.8540    1.5410   59.1630 C.2    65  PHE65       0.2264
     71  O         -3.6680    1.4340   57.9450 O.2    65  PHE65      -0.2867
     72  CB        -3.8750    3.9920   59.5380 C.3    65  PHE65       0.0534
     73  CG        -3.2490    5.2060   60.1540 C.ar   65  PHE65      -0.0203
     74  CD1       -3.1430    6.3840   59.4270 C.ar   65  PHE65      -0.0042
     75  CD2       -2.7720    5.1780   61.4500 C.ar   65  PHE65      -0.0042
     76  CE1       -2.5680    7.5110   59.9910 C.ar   65  PHE65      -0.0003
     77  CE2       -2.1940    6.3000   62.0170 C.ar   65  PHE65      -0.0003
     78  CZ        -2.0920    7.4670   61.2820 C.ar   65  PHE65      -0.0000
     79  N        -10.6090    4.1650   58.0630 N.3    70  ILE70      -0.1231
     80  CA        -9.4520    4.9820   57.7290 C.3    70  ILE70       0.1692
     81  C         -9.0670    4.6420   56.2980 C.2    70  ILE70       0.2591
     82  O         -9.0720    3.4660   55.9190 O.2    70  ILE70      -0.2718
     83  CB        -8.2670    4.7030   58.6750 C.3    70  ILE70       0.0266
     84  CG1       -8.6650    4.9480   60.1380 C.3    70  ILE70       0.0019
     85  CG2       -7.0740    5.5620   58.2900 C.3    70  ILE70       0.0020
     86  CD1       -8.8970    6.4030   60.4590 C.3    70  ILE70       0.0001
     87  N         -8.7660    5.6700   55.4980 N.am   71  ILE71      -0.1980
     88  CA        -8.3950    5.4390   54.1050 C.3    71  ILE71       0.1595
     89  C         -7.2230    4.4650   54.0390 C.2    71  ILE71       0.2287
     90  O         -6.2910    4.5260   54.8490 O.2    71  ILE71      -0.2864
     91  CB        -8.0910    6.7890   53.4320 C.3    71  ILE71       0.0276
     92  CG1       -7.9890    6.6110   51.9190 C.3    71  ILE71       0.0022
     93  CG2       -6.8470    7.4220   54.0100 C.3    71  ILE71       0.0022
     94  CD1       -9.3230    6.2350   51.3170 C.3    71  ILE71       0.0001
     95  N          2.0210    8.0220   45.7600 N.3    85  ILE85      -0.1245
     96  CA         1.3300    7.3790   46.8720 C.3    85  ILE85       0.1561
     97  C         -0.0520    6.9950   46.3680 C.2    85  ILE85       0.2260
     98  O         -0.7700    7.8390   45.8210 O.2    85  ILE85      -0.2867
     99  CB         1.2040    8.3240   48.0810 C.3    85  ILE85       0.0252
    100  CG1        2.5780    8.7860   48.5740 C.3    85  ILE85       0.0019
    101  CG2        0.4300    7.6400   49.1900 C.3    85  ILE85       0.0019
    102  CD1        2.5030    9.8590   49.6600 C.3    85  ILE85       0.0001
    103  N         -3.8440    5.1960   47.1580 N.3    87  THR87      -0.1203
    104  CA        -4.8600    4.6980   48.0740 C.3    87  THR87       0.1994
    105  C         -6.0180    4.1020   47.2850 C.2    87  THR87       0.2618
    106  O         -6.1400    4.2730   46.0690 O.2    87  THR87      -0.2717
    107  CB        -5.4080    5.8090   48.9860 C.3    87  THR87       0.1784
    108  OG1       -6.1720    6.7380   48.2050 O.3    87  THR87      -0.2211
    109  CG2       -4.2920    6.5360   49.6890 C.3    87  THR87       0.0376
    110  N         -6.8940    3.4040   48.0000 N.am   88  GLU88      -0.1965
    111  CA        -8.1660    3.0330   47.4140 C.3    88  GLU88       0.1733
    112  C         -8.8920    4.2850   46.9300 C.2    88  GLU88       0.2616
    113  O         -8.6240    5.4090   47.3700 O.2    88  GLU88      -0.2715
    114  CB        -9.0340    2.3000   48.4400 C.3    88  GLU88       0.0429
    115  CG        -9.4280    3.1600   49.6300 C.3    88  GLU88       0.1163
    116  CD       -10.1050    2.3760   50.7380 C.2    88  GLU88       0.3649
    117  OE1      -10.8850    1.4530   50.4320 O.co2  88  GLU88      -0.2457
    118  OE2       -9.8620    2.6980   51.9250 O.co2  88  GLU88      -0.2457
    119  N         -9.7980    4.0780   45.9890 N.am   89  PHE89      -0.1960
    120  CA       -10.6340    5.1300   45.4370 C.3    89  PHE89       0.1771
    121  C        -12.0450    4.9250   45.9650 C.2    89  PHE89       0.2619
    122  O        -12.5250    3.7900   46.0510 O.2    89  PHE89      -0.2715
    123  CB       -10.6320    5.0590   43.9040 C.3    89  PHE89       0.0574
    124  CG       -11.2900    6.2350   43.2410 C.ar   89  PHE89      -0.0200
    125  CD1      -10.5910    7.4120   43.0400 C.ar   89  PHE89      -0.0042
    126  CD2      -12.6090    6.1670   42.8220 C.ar   89  PHE89      -0.0042
    127  CE1      -11.1950    8.4980   42.4410 C.ar   89  PHE89      -0.0003
    128  CE2      -13.2170    7.2480   42.2170 C.ar   89  PHE89      -0.0003
    129  CZ       -12.5100    8.4180   42.0320 C.ar   89  PHE89      -0.0000
    130  N        -12.7110    6.0210   46.3190 N.am   90  MET90      -0.1977
    131  CA       -13.9980    5.9580   47.0040 C.3    90  MET90       0.1605
    132  C        -15.0750    6.5380   46.0970 C.2    90  MET90       0.2287
    133  O        -15.0530    7.7330   45.7870 O.2    90  MET90      -0.2864
    134  CB       -13.8990    6.7010   48.3330 C.3    90  MET90       0.0413
    135  CG       -12.7890    6.1400   49.2150 C.3    90  MET90       0.0598
    136  SD       -13.2610    4.5820   49.9780 S.3    90  MET90      -0.1393
    137  CE       -14.3290    5.2120   51.2840 C.3    90  MET90       0.0692
    138  N        -16.7130    9.9420   46.7530 N.3    93  GLY93      -0.1210
    139  CA       -15.8960   11.1170   47.0110 C.3    93  GLY93       0.1956
    140  C        -16.0560   11.6570   48.4320 C.2    93  GLY93       0.2611
    141  O        -16.3970   10.9360   49.3840 O.2    93  GLY93      -0.2717
    142  N        -15.8300   12.9630   48.5660 N.am   94  ALA94      -0.1979
    143  CA       -15.8350   13.6090   49.8790 C.3    94  ALA94       0.1597
    144  C        -17.2430   13.6950   50.4580 C.2    94  ALA94       0.2287
    145  O        -18.2300   13.9120   49.7500 O.2    94  ALA94      -0.2864
    146  CB       -15.2450   15.0130   49.7810 C.3    94  ALA94       0.0319
    147  N         -7.5150    6.0810   65.5750 N.3   125  LEU125     -0.1245
    148  CA        -6.4030    7.0270   65.5020 C.3   125  LEU125      0.1561
    149  C         -5.9700    7.4830   66.8930 C.2   125  LEU125      0.2260
    150  O         -4.7740    7.5240   67.2020 O.2   125  LEU125     -0.2867
    151  CB        -6.7880    8.2370   64.6610 C.3   125  LEU125      0.0270
    152  CG        -6.9510    7.9590   63.1810 C.3   125  LEU125      0.0019
    153  CD1       -7.3840    9.2510   62.5170 C.3   125  LEU125      0.0001
    154  CD2       -5.6450    7.4260   62.5840 C.3   125  LEU125      0.0001
    155  N         -2.4690    9.2060   67.4930 N.3   130  TYR130     -0.1241
    156  CA        -2.3860   10.0510   66.3120 C.3   130  TYR130      0.1605
    157  C         -3.4510   11.1340   66.4110 C.2   130  TYR130      0.2264
    158  O         -4.6460   10.8270   66.4650 O.2   130  TYR130     -0.2867
    159  CB        -2.5780    9.2470   65.0270 C.3   130  TYR130      0.0534
    160  CG        -2.3810   10.1180   63.8090 C.ar  130  TYR130     -0.0201
    161  CD1       -1.1050   10.4480   63.3760 C.ar  130  TYR130     -0.0009
    162  CD2       -3.4670   10.6540   63.1240 C.ar  130  TYR130     -0.0009
    163  CE1       -0.9100   11.2590   62.2810 C.ar  130  TYR130      0.0417
    164  CE2       -3.2810   11.4720   62.0200 C.ar  130  TYR130      0.0417
    165  CZ        -2.0000   11.7740   61.6100 C.ar  130  TYR130      0.1957
    166  OH        -1.7870   12.5880   60.5190 O.3   130  TYR130     -0.2866
    167  N         -5.3150   14.0580   64.5280 N.3   132  HIS132     -0.1241
    168  CA        -5.5660   14.3250   63.1140 C.3   132  HIS132      0.1621
    169  C         -5.3060   15.7880   62.7650 C.2   132  HIS132      0.2264
    170  O         -4.6360   16.0850   61.7680 O.2   132  HIS132     -0.2867
    171  CB        -6.9970   13.9320   62.7870 C.3   132  HIS132      0.0745
    172  CG        -7.3130   13.9910   61.3280 C.ar  132  HIS132      0.0817
    173  ND1       -7.3760   15.1800   60.6340 N.ar  132  HIS132     -0.2268
    174  CD2       -7.5970   13.0130   60.4340 C.ar  132  HIS132      0.1154
    175  CE1       -7.6710   14.9310   59.3690 C.ar  132  HIS132      0.1986
    176  NE2       -7.8110   13.6240   59.2200 N.ar  132  HIS132     -0.2212
    177  N        -13.9800   10.3760   53.0900 N.3   141  LEU141     -0.1245
    178  CA       -14.3790    9.8140   51.8020 C.3   141  LEU141      0.1561
    179  C        -15.4700    8.7770   52.0320 C.2   141  LEU141      0.2260
    180  O        -15.5450    8.1560   53.0950 O.2   141  LEU141     -0.2867
    181  CB       -13.1720    9.1810   51.1020 C.3   141  LEU141      0.0270
    182  CG       -12.1400   10.1580   50.5290 C.3   141  LEU141      0.0019
    183  CD1      -10.8760    9.4230   50.0780 C.3   141  LEU141      0.0001
    184  CD2      -12.7350   10.9250   49.3460 C.3   141  LEU141      0.0001
    185  N        -11.9240    8.1470   57.2180 N.3   150  VAL150     -0.1231
    186  CA       -11.1800    9.3450   57.5620 C.3   150  VAL150      0.1692
    187  C         -9.9330    9.4240   56.6970 C.2   150  VAL150      0.2593
    188  O         -9.2030    8.4350   56.5420 O.2   150  VAL150     -0.2718
    189  CB       -10.8190    9.3180   59.0530 C.3   150  VAL150      0.0266
    190  CG1       -9.9830   10.5320   59.4110 C.3   150  VAL150      0.0020
    191  CG2      -12.1030    9.2440   59.9100 C.3   150  VAL150      0.0020
    192  N         -9.6860   10.6040   56.1320 N.am  151  SER151     -0.1938
    193  CA        -8.5250   10.8630   55.2990 C.3   151  SER151      0.2055
    194  C         -7.9620   12.2120   55.7090 C.2   151  SER151      0.2643
    195  O         -8.4470   12.8450   56.6520 O.2   151  SER151     -0.2714
    196  CB        -8.9490   10.9020   53.8230 C.3   151  SER151      0.2130
    197  OG        -9.7540    9.7740   53.4950 O.3   151  SER151     -0.2179
    198  N         -6.9370   12.6730   54.9960 N.am  152  ASP152     -0.1957
    199  CA        -6.4010   14.0080   55.2430 C.3   152  ASP152      0.1840
    200  C         -5.8320   14.5170   53.9310 C.2   152  ASP152      0.2622
    201  O         -4.7960   14.0260   53.4760 O.2   152  ASP152     -0.2715
    202  CB        -5.3240   13.9940   56.3240 C.3   152  ASP152      0.1450
    203  CG        -4.8660   15.3940   56.7130 C.2   152  ASP152      0.3671
    204  OD1       -5.2600   16.3810   56.0410 O.co2 152  ASP152     -0.2456
    205  OD2       -4.0730   15.5090   57.6690 O.co2 152  ASP152     -0.2456
    206  N         -6.4970   15.5020   53.3440 N.am  153  PHE153     -0.1974
    207  CA        -6.1040   16.0110   52.0350 C.3   153  PHE153      0.1639
    208  C         -5.1630   17.2050   52.1230 C.2   153  PHE153      0.2290
    209  O         -4.7730   17.7480   51.0800 O.2   153  PHE153     -0.2864
    210  CB        -7.3530   16.3640   51.2240 C.3   153  PHE153      0.0560
    211  CG        -8.2570   15.1890   50.9690 C.ar  153  PHE153     -0.0200
    212  CD1       -7.7460   13.8950   50.9520 C.ar  153  PHE153     -0.0042
    213  CD2       -9.6140   15.3670   50.7690 C.ar  153  PHE153     -0.0042
    214  CE1       -8.5700   12.8080   50.7150 C.ar  153  PHE153     -0.0003
    215  CE2      -10.4400   14.2850   50.5380 C.ar  153  PHE153     -0.0003
    216  CZ        -9.9190   13.0020   50.5110 C.ar  153  PHE153     -0.0000
@<TRIPOS>BOND
     1     1     2    1
     2     7     5    1
     3     2     5    1
     4     2     3    1
     5    33    31    1
     6     5     6    1
     7    17    16    2
     8     3     4    2
     9    16    15    1
    10    31    30    1
    11     6     8    1
    12    32    30    1
    13    30    27    1
    14   129   128   ar
    15   129   127   ar
    16    14    15    1
    17   128   126   ar
    18   127   125   ar
    19    15    18    1
    20   126   124   ar
    21    13    10    1
    22    29    28    2
    23   125   124   ar
    24     9    10    1
    25    10    11    1
    26   124   123    1
    27    27    26    1
    28    27    28    1
    29    26    23   am
    30    28    34   am
    31    18    19    1
    32    18    20    1
    33   123   120    1
    34    21    22    1
    35    22    23    1
    36    22    25    1
    37    36    37    2
    38    36    35    1
    39    23    24    2
    40    34    35    1
    41    11    12    2
    42    35    38    1
    43   120   121    1
    44   120   119    1
    45    95    96    1
    46   133   132    2
    47    98    97    2
    48   121   122    2
    49   121   130   am
    50   119   112   am
    51   106   105    2
    52   132   131    1
    53    38    39    1
    54   130   131    1
    55    97    96    1
    56   138   139    1
    57    39    40    1
    58    96    99    1
    59   112   113    2
    60   112   111    1
    61   131   134    1
    62   139   140    1
    63   103   104    1
    64   105   110   am
    65   105   104    1
    66   111   110    1
    67   111   114    1
    68   104   107    1
    69    99   100    1
    70    99   101    1
    71   108   107    1
    72    40    41    1
    73   134   135    1
    74   140   142   am
    75   140   141    2
    76   114   115    1
    77    41    42    1
    78   142   143    1
    79   100   102    1
    80   107   109    1
    81   135   136    1
    82   184   182    1
    83   115   116    1
    84   145   144    2
    85   146   143    1
    86   143   144    1
    87   136   137    1
    88   183   182    1
    89   117   116   ar
    90   216   215   ar
    91   216   214   ar
    92   182   181    1
    93   215   213   ar
    94   214   212   ar
    95   116   118   ar
    96   213   211   ar
    97   212   211   ar
    98   211   210    1
    99   209   208    2
   100   181   178    1
   101   210   207    1
   102    94    92    1
   103    51    49   ar
   104   178   179    1
   105   178   177    1
   106    92    91    1
   107   179   180    2
   108   207   208    1
   109   207   206    1
   110    49    50   ar
   111    49    48    1
   112    67    66    1
   113    66    65    1
   114   206   200   am
   115    91    93    1
   116    91    88    1
   117    47    48    1
   118    47    44    1
   119   201   200    2
   120   197   196    1
   121   196   193    1
   122   200   199    1
   123    89    88    1
   124    89    90    2
   125    88    87    1
   126    45    44    1
   127    45    46    2
   128    43    44    1
   129    65    64    1
   130   198   199    1
   131   198   194   am
   132    64    61    1
   133   199   202    1
   134   193   194    1
   135   193   192    1
   136    87    81   am
   137   194   195    2
   138    82    81    2
   139   204   203   ar
   140   192   187   am
   141    81    80    1
   142   202   203    1
   143   188   187    2
   144    61    62    1
   145    61    60    1
   146   187   186    1
   147   203   205   ar
   148    62    63    2
   149    60    54   am
   150   185   186    1
   151    52    53    1
   152   186   189    1
   153    80    79    1
   154    80    83    1
   155    71    70    2
   156    54    53    1
   157    54    55    2
   158    85    83    1
   159    53    56    1
   160    56    57    1
   161    56    58    1
   162    83    84    1
   163    59    57    1
   164   189   190    1
   165   189   191    1
   166    70    69    1
   167   176   175   ar
   168   176   174   ar
   169   175   173   ar
   170    74    76   ar
   171    74    73   ar
   172    72    69    1
   173    72    73    1
   174    68    69    1
   175    76    78   ar
   176    84    86    1
   177    73    75   ar
   178   174   172   ar
   179   166   165    1
   180   173   172   ar
   181    78    77   ar
   182   172   171    1
   183    75    77   ar
   184   165   164   ar
   185   165   163   ar
   186   170   169    2
   187   164   162   ar
   188   163   161   ar
   189   153   152    1
   190   154   152    1
   191   169   168    1
   192   171   168    1
   193   168   167    1
   194   162   160   ar
   195   152   151    1
   196   161   160   ar
   197   160   159    1
   198   151   148    1
   199   159   156    1
   200   148   147    1
   201   148   149    1
   202   156   157    1
   203   156   155    1
   204   157   158    2
   205   149   150    2
