@<TRIPOS>MOLECULE
tmp/6fnkA00.pdb
 129 120 0 0 0
SMALL
GASTEIGER

@<TRIPOS>ATOM
      1  N          9.7630   15.1780   16.1200 N.3    18  ILE18      -0.1231
      2  CA        10.4390   15.2730   14.8370 C.3    18  ILE18       0.1692
      3  C          9.5220   14.9710   13.6700 C.2    18  ILE18       0.2593
      4  O          9.9520   15.1200   12.5190 O.2    18  ILE18      -0.2718
      5  CB        11.6890   14.3650   14.7880 C.3    18  ILE18       0.0266
      6  CG1       11.2960   12.9050   14.9910 C.3    18  ILE18       0.0019
      7  CG2       12.6880   14.7840   15.8550 C.3    18  ILE18       0.0020
      8  CD1       12.4620   11.9300   14.9670 C.3    18  ILE18       0.0001
      9  N          8.2850   14.5700   13.9130 N.am   19  GLY19      -0.1942
     10  CA         7.4120   14.2610   12.7970 C.3    19  GLY19       0.2014
     11  C          5.9940   14.0260   13.2570 C.2    19  GLY19       0.2639
     12  O          5.6780   14.0450   14.4480 O.2    19  GLY19      -0.2714
     13  N          5.1290   13.7950   12.2680 N.am   20  ALA20      -0.1963
     14  CA         3.7470   13.3970   12.4900 C.3    20  ALA20       0.1728
     15  C          3.5210   12.1060   11.7230 C.2    20  ALA20       0.2617
     16  O          3.8160   12.0400   10.5270 O.2    20  ALA20      -0.2715
     17  CB         2.7810   14.4690   11.9730 C.3    20  ALA20       0.0334
     18  N          3.0060   11.0870   12.4110 N.am   21  GLY21      -0.1940
     19  CA         2.6940    9.8110   11.8110 C.3    21  GLY21       0.2014
     20  C          1.1970    9.5620   11.7670 C.2    21  GLY21       0.2638
     21  O          0.3850   10.4280   12.0980 O.2    21  GLY21      -0.2714
     22  N          0.8370    8.3320   11.3750 N.am   22  GLU22      -0.1977
     23  CA        -0.5750    8.0060   11.1730 C.3    22  GLU22       0.1602
     24  C         -1.3800    8.1200   12.4610 C.2    22  GLU22       0.2287
     25  O         -2.5590    8.4990   12.4370 O.2    22  GLU22      -0.2864
     26  CB        -0.7260    6.6090   10.5670 C.3    22  GLU22       0.0415
     27  CG        -2.1740    6.1530   10.4340 C.3    22  GLU22       0.1163
     28  CD        -2.3100    4.8770    9.6270 C.2    22  GLU22       0.3649
     29  OE1       -3.3960    4.2560    9.6570 O.co2  22  GLU22      -0.2457
     30  OE2       -1.3250    4.4990    8.9620 O.co2  22  GLU22      -0.2457
     31  N          5.8020   11.5920   16.2000 N.3    26  VAL26      -0.1245
     32  CA         7.0490   10.8490   16.1900 C.3    26  VAL26       0.1561
     33  C          8.0950   11.7450   16.8260 C.2    26  VAL26       0.2260
     34  O          8.2430   12.9170   16.4410 O.2    26  VAL26      -0.2867
     35  CB         7.4670   10.4910   14.7620 C.3    26  VAL26       0.0252
     36  CG1        8.6840    9.5610   14.8160 C.3    26  VAL26       0.0019
     37  CG2        6.3200    9.8390   14.0290 C.3    26  VAL26       0.0019
     38  N         13.8590    6.5590   17.5190 N.3    42  ALA42      -0.1245
     39  CA        12.6300    7.2490   17.1720 C.3    42  ALA42       0.1562
     40  C         11.4890    6.6270   17.9570 C.2    42  ALA42       0.2260
     41  O         11.4460    5.4050   18.1620 O.2    42  ALA42      -0.2867
     42  CB        12.3510    7.1130   15.6750 C.3    42  ALA42       0.0290
     43  N          7.3310    6.4720   18.3740 N.3    44  LYS44      -0.1245
     44  CA         5.9530    6.7410   17.9740 C.3    44  LYS44       0.1561
     45  C          5.0890    6.5620   19.2060 C.2    44  LYS44       0.2260
     46  O          5.1950    5.5450   19.8950 O.2    44  LYS44      -0.2867
     47  CB         5.4900    5.7340   16.9230 C.3    44  LYS44       0.0271
     48  CG         6.1940    5.8470   15.6050 C.3    44  LYS44       0.0035
     49  CD         5.5530    4.9050   14.6040 C.3    44  LYS44       0.0206
     50  CE         6.0430    5.1890   13.2110 C.3    44  LYS44       0.1093
     51  NZ         5.2190    4.4350   12.2390 N.3    44  LYS44      -0.1314
     52  N          7.4170   -5.6150   12.3960 N.3    65  MET65      -0.1245
     53  CA         8.8040   -5.1720   12.3560 C.3    65  MET65       0.1570
     54  C          9.7090   -6.0530   13.2110 C.2    65  MET65       0.2261
     55  O         10.8680   -6.3020   12.8490 O.2    65  MET65      -0.2867
     56  CB         8.8720   -3.7100   12.8040 C.3    65  MET65       0.0387
     57  CG        10.2110   -3.0190   12.6010 C.3    65  MET65       0.0595
     58  SD        10.2780   -1.4280   13.4550 S.3    65  MET65      -0.1393
     59  CE         8.7940   -0.6220   12.8500 C.3    65  MET65       0.0692
     60  N         14.0450   -1.2990    8.8980 N.3    74  ILE74      -0.1245
     61  CA        14.0210   -0.5530   10.1540 C.3    74  ILE74       0.1561
     62  C         13.9610   -1.5080   11.3190 C.2    74  ILE74       0.2260
     63  O         13.1430   -2.4280   11.3320 O.2    74  ILE74      -0.2867
     64  CB        12.8310    0.4160   10.1770 C.3    74  ILE74       0.0252
     65  CG1       13.1320    1.5810    9.2500 C.3    74  ILE74       0.0019
     66  CG2       12.5260    0.8840   11.6360 C.3    74  ILE74       0.0019
     67  CD1       14.3520    2.3840    9.6430 C.3    74  ILE74       0.0001
     68  N         11.9830    2.6040   17.5060 N.3    90  THR90      -0.1203
     69  CA        12.8090    2.0630   16.4330 C.3    90  THR90       0.1994
     70  C         14.1770    2.7160   16.4480 C.2    90  THR90       0.2618
     71  O         14.3960    3.7430   17.0970 O.2    90  THR90      -0.2717
     72  CB        12.1890    2.2540   15.0430 C.3    90  THR90       0.1784
     73  OG1       12.2830    3.6430   14.7050 O.3    90  THR90      -0.2211
     74  CG2       10.7550    1.8230   15.0110 C.3    90  THR90       0.0376
     75  N         15.0940    2.1670   15.6560 N.am   91  GLU91      -0.1965
     76  CA        16.3380    2.8750   15.4250 C.3    91  GLU91       0.1733
     77  C         16.0450    4.2560   14.8410 C.2    91  GLU91       0.2616
     78  O         15.0500    4.4690   14.1450 O.2    91  GLU91      -0.2715
     79  CB        17.2420    2.0900   14.4890 C.3    91  GLU91       0.0429
     80  CG        16.7260    1.9850   13.0980 C.3    91  GLU91       0.1163
     81  CD        17.6530    1.1530   12.1820 C.2    91  GLU91       0.3649
     82  OE1       17.1640    0.1690   11.6310 O.co2  91  GLU91      -0.2457
     83  OE2       18.8580    1.4860   12.0620 O.co2  91  GLU91      -0.2457
     84  N         16.9040    5.1950   15.1400 N.am   92  PHE92      -0.1960
     85  CA        16.7400    6.5570   14.6790 C.3    92  PHE92       0.1771
     86  C         17.4200    6.7520   13.3390 C.2    92  PHE92       0.2619
     87  O         18.5420    6.2980   13.1210 O.2    92  PHE92      -0.2715
     88  CB        17.3730    7.4750   15.7210 C.3    92  PHE92       0.0574
     89  CG        17.2980    8.9170   15.3560 C.ar   92  PHE92      -0.0200
     90  CD1       16.0680    9.5390   15.2850 C.ar   92  PHE92      -0.0042
     91  CD2       18.4450    9.6670   15.1030 C.ar   92  PHE92      -0.0042
     92  CE1       15.9650   10.8920   14.9350 C.ar   92  PHE92      -0.0003
     93  CE2       18.3380   11.0180   14.7570 C.ar   92  PHE92      -0.0003
     94  CZ        17.0890   11.6100   14.6660 C.ar   92  PHE92      -0.0000
     95  N         16.7420    7.4540   12.4530 N.am   93  MET93      -0.1963
     96  CA        17.1930    7.6470   11.0740 C.3    93  MET93       0.1736
     97  C         17.2880    9.1450   10.8640 C.2    93  MET93       0.2616
     98  O         16.2800    9.8130   10.6170 O.2    93  MET93      -0.2715
     99  CB        16.2250    7.0280   10.1040 C.3    93  MET93       0.0427
    100  CG        16.0980    5.5160   10.3440 C.3    93  MET93       0.0599
    101  SD        17.5700    4.5270   10.0140 S.3    93  MET93      -0.1393
    102  CE        17.5030    4.5340    8.2240 C.3    93  MET93       0.0692
    103  N         18.4880    9.7160   11.0120 N.am   94  GLU94      -0.1977
    104  CA        18.5960   11.1730   11.1210 C.3    94  GLU94       0.1602
    105  C         18.0280   11.8790    9.8990 C.2    94  GLU94       0.2287
    106  O         17.4200   12.9500   10.0280 O.2    94  GLU94      -0.2864
    107  CB        20.0560   11.5940   11.3070 C.3    94  GLU94       0.0415
    108  CG        20.2630   13.0590   11.6600 C.3    94  GLU94       0.1163
    109  CD        21.6940   13.5430   11.4210 C.2    94  GLU94       0.3649
    110  OE1       22.4720   12.8860   10.6910 O.co2  94  GLU94      -0.2457
    111  OE2       22.0340   14.6260   11.9290 O.co2  94  GLU94      -0.2457
    112  N         15.6170   11.0970    7.8960 N.3    96  GLY96      -0.1225
    113  CA        14.1920   11.0160    7.6500 C.3    96  GLY96       0.1811
    114  C         13.8210   10.3010    6.3530 C.2    96  GLY96       0.2280
    115  O         14.5260    9.4040    5.8790 O.2    96  GLY96      -0.2866
    116  N         13.5350    5.2140    4.9210 N.3   144  LEU144     -0.1245
    117  CA        14.1910    6.1290    5.8430 C.3   144  LEU144      0.1561
    118  C         15.6880    6.0820    5.6260 C.2   144  LEU144      0.2260
    119  O         16.2490    5.0610    5.1950 O.2   144  LEU144     -0.2867
    120  CB        13.8590    5.7570    7.2830 C.3   144  LEU144      0.0270
    121  CG        12.3870    5.8770    7.6430 C.3   144  LEU144      0.0019
    122  CD1       12.0750    5.2610    8.9610 C.3   144  LEU144      0.0001
    123  CD2       12.0700    7.3580    7.7490 C.3   144  LEU144      0.0001
    124  N         10.6700    0.8790    5.6900 N.3   154  SER154     -0.1217
    125  CA         9.8030    1.0230    6.8420 C.3   154  SER154      0.1889
    126  C          8.3520    0.7990    6.4440 C.2   154  SER154      0.2288
    127  O          8.0630    0.3500    5.3350 O.2   154  SER154     -0.2866
    128  CB         9.9900    2.4070    7.4600 C.3   154  SER154      0.2089
    129  OG         9.3570    2.4690    8.7220 O.3   154  SER154     -0.2183
@<TRIPOS>BOND
     1   116   117    1
     2   119   118    2
     3   127   126    2
     4   118   117    1
     5   124   125    1
     6   117   120    1
     7   115   114    2
     8   114   113    1
     9   126   125    1
    10   125   128    1
    11   120   121    1
    12   128   129    1
    13   121   123    1
    14   121   122    1
    15   113   112    1
    16   102   101    1
    17    60    61    1
    18    30    28   ar
    19    65    67    1
    20    65    64    1
    21    28    29   ar
    22    28    27    1
    23   105   106    2
    24   105   104    1
    25   101   100    1
    26    99   100    1
    27    99    96    1
    28    61    64    1
    29    61    62    1
    30    64    66    1
    31    27    26    1
    32    16    15    2
    33    26    23    1
    34    98    97    2
    35   110   109   ar
    36    97   103   am
    37    97    96    1
    38   103   104    1
    39    96    95    1
    40   104   107    1
    41    23    22    1
    42    23    24    1
    43   107   108    1
    44    62    63    2
    45    22    20   am
    46   109   108    1
    47   109   111   ar
    48    82    81   ar
    49    15    18   am
    50    15    14    1
    51    20    19    1
    52    20    21    2
    53    19    18    1
    54    17    14    1
    55    83    81   ar
    56    81    80    1
    57    51    50    1
    58    13    14    1
    59    13    11   am
    60    53    52    1
    61    53    56    1
    62    53    54    1
    63    25    24    2
    64    95    86   am
    65     4     3    2
    66    57    56    1
    67    57    58    1
    68    10    11    1
    69    10     9    1
    70    55    54    2
    71    59    58    1
    72    80    79    1
    73    87    86    2
    74    50    49    1
    75    11    12    2
    76    86    85    1
    77     3     9   am
    78     3     2    1
    79    37    35    1
    80    78    77    2
    81    79    76    1
    82    49    48    1
    83    94    93   ar
    84    94    92   ar
    85    85    84    1
    86    85    88    1
    87    73    72    1
    88    93    91   ar
    89    35    36    1
    90    35    32    1
    91     5     2    1
    92     5     6    1
    93     5     7    1
    94     2     1    1
    95    77    84   am
    96    77    76    1
    97    92    90   ar
    98     8     6    1
    99    74    72    1
   100    72    69    1
   101    91    89   ar
   102    90    89   ar
   103    89    88    1
   104    76    75    1
   105    48    47    1
   106    75    70   am
   107    42    39    1
   108    32    31    1
   109    32    33    1
   110    69    70    1
   111    69    68    1
   112    34    33    2
   113    70    71    2
   114    47    44    1
   115    39    38    1
   116    39    40    1
   117    40    41    2
   118    44    43    1
   119    44    45    1
   120    45    46    2
