@<TRIPOS>MOLECULE
tmp/6fnmA00.pdb
 181 171 0 0 0
SMALL
GASTEIGER

@<TRIPOS>ATOM
      1  N         34.0260   14.0670   74.5610 N.3    14  ILE14      -0.1231
      2  CA        34.6620   14.2580   73.2620 C.3    14  ILE14       0.1692
      3  C         33.7380   13.9970   72.0810 C.2    14  ILE14       0.2593
      4  O         34.1420   14.2620   70.9360 O.2    14  ILE14      -0.2718
      5  CB        35.9590   13.4300   73.1260 C.3    14  ILE14       0.0266
      6  CG1       35.6460   11.9340   73.2270 C.3    14  ILE14       0.0019
      7  CG2       36.9770   13.8670   74.1760 C.3    14  ILE14       0.0020
      8  CD1       36.8280   11.0390   72.9220 C.3    14  ILE14       0.0001
      9  N         32.5320   13.4860   72.3010 N.am   15  GLY15      -0.1942
     10  CA        31.6320   13.2610   71.1840 C.3    15  GLY15       0.2014
     11  C         30.2480   12.8890   71.6640 C.2    15  GLY15       0.2638
     12  O         29.9630   12.8620   72.8640 O.2    15  GLY15      -0.2714
     13  N         29.3780   12.6090   70.6940 N.am   16  ALA16      -0.1977
     14  CA        28.0100   12.1810   70.9570 C.3    16  ALA16       0.1597
     15  C         27.7650   10.8640   70.2350 C.2    16  ALA16       0.2287
     16  O         28.0530   10.7490   69.0420 O.2    16  ALA16      -0.2864
     17  CB        27.0050   13.2340   70.4740 C.3    16  ALA16       0.0319
     18  N         30.1740   10.3270   74.5230 N.3    22  VAL22      -0.1245
     19  CA        31.4340    9.6130   74.3470 C.3    22  VAL22       0.1561
     20  C         32.5110   10.4500   75.0160 C.2    22  VAL22       0.2260
     21  O         32.5960   11.6630   74.7780 O.2    22  VAL22      -0.2867
     22  CB        31.7650    9.4100   72.8570 C.3    22  VAL22       0.0252
     23  CG1       33.0040    8.5200   72.7020 C.3    22  VAL22       0.0019
     24  CG2       30.5730    8.8160   72.1200 C.3    22  VAL22       0.0019
     25  N         38.4940    5.1780   76.0000 N.3    38  ALA38      -0.1231
     26  CA        37.2420    5.8120   75.6060 C.3    38  ALA38       0.1694
     27  C         36.1140    5.2020   76.4290 C.2    38  ALA38       0.2592
     28  O         36.1410    4.0130   76.7620 O.2    38  ALA38      -0.2718
     29  CB        36.9730    5.5820   74.1170 C.3    38  ALA38       0.0304
     30  N         35.1170    6.0290   76.7510 N.am   39  ILE39      -0.1966
     31  CA        34.0100    5.6470   77.6240 C.3    39  ILE39       0.1727
     32  C         32.7040    6.1160   76.9890 C.2    39  ILE39       0.2616
     33  O         32.5520    7.3070   76.6850 O.2    39  ILE39      -0.2715
     34  CB        34.1640    6.2530   79.0350 C.3    39  ILE39       0.0290
     35  CG1       35.5230    5.8930   79.6510 C.3    39  ILE39       0.0022
     36  CG2       33.0120    5.8150   79.9370 C.3    39  ILE39       0.0023
     37  CD1       35.9090    6.7160   80.8790 C.3    39  ILE39       0.0001
     38  N         31.7680    5.1940   76.7930 N.am   40  LYS40      -0.1977
     39  CA        30.3910    5.5490   76.4680 C.3    40  LYS40       0.1596
     40  C         29.5440    5.3610   77.7150 C.2    40  LYS40       0.2287
     41  O         29.6920    4.3630   78.4250 O.2    40  LYS40      -0.2864
     42  CB        29.8230    4.6580   75.3610 C.3    40  LYS40       0.0298
     43  CG        30.3130    4.9770   73.9550 C.3    40  LYS40       0.0038
     44  CD        29.4800    4.2160   72.9300 C.3    40  LYS40       0.0206
     45  CE        30.0540    4.2960   71.5180 C.3    40  LYS40       0.1093
     46  NZ        29.1960    3.5250   70.5540 N.3    40  LYS40      -0.1314
     47  N         26.5740   -4.1710   72.1540 N.3    57  GLU57      -0.1245
     48  CA        27.8120   -3.8270   71.4560 C.3    57  GLU57       0.1567
     49  C         29.0360   -4.3350   72.2120 C.2    57  GLU57       0.2260
     50  O         30.0030   -4.8030   71.5990 O.2    57  GLU57      -0.2867
     51  CB        27.9110   -2.3170   71.2370 C.3    57  GLU57       0.0388
     52  CG        29.1460   -1.9380   70.4330 C.3    57  GLU57       0.1160
     53  CD        29.1570   -0.4980   69.9570 C.2    57  GLU57       0.3649
     54  OE1       28.6590    0.3940   70.6820 O.co2  57  GLU57      -0.2457
     55  OE2       29.6810   -0.2660   68.8440 O.co2  57  GLU57      -0.2457
     56  N         31.7290   -7.0530   70.7980 N.3    61  MET61      -0.1245
     57  CA        33.1280   -6.6400   70.7600 C.3    61  MET61       0.1570
     58  C         34.0070   -7.5670   71.5910 C.2    61  MET61       0.2261
     59  O         35.1470   -7.8590   71.2120 O.2    61  MET61      -0.2867
     60  CB        33.2660   -5.2020   71.2540 C.3    61  MET61       0.0387
     61  CG        34.6830   -4.6730   71.1970 C.3    61  MET61       0.0595
     62  SD        34.8060   -3.0750   72.0090 S.3    61  MET61      -0.1393
     63  CE        33.7120   -2.2070   70.9540 C.3    61  MET61       0.0692
     64  N         38.4290   -2.7870   67.2950 N.3    70  ILE70      -0.1245
     65  CA        38.4210   -2.0450   68.5590 C.3    70  ILE70       0.1561
     66  C         38.4290   -3.0170   69.7310 C.2    70  ILE70       0.2260
     67  O         37.6880   -4.0040   69.7420 O.2    70  ILE70      -0.2867
     68  CB        37.2270   -1.0720   68.6260 C.3    70  ILE70       0.0252
     69  CG1       37.4370    0.0770   67.6440 C.3    70  ILE70       0.0019
     70  CG2       37.0520   -0.5150   70.0530 C.3    70  ILE70       0.0019
     71  CD1       38.6300    0.9550   67.9930 C.3    70  ILE70       0.0001
     72  N         30.5280    1.5270   78.9460 N.3    84  ILE84      -0.1245
     73  CA        31.3720    0.6300   78.1580 C.3    84  ILE84       0.1561
     74  C         32.7100    1.3320   77.9540 C.2    84  ILE84       0.2260
     75  O         32.7400    2.5090   77.5730 O.2    84  ILE84      -0.2867
     76  CB        30.7300    0.2720   76.8000 C.3    84  ILE84       0.0252
     77  CG1       29.3490   -0.3770   76.9730 C.3    84  ILE84       0.0019
     78  CG2       31.6860   -0.6140   75.9690 C.3    84  ILE84       0.0019
     79  CD1       28.5490   -0.4480   75.6700 C.3    84  ILE84       0.0001
     80  N         36.6050    1.1370   76.1050 N.3    86  THR86      -0.1203
     81  CA        37.4840    0.5590   75.0820 C.3    86  THR86       0.1994
     82  C         38.8310    1.2700   75.0830 C.2    86  THR86       0.2618
     83  O         39.0250    2.2940   75.7470 O.2    86  THR86      -0.2717
     84  CB        36.8990    0.6840   73.6580 C.3    86  THR86       0.1784
     85  OG1       36.8980    2.0640   73.2500 O.3    86  THR86      -0.2211
     86  CG2       35.4850    0.0980   73.5720 C.3    86  THR86       0.0376
     87  N         39.7690    0.7260   74.3030 N.am   87  GLU87      -0.1965
     88  CA        40.9690    1.4850   73.9750 C.3    87  GLU87       0.1733
     89  C         40.5890    2.8540   73.4090 C.2    87  GLU87       0.2616
     90  O         39.5290    3.0340   72.7890 O.2    87  GLU87      -0.2715
     91  CB        41.8450    0.7140   72.9750 C.3    87  GLU87       0.0429
     92  CG        41.2270    0.5280   71.5920 C.3    87  GLU87       0.1163
     93  CD        42.1000   -0.2820   70.6210 C.2    87  GLU87       0.3649
     94  OE1       41.5940   -1.2510   70.0250 O.co2  87  GLU87      -0.2457
     95  OE2       43.2960    0.0590   70.4640 O.co2  87  GLU87      -0.2457
     96  N         41.4580    3.8370   73.6280 N.am   88  PHE88      -0.1960
     97  CA        41.2320    5.1970   73.1570 C.3    88  PHE88       0.1771
     98  C         41.9340    5.4110   71.8190 C.2    88  PHE88       0.2619
     99  O         43.1400    5.1650   71.6990 O.2    88  PHE88      -0.2715
    100  CB        41.7330    6.2200   74.1780 C.3    88  PHE88       0.0574
    101  CG        41.5110    7.6370   73.7430 C.ar   88  PHE88      -0.0200
    102  CD1       40.2240    8.1040   73.5420 C.ar   88  PHE88      -0.0042
    103  CD2       42.5750    8.5060   73.5300 C.ar   88  PHE88      -0.0042
    104  CE1       39.9910    9.4090   73.1190 C.ar   88  PHE88      -0.0003
    105  CE2       42.3420    9.8280   73.1150 C.ar   88  PHE88      -0.0003
    106  CZ        41.0470   10.2660   72.9140 C.ar   88  PHE88      -0.0000
    107  N         41.1810    5.8770   70.8170 N.am   89  MET89      -0.1963
    108  CA        41.6920    6.1140   69.4630 C.3    89  MET89       0.1736
    109  C         41.8440    7.6150   69.2790 C.2    89  MET89       0.2616
    110  O         40.8550    8.3340   69.1500 O.2    89  MET89      -0.2715
    111  CB        40.7530    5.4890   68.4320 C.3    89  MET89       0.0427
    112  CG        40.5710    3.9830   68.6520 C.3    89  MET89       0.0599
    113  SD        42.0340    2.9730   68.3420 S.3    89  MET89      -0.1393
    114  CE        42.0080    3.0100   66.5370 C.3    89  MET89       0.0692
    115  N         43.0910    8.0850   69.2970 N.am   90  GLU90      -0.1963
    116  CA        43.3390    9.5100   69.4670 C.3    90  GLU90       0.1733
    117  C         42.8470   10.3640   68.3000 C.2    90  GLU90       0.2616
    118  O         42.5810   11.5510   68.4940 O.2    90  GLU90      -0.2715
    119  CB        44.8330    9.7500   69.6790 C.3    90  GLU90       0.0429
    120  CG        45.4050    9.1100   70.9630 C.3    90  GLU90       0.1163
    121  CD        45.9480    7.6900   70.7920 C.2    90  GLU90       0.3649
    122  OE1       45.6470    7.0080   69.7860 O.co2  90  GLU90      -0.2457
    123  OE2       46.6940    7.2450   71.6990 O.co2  90  GLU90      -0.2457
    124  N         42.7020    9.8050   67.0930 N.am   91  ASN91      -0.1958
    125  CA        42.3260   10.5800   65.9110 C.3    91  ASN91       0.1819
    126  C         40.8610   10.4160   65.5230 C.2    91  ASN91       0.2622
    127  O         40.4240   11.0120   64.5250 O.2    91  ASN91      -0.2715
    128  CB        43.2810   10.2990   64.7380 C.3    91  ASN91       0.1195
    129  CG        44.6240   10.9980   64.9010 C.2    91  ASN91       0.2630
    130  OD1       44.6690   12.1850   65.2310 O.2    91  ASN91      -0.2716
    131  ND2       45.7140   10.2810   64.6690 N.am   91  ASN91      -0.0877
    132  N         40.0840    9.6510   66.2930 N.am   92  GLY92      -0.1940
    133  CA        38.6520    9.6150   66.0320 C.3    92  GLY92       0.2014
    134  C         38.2820    8.8970   64.7380 C.2    92  GLY92       0.2638
    135  O         39.0000    8.0170   64.2390 O.2    92  GLY92      -0.2714
    136  N         37.1530    9.3130   64.1710 N.am   93  ALA93      -0.1977
    137  CA        36.5990    8.6560   62.9940 C.3    93  ALA93       0.1597
    138  C         37.3990    8.9870   61.7370 C.2    93  ALA93       0.2287
    139  O         37.8200   10.1280   61.5170 O.2    93  ALA93      -0.2864
    140  CB        35.1390    9.0750   62.8030 C.3    93  ALA93       0.0319
    141  N         38.6540   12.6110   60.0470 N.3    97  PHE97      -0.1241
    142  CA        40.1110   12.7600   60.1380 C.3    97  PHE97       0.1605
    143  C         40.7300   13.0620   58.7720 C.2    97  PHE97       0.2264
    144  O         41.6110   13.9330   58.6530 O.2    97  PHE97      -0.2867
    145  CB        40.7260   11.4960   60.7590 C.3    97  PHE97       0.0534
    146  CG        42.2350   11.5250   60.8880 C.ar   97  PHE97      -0.0203
    147  CD1       42.8680   12.4300   61.7310 C.ar   97  PHE97      -0.0042
    148  CD2       43.0120   10.6200   60.1690 C.ar   97  PHE97      -0.0042
    149  CE1       44.2650   12.4300   61.8410 C.ar   97  PHE97      -0.0003
    150  CE2       44.4020   10.6150   60.2910 C.ar   97  PHE97      -0.0003
    151  CZ        45.0160   11.5200   61.1270 C.ar   97  PHE97      -0.0000
    152  N         39.8930   16.6460   57.5650 N.3   100  LEU100     -0.1245
    153  CA        40.7380   17.6150   58.2530 C.3   100  LEU100      0.1561
    154  C         42.1300   17.6640   57.6470 C.2   100  LEU100      0.2260
    155  O         42.8170   18.6910   57.7360 O.2   100  LEU100     -0.2867
    156  CB        40.8100   17.2220   59.7260 C.3   100  LEU100      0.0270
    157  CG        41.6780   18.0610   60.6670 C.3   100  LEU100      0.0019
    158  CD1       41.1120   19.4600   60.8210 C.3   100  LEU100      0.0001
    159  CD2       41.8200   17.3750   62.0230 C.3   100  LEU100      0.0001
    160  N         37.9170    3.7680   63.2610 N.3   140  LEU140     -0.1245
    161  CA        38.5930    4.6690   64.1950 C.3   140  LEU140      0.1561
    162  C         40.0980    4.6170   63.9740 C.2   140  LEU140      0.2260
    163  O         40.6350    3.5910   63.5500 O.2   140  LEU140     -0.2867
    164  CB        38.2400    4.3120   65.6430 C.3   140  LEU140      0.0270
    165  CG        36.7790    4.5470   66.0430 C.3   140  LEU140      0.0019
    166  CD1       36.4670    3.9070   67.3850 C.3   140  LEU140      0.0001
    167  CD2       36.5230    6.0410   66.1220 C.3   140  LEU140      0.0001
    168  N         34.9710   -0.6020   63.9630 N.3   150  SER150     -0.1202
    169  CA        34.0910   -0.4050   65.1080 C.3   150  SER150      0.2020
    170  C         32.6430   -0.6790   64.7070 C.2   150  SER150      0.2618
    171  O         32.3660   -1.2040   63.6230 O.2   150  SER150     -0.2717
    172  CB        34.3530    0.9380   65.7970 C.3   150  SER150      0.2103
    173  OG        33.8440    2.0070   65.0310 O.3   150  SER150     -0.2182
    174  N         31.7170   -0.3190   65.5990 N.am  151  ASP151     -0.1973
    175  CA        30.2650   -0.3490   65.3990 C.3   151  ASP151      0.1709
    176  C         29.6590   -1.7400   65.2720 C.2   151  ASP151      0.2293
    177  O         29.2980   -2.1750   64.1730 O.2   151  ASP151     -0.2864
    178  CB        29.8030    0.5280   64.2290 C.3   151  ASP151      0.1436
    179  CG        28.2970    0.6260   64.1370 C.2   151  ASP151      0.3671
    180  OD1       27.7880    0.9410   63.0450 O.co2 151  ASP151     -0.2456
    181  OD2       27.6160    0.3840   65.1560 O.co2 151  ASP151     -0.2456
@<TRIPOS>BOND
     1   152   153    1
     2   154   155    2
     3   154   153    1
     4   153   156    1
     5   144   143    2
     6   143   142    1
     7   156   157    1
     8   141   142    1
     9   142   145    1
    10   148   150   ar
    11   148   146   ar
    12   150   151   ar
    13   157   158    1
    14   157   159    1
    15   145   146    1
    16   146   147   ar
    17   151   149   ar
    18   139   138    2
    19   147   149   ar
    20   138   137    1
    21   140   137    1
    22   137   136    1
    23   180   179   ar
    24   160   161    1
    25   163   162    2
    26   171   170    2
    27   168   169    1
    28   162   161    1
    29   179   178    1
    30   179   181   ar
    31   136   134   am
    32   177   176    2
    33   161   164    1
    34   178   175    1
    35   135   134    2
    36   127   126    2
    37   131   129   am
    38   170   169    1
    39   170   174   am
    40   134   133    1
    41   128   129    1
    42   128   125    1
    43   129   130    2
    44   173   172    1
    45   169   172    1
    46   176   175    1
    47   175   174    1
    48   126   125    1
    49   126   132   am
    50   164   165    1
    51   125   124    1
    52   133   132    1
    53   165   167    1
    54   165   166    1
    55   114   113    1
    56   124   117   am
    57    64    65    1
    58    69    71    1
    59    69    68    1
    60   117   118    2
    61   117   116    1
    62   113   112    1
    63   111   112    1
    64   111   108    1
    65    65    68    1
    66    65    66    1
    67    68    70    1
    68    55    53   ar
    69    16    15    2
    70   110   109    2
    71   109   115   am
    72   109   108    1
    73   115   116    1
    74   108   107    1
    75   116   119    1
    76   119   120    1
    77    66    67    2
    78   122   121   ar
    79    53    52    1
    80    53    54   ar
    81    94    93   ar
    82    15    14    1
    83    52    51    1
    84    95    93   ar
    85    17    14    1
    86    46    45    1
    87    93    92    1
    88    13    14    1
    89    13    11   am
    90    57    56    1
    91    57    60    1
    92    57    58    1
    93   121   120    1
    94   121   123   ar
    95   107    98   am
    96     4     3    2
    97    63    62    1
    98    10    11    1
    99    10     9    1
   100    61    60    1
   101    61    62    1
   102    59    58    2
   103    51    48    1
   104    48    47    1
   105    48    49    1
   106    45    44    1
   107    92    91    1
   108    50    49    2
   109    11    12    2
   110    99    98    2
   111    98    97    1
   112     3     9   am
   113     3     2    1
   114    24    22    1
   115    23    22    1
   116    90    89    2
   117    22    19    1
   118   106   105   ar
   119   106   104   ar
   120     8     6    1
   121    44    43    1
   122    91    88    1
   123   105   103   ar
   124   104   102   ar
   125     5     6    1
   126     5     2    1
   127     5     7    1
   128    97    96    1
   129    97   100    1
   130    85    84    1
   131     2     1    1
   132    89    96   am
   133    89    88    1
   134   103   101   ar
   135   102   101   ar
   136    86    84    1
   137    84    81    1
   138   101   100    1
   139    43    42    1
   140    88    87    1
   141    29    26    1
   142    87    82   am
   143    19    18    1
   144    19    20    1
   145    21    20    2
   146    81    82    1
   147    81    80    1
   148    82    83    2
   149    42    39    1
   150    26    25    1
   151    26    27    1
   152    79    77    1
   153    78    76    1
   154    27    30   am
   155    27    28    2
   156    39    38    1
   157    39    40    1
   158    33    32    2
   159    30    31    1
   160    38    32   am
   161    76    77    1
   162    76    73    1
   163    32    31    1
   164    75    74    2
   165    31    34    1
   166    40    41    2
   167    74    73    1
   168    73    72    1
   169    34    35    1
   170    34    36    1
   171    35    37    1
