@<TRIPOS>MOLECULE
tmp/6fnrA00.pdb
 142 134 0 0 0
SMALL
GASTEIGER

@<TRIPOS>ATOM
      1  N         11.2090   12.7200   25.5590 N.3    40  TYR40      -0.1241
      2  CA        12.5650   13.2360   25.3600 C.3    40  TYR40       0.1605
      3  C         13.4630   13.0830   26.5840 C.2    40  TYR40       0.2264
      4  O         14.1120   14.0330   27.0280 O.2    40  TYR40      -0.2867
      5  CB        12.4780   14.6970   24.8970 C.3    40  TYR40       0.0534
      6  CG        11.7660   14.8170   23.5660 C.ar   40  TYR40      -0.0201
      7  CD1       12.4390   14.5840   22.3650 C.ar   40  TYR40      -0.0009
      8  CD2       10.4170   15.1490   23.5020 C.ar   40  TYR40      -0.0009
      9  CE1       11.7780   14.6790   21.1420 C.ar   40  TYR40       0.0417
     10  CE2        9.7480   15.2460   22.2830 C.ar   40  TYR40       0.0417
     11  CZ        10.4370   15.0120   21.1100 C.ar   40  TYR40       0.1957
     12  OH         9.7850   15.1090   19.8970 O.3    40  TYR40      -0.2866
     13  N         15.1220   10.4150   18.6030 N.3    47  PHE47      -0.1241
     14  CA        14.6180   11.4810   17.7460 C.3    47  PHE47       0.1605
     15  C         15.7180   11.9900   16.8100 C.2    47  PHE47       0.2264
     16  O         15.4570   12.2900   15.6480 O.2    47  PHE47      -0.2867
     17  CB        14.0470   12.6560   18.5370 C.3    47  PHE47       0.0534
     18  CG        13.6540   13.7960   17.6510 C.ar   47  PHE47      -0.0203
     19  CD1       12.5350   13.7010   16.8480 C.ar   47  PHE47      -0.0042
     20  CD2       14.4420   14.9290   17.5620 C.ar   47  PHE47      -0.0042
     21  CE1       12.1880   14.7260   15.9920 C.ar   47  PHE47      -0.0003
     22  CE2       14.0960   15.9640   16.7110 C.ar   47  PHE47      -0.0003
     23  CZ        12.9720   15.8600   15.9250 C.ar   47  PHE47      -0.0000
     24  N         15.7180    9.7260   13.9890 N.3    50  ILE50      -0.1245
     25  CA        14.5490    9.9970   13.1490 C.3    50  ILE50       0.1561
     26  C         14.8260   11.1010   12.1260 C.2    50  ILE50       0.2260
     27  O         14.4180   10.9860   10.9650 O.2    50  ILE50      -0.2867
     28  CB        13.3090   10.3850   14.0130 C.3    50  ILE50       0.0252
     29  CG1       12.7660    9.1480   14.7350 C.3    50  ILE50       0.0019
     30  CG2       12.1910   10.9930   13.1500 C.3    50  ILE50       0.0019
     31  CD1       11.6710    9.4510   15.7660 C.3    50  ILE50       0.0001
     32  N         11.4780   10.5640    6.8410 N.3    56  TYR56      -0.1241
     33  CA        11.2340   11.7680    7.6320 C.3    56  TYR56       0.1605
     34  C         11.8560   12.9940    6.9560 C.2    56  TYR56       0.2264
     35  O         12.9760   13.4100    7.2700 O.2    56  TYR56      -0.2867
     36  CB        11.7710   11.5970    9.0580 C.3    56  TYR56       0.0534
     37  CG        11.3080   12.6950    9.9900 C.ar   56  TYR56      -0.0201
     38  CD1       10.0050   12.7190   10.4700 C.ar   56  TYR56      -0.0009
     39  CD2       12.1700   13.7150   10.3830 C.ar   56  TYR56      -0.0009
     40  CE1        9.5730   13.7280   11.3160 C.ar   56  TYR56       0.0417
     41  CE2       11.7440   14.7320   11.2310 C.ar   56  TYR56       0.0417
     42  CZ        10.4470   14.7270   11.6940 C.ar   56  TYR56       0.1957
     43  OH        10.0400   15.7410   12.5320 O.3    56  TYR56      -0.2866
     44  N         10.9840   16.2430    7.1150 N.3    58  PRO58      -0.2116
     45  CA        10.9970   17.6340    7.6110 C.3    58  PRO58       0.1372
     46  C         12.3760   18.2590    7.9170 C.2    58  PRO58       0.2244
     47  O         12.6270   19.4070    7.5310 O.2    58  PRO58      -0.2868
     48  CB        10.1640   17.5470    8.9000 C.3    58  PRO58       0.0268
     49  CG         9.2180   16.4320    8.6520 C.3    58  PRO58       0.0207
     50  CD         9.9940   15.4190    7.8420 C.3    58  PRO58       0.0892
     51  N         11.4920   23.2720   13.0450 N.3   161  GLY161     -0.1210
     52  CA        11.1870   21.8490   13.0940 C.3   161  GLY161      0.1956
     53  C          9.7040   21.4850   13.0570 C.2   161  GLY161      0.2613
     54  O          9.3570   20.3060   13.0720 O.2   161  GLY161     -0.2717
     55  N          8.8400   22.4910   12.9910 N.am  162  SER162     -0.1938
     56  CA         7.3820   22.3090   13.1040 C.3   162  SER162      0.2055
     57  C          6.9920   21.7450   14.4740 C.2   162  SER162      0.2643
     58  O          5.9310   21.1300   14.6480 O.2   162  SER162     -0.2714
     59  CB         6.8420   21.4110   11.9710 C.3   162  SER162      0.2130
     60  OG         5.4570   21.6730   11.7220 O.3   162  SER162     -0.2179
     61  N          7.8280   22.0110   15.4700 N.am  163  THR163     -0.1950
     62  CA         7.5070   21.6470   16.8450 C.3   163  THR163      0.1897
     63  C          6.2400   22.3660   17.3000 C.2   163  THR163      0.2313
     64  O          5.5130   21.8760   18.1640 O.2   163  THR163     -0.2863
     65  CB         8.6900   21.9750   17.7780 C.3   163  THR163      0.1794
     66  OG1        9.8240   21.2270   17.3370 O.3   163  THR163     -0.2208
     67  CG2        8.3810   21.6150   19.2330 C.3   163  THR163      0.0378
     68  N          2.9760   20.3630   17.5300 N.3   166  ASN166     -0.1240
     69  CA         2.6310   19.5090   18.6710 C.3   166  ASN166      0.1653
     70  C          1.5720   20.1350   19.5640 C.2   166  ASN166      0.2266
     71  O          0.9820   19.4630   20.4150 O.2   166  ASN166     -0.2867
     72  CB         3.8670   19.2060   19.5220 C.3   166  ASN166      0.1155
     73  CG         4.7970   18.1980   18.8800 C.2   166  ASN166      0.2627
     74  OD1        4.4150   17.4440   17.9800 O.2   166  ASN166     -0.2716
     75  ND2        6.0350   18.1780   19.3500 N.am  166  ASN166     -0.0877
     76  N          6.2650    9.1600    7.0320 N.3   205  ALA205     -0.1231
     77  CA         7.2340    9.9510    7.7970 C.3   205  ALA205      0.1694
     78  C          7.1650    9.6450    9.2940 C.2   205  ALA205      0.2592
     79  O          8.1280    9.9000   10.0250 O.2   205  ALA205     -0.2718
     80  CB         7.0150   11.4480    7.5650 C.3   205  ALA205      0.0304
     81  N          6.0340    9.1060    9.7430 N.am  206  TYR206     -0.1976
     82  CA         5.8180    8.7910   11.1580 C.3   206  TYR206      0.1639
     83  C          5.6440    7.2850   11.4030 C.2   206  TYR206      0.2290
     84  O          5.1930    6.8580   12.4640 O.2   206  TYR206     -0.2864
     85  CB         4.6030    9.5860   11.6750 C.3   206  TYR206      0.0560
     86  CG         4.9070   11.0700   11.6810 C.ar  206  TYR206     -0.0198
     87  CD1        4.7910   11.8300   10.5200 C.ar  206  TYR206     -0.0009
     88  CD2        5.3660   11.7010   12.8260 C.ar  206  TYR206     -0.0009
     89  CE1        5.0970   13.1780   10.5090 C.ar  206  TYR206      0.0417
     90  CE2        5.6770   13.0560   12.8200 C.ar  206  TYR206      0.0417
     91  CZ         5.5430   13.7840   11.6560 C.ar  206  TYR206      0.1957
     92  OH         5.8520   15.1270   11.6270 O.3   206  TYR206     -0.2866
     93  N         10.7580    5.0430   14.4710 N.3   213  THR213     -0.1218
     94  CA         9.7120    5.8570   15.0740 C.3   213  THR213      0.1862
     95  C          8.8920    5.0260   16.0590 C.2   213  THR213      0.2287
     96  O          8.4900    5.5290   17.1070 O.2   213  THR213     -0.2866
     97  CB         8.7860    6.4780   14.0240 C.3   213  THR213      0.1770
     98  OG1        9.5630    7.2810   13.1200 O.3   213  THR213     -0.2211
     99  CG2        7.7740    7.3670   14.7020 C.3   213  THR213      0.0375
    100  N         10.7970    4.9660   19.2830 N.3   216  PHE216     -0.1241
    101  CA        10.6540    6.2890   19.8950 C.3   216  PHE216      0.1605
    102  C          9.3200    6.4300   20.6390 C.2   216  PHE216      0.2264
    103  O          9.2600    6.9160   21.7780 O.2   216  PHE216     -0.2867
    104  CB        10.7800    7.3420   18.7910 C.3   216  PHE216      0.0534
    105  CG        10.5210    8.7520   19.2310 C.ar  216  PHE216     -0.0203
    106  CD1       11.4510    9.4400   19.9930 C.ar  216  PHE216     -0.0042
    107  CD2        9.3770    9.4150   18.8130 C.ar  216  PHE216     -0.0042
    108  CE1       11.2280   10.7510   20.3710 C.ar  216  PHE216     -0.0003
    109  CE2        9.1480   10.7320   19.1860 C.ar  216  PHE216     -0.0003
    110  CZ        10.0730   11.4000   19.9600 C.ar  216  PHE216     -0.0000
    111  N          0.2140    9.9490   16.5330 N.3   252  MET252     -0.1245
    112  CA         0.8420    8.6920   16.9360 C.3   252  MET252      0.1570
    113  C          0.0360    8.0690   18.0700 C.2   252  MET252      0.2261
    114  O         -0.3460    8.7490   19.0310 O.2   252  MET252     -0.2867
    115  CB         2.3020    8.8940   17.3740 C.3   252  MET252      0.0387
    116  CG         3.2030    9.4770   16.2940 C.3   252  MET252      0.0595
    117  SD         4.9340    8.9770   16.4440 S.3   252  MET252     -0.1393
    118  CE         5.2330    9.2500   18.1640 C.3   252  MET252      0.0692
    119  N          0.9170   11.4900   20.5980 N.3   282  GLU282     -0.1245
    120  CA         1.4090   12.7010   19.9400 C.3   282  GLU282      0.1567
    121  C          0.4810   13.1500   18.8150 C.2   282  GLU282      0.2260
    122  O         -0.0920   12.3210   18.1160 O.2   282  GLU282     -0.2867
    123  CB         2.8120   12.4730   19.3680 C.3   282  GLU282      0.0388
    124  CG         3.4990   13.7560   18.8900 C.3   282  GLU282      0.1160
    125  CD         4.8510   13.5020   18.2420 C.2   282  GLU282      0.3649
    126  OE1        4.9590   12.5760   17.4140 O.co2 282  GLU282     -0.2457
    127  OE2        5.8080   14.2320   18.5640 O.co2 282  GLU282     -0.2457
    128  N          0.7780   15.8940   15.4450 N.3   284  SER284     -0.1217
    129  CA         1.6820   16.7230   14.6630 C.3   284  SER284      0.1889
    130  C          0.8600   17.4270   13.5910 C.2   284  SER284      0.2288
    131  O          0.6470   16.8960   12.4990 O.2   284  SER284     -0.2866
    132  CB         2.7950   15.8720   14.0600 C.3   284  SER284      0.2089
    133  OG         3.7140   16.6640   13.3330 O.3   284  SER284     -0.2183
    134  N         -0.3950   19.7720   10.6470 N.3   286  LYS286     -0.1245
    135  CA         0.2010   20.1840    9.3820 C.3   286  LYS286      0.1561
    136  C         -0.5620   21.3960    8.8830 C.2   286  LYS286      0.2260
    137  O         -1.7690   21.5220    9.1220 O.2   286  LYS286     -0.2867
    138  CB         0.1750   19.0380    8.3730 C.3   286  LYS286      0.0271
    139  CG         0.9010   17.7760    8.8690 C.3   286  LYS286      0.0035
    140  CD         2.3790   18.0310    9.2030 C.3   286  LYS286      0.0206
    141  CE         2.9940   16.8290    9.9020 C.3   286  LYS286      0.1093
    142  NZ         4.3590   17.1100   10.4390 N.3   286  LYS286     -0.1314
@<TRIPOS>BOND
     1    32    33    1
     2    34    35    2
     3    34    33    1
     4    76    77    1
     5    44    45    1
     6    44    50    1
     7    47    46    2
     8    80    77    1
     9    45    46    1
    10    45    48    1
    11    33    36    1
    12    77    78    1
    13    50    49    1
    14   138   139    1
    15   138   135    1
    16    49    48    1
    17   139   140    1
    18   136   137    2
    19   136   135    1
    20    36    37    1
    21   140   141    1
    22    78    81   am
    23    78    79    2
    24   135   134    1
    25    81    82    1
    26   141   142    1
    27    37    39   ar
    28    37    38   ar
    29    39    41   ar
    30    38    40   ar
    31    89    87   ar
    32    89    91   ar
    33    87    86   ar
    34    27    26    2
    35    82    83    1
    36    82    85    1
    37    41    42   ar
    38    40    42   ar
    39    83    84    2
    40    92    91    1
    41    91    90   ar
    42    85    86    1
    43    86    88   ar
    44    42    43    1
    45    60    59    1
    46    59    56    1
    47    26    25    1
    48   131   130    2
    49    90    88   ar
    50    55    53   am
    51    55    56    1
    52    51    52    1
    53    53    54    2
    54    53    52    1
    55    56    57    1
    56    98    97    1
    57    25    24    1
    58    25    28    1
    59    30    28    1
    60   133   132    1
    61   130   129    1
    62    28    29    1
    63    97    99    1
    64    97    94    1
    65   132   129    1
    66    93    94    1
    67    57    58    2
    68    57    61   am
    69   129   128    1
    70    29    31    1
    71    94    95    1
    72    61    62    1
    73    16    15    2
    74    23    21   ar
    75    23    22   ar
    76    21    19   ar
    77    95    96    2
    78   116   117    1
    79   116   115    1
    80   117   118    1
    81   111   112    1
    82    22    20   ar
    83    15    14    1
    84    62    63    1
    85    62    65    1
    86    19    18   ar
    87   112   115    1
    88   112   113    1
    89    63    64    2
    90    66    65    1
    91   126   125   ar
    92    68    69    1
    93    20    18   ar
    94    18    17    1
    95    14    17    1
    96    14    13    1
    97    65    67    1
    98    74    73    2
    99   113   114    2
   100   122   121    2
   101   125   127   ar
   102   125   124    1
   103    69    72    1
   104    69    70    1
   105   104   105    1
   106   104   101    1
   107   107   109   ar
   108   107   105   ar
   109   121   120    1
   110    73    75   am
   111    73    72    1
   112   124   123    1
   113   109   110   ar
   114   105   106   ar
   115   100   101    1
   116   123   120    1
   117    70    71    2
   118   101   102    1
   119    12    11    1
   120   120   119    1
   121   110   108   ar
   122   106   108   ar
   123   102   103    2
   124    11     9   ar
   125    11    10   ar
   126     9     7   ar
   127    10     8   ar
   128     7     6   ar
   129     8     6   ar
   130     6     5    1
   131     5     2    1
   132     2     1    1
   133     2     3    1
   134     3     4    2
