@<TRIPOS>MOLECULE
tmp/6fnrA01.pdb
 76 72 0 0 0
SMALL
GASTEIGER

@<TRIPOS>ATOM
      1  N          6.0330    6.4900   10.4130 N.3   207  ASP207     -0.1225
      2  CA         5.9230    5.0370   10.4760 C.3   207  ASP207      0.1805
      3  C          6.9520    4.4600    9.5170 C.2   207  ASP207      0.2598
      4  O          6.6210    3.8040    8.5270 O.2   207  ASP207     -0.2718
      5  CB         4.5040    4.5960   10.1160 C.3   207  ASP207      0.1424
      6  CG         4.2320    3.1390   10.4400 C.2   207  ASP207      0.3668
      7  OD1        5.0040    2.5350   11.2050 O.co2 207  ASP207     -0.2456
      8  OD2        3.2290    2.6040    9.9220 O.co2 207  ASP207     -0.2456
      9  N          8.2160    4.7450    9.8100 N.am  208  ASP208     -0.1960
     10  CA         9.3060    4.4160    8.9080 C.3   208  ASP208      0.1840
     11  C          9.5580    2.9210    8.8060 C.2   208  ASP208      0.2622
     12  O          9.2340    2.1540    9.7120 O.2   208  ASP208     -0.2715
     13  CB        10.5810    5.0990    9.3690 C.3   208  ASP208      0.1450
     14  CG        11.0040    4.6380   10.7360 C.2   208  ASP208      0.3671
     15  OD1       10.3260    5.0200   11.7120 O.co2 208  ASP208     -0.2456
     16  OD2       11.9930    3.8840   10.8300 O.co2 208  ASP208     -0.2456
     17  N         10.1680    2.5330    7.6950 N.am  209  ALA209     -0.1963
     18  CA        10.4240    1.1370    7.3760 C.3   209  ALA209      0.1728
     19  C         11.2780    0.4360    8.4220 C.2   209  ALA209      0.2616
     20  O         11.1170   -0.7620    8.6610 O.2   209  ALA209     -0.2715
     21  CB        11.0990    1.0370    6.0190 C.3   209  ALA209      0.0334
     22  N         12.1860    1.1810    9.0420 N.am  210  ALA210     -0.1963
     23  CA        13.1680    0.5890    9.9600 C.3   210  ALA210      0.1728
     24  C         12.6330    0.3880   11.3810 C.2   210  ALA210      0.2617
     25  O         13.2650   -0.2850   12.1970 O.2   210  ALA210     -0.2715
     26  CB        14.4140    1.4520   10.0010 C.3   210  ALA210      0.0334
     27  N         11.4880    0.9920   11.6880 N.am  211  GLY211     -0.1940
     28  CA        10.8840    0.8520   12.9960 C.3   211  GLY211      0.2014
     29  C         11.4130    1.8170   14.0390 C.2   211  GLY211      0.2638
     30  O         11.1090    1.6800   15.2220 O.2   211  GLY211     -0.2714
     31  N         12.1930    2.8080   13.6180 N.am  212  VAL212     -0.1977
     32  CA        12.7960    3.7190   14.5820 C.3   212  VAL212      0.1596
     33  C         11.7340    4.5850   15.2450 C.2   212  VAL212      0.2287
     34  O         11.7770    4.8200   16.4550 O.2   212  VAL212     -0.2864
     35  CB        13.8560    4.5980   13.9270 C.3   212  VAL212      0.0276
     36  CG1       14.4370    5.5940   14.9170 C.3   212  VAL212      0.0022
     37  CG2       14.9650    3.7190   13.3770 C.3   212  VAL212      0.0022
     38  N          8.6520    3.7580   15.7330 N.3   214  ALA214     -0.1231
     39  CA         7.9410    2.8590   16.6470 C.3   214  ALA214      0.1694
     40  C          8.6780    2.7260   17.9800 C.2   214  ALA214      0.2591
     41  O          8.0570    2.7100   19.0480 O.2   214  ALA214     -0.2718
     42  CB         7.7530    1.4860   16.0060 C.3   214  ALA214      0.0304
     43  N         10.0040    2.6370   17.9180 N.am  215  ALA215     -0.1980
     44  CA        10.8140    2.5470   19.1270 C.3   215  ALA215      0.1597
     45  C         10.7150    3.8280   19.9620 C.2   215  ALA215      0.2287
     46  O         10.5880    3.7840   21.1880 O.2   215  ALA215     -0.2864
     47  CB        12.2530    2.2580   18.7680 C.3   215  ALA215      0.0319
     48  N          7.1800    3.8440   21.6200 N.3   218  ARG218     -0.1245
     49  CA         7.0880    2.8970   22.7290 C.3   218  ARG218      0.1563
     50  C          7.9720    3.2840   23.9150 C.2   218  ARG218      0.2260
     51  O          7.6880    2.8930   25.0440 O.2   218  ARG218     -0.2867
     52  CB         7.4440    1.4830   22.2640 C.3   218  ARG218      0.0307
     53  CG         6.2940    0.7760   21.5560 C.3   218  ARG218      0.0489
     54  CD         6.5710   -0.7090   21.3970 C.3   218  ARG218      0.2205
     55  NE         7.4010   -0.9690   20.2270 N.pl3 218  ARG218     -0.0865
     56  CZ         6.9300   -1.3340   19.0340 C.cat 218  ARG218      0.5346
     57  NH1        5.6380   -1.5030   18.8290 N.pl3 218  ARG218      0.1354
     58  NH2        7.7550   -1.5400   18.0260 N.pl3 218  ARG218      0.1354
     59  N          6.3310   -3.4570   26.7660 N.3   234  LEU234     -0.1245
     60  CA         6.4660   -2.6920   25.5230 C.3   234  LEU234      0.1561
     61  C          6.1550   -3.5340   24.2910 C.2   234  LEU234      0.2260
     62  O          5.6920   -3.0090   23.2820 O.2   234  LEU234     -0.2867
     63  CB         7.8820   -2.0980   25.3910 C.3   234  LEU234      0.0270
     64  CG         8.0860   -0.7010   25.9810 C.3   234  LEU234      0.0019
     65  CD1        7.9170   -0.7020   27.5010 C.3   234  LEU234      0.0001
     66  CD2        9.4570   -0.1510   25.5850 C.3   234  LEU234      0.0001
     67  N          2.7630    0.1690   17.3520 N.3   239  HIS239     -0.1241
     68  CA         2.8870    1.5490   16.9030 C.3   239  HIS239      0.1621
     69  C          1.9070    1.8120   15.7600 C.2   239  HIS239      0.2264
     70  O          1.8840    1.0690   14.7780 O.2   239  HIS239     -0.2867
     71  CB         4.3200    1.8320   16.4390 C.3   239  HIS239      0.0745
     72  CG         4.4850    3.1590   15.7640 C.ar  239  HIS239      0.0817
     73  ND1        4.3380    4.3540   16.4320 N.ar  239  HIS239     -0.2268
     74  CD2        4.7630    3.4800   14.4770 C.ar  239  HIS239      0.1154
     75  CE1        4.5250    5.3550   15.5910 C.ar  239  HIS239      0.1986
     76  NE2        4.7860    4.8510   14.3980 N.ar  239  HIS239     -0.2212
@<TRIPOS>BOND
     1    21    18    1
     2    18    17    1
     3    18    19    1
     4    17    11   am
     5    19    20    2
     6    19    22   am
     7     4     3    2
     8    11    10    1
     9    11    12    2
    10    10    13    1
    11    10     9    1
    12    22    23    1
    13    13    14    1
    14     3     9   am
    15     3     2    1
    16     8     6   ar
    17    23    26    1
    18    23    24    1
    19     5     6    1
    20     5     2    1
    21     1     2    1
    22     6     7   ar
    23    14    16   ar
    24    14    15   ar
    25    24    27   am
    26    24    25    2
    27    27    28    1
    28    28    29    1
    29    37    35    1
    30    31    29   am
    31    31    32    1
    32    35    32    1
    33    35    36    1
    34    29    30    2
    35    76    74   ar
    36    76    75   ar
    37    74    72   ar
    38    32    33    1
    39    70    69    2
    40    33    34    2
    41    75    73   ar
    42    38    39    1
    43    69    68    1
    44    72    73   ar
    45    72    71    1
    46    42    39    1
    47    71    68    1
    48    39    40    1
    49    68    67    1
    50    43    40   am
    51    43    44    1
    52    40    41    2
    53    58    56    1
    54    47    44    1
    55    57    56    1
    56    56    55    2
    57    44    45    1
    58    45    46    2
    59    55    54    1
    60    54    53    1
    61    53    52    1
    62    48    49    1
    63    52    49    1
    64    49    50    1
    65    62    61    2
    66    50    51    2
    67    61    60    1
    68    63    60    1
    69    63    64    1
    70    60    59    1
    71    66    64    1
    72    64    65    1
