@<TRIPOS>MOLECULE
tmp/6fnsA00.pdb
 142 134 0 0 0
SMALL
GASTEIGER

@<TRIPOS>ATOM
      1  N         11.5510   12.2260   25.1320 N.3    40  TYR40      -0.1241
      2  CA        12.8940   12.7570   24.9930 C.3    40  TYR40       0.1605
      3  C         13.7380   12.6800   26.2650 C.2    40  TYR40       0.2264
      4  O         14.3260   13.6740   26.6930 O.2    40  TYR40      -0.2867
      5  CB        12.7930   14.1980   24.4840 C.3    40  TYR40       0.0534
      6  CG        12.0910   14.2570   23.1420 C.ar   40  TYR40      -0.0201
      7  CD1       10.7240   14.4840   23.0540 C.ar   40  TYR40      -0.0009
      8  CD2       12.7910   14.0420   21.9660 C.ar   40  TYR40      -0.0009
      9  CE1       10.0770   14.5190   21.8220 C.ar   40  TYR40       0.0417
     10  CE2       12.1550   14.0740   20.7360 C.ar   40  TYR40       0.0417
     11  CZ        10.8030   14.3110   20.6680 C.ar   40  TYR40       0.1957
     12  OH        10.1870   14.3370   19.4340 O.3    40  TYR40      -0.2866
     13  N         15.8020    9.8510   18.4290 N.3    48  PHE48      -0.1241
     14  CA        15.2950   10.8450   17.4970 C.3    48  PHE48       0.1605
     15  C         16.4210   11.3440   16.6030 C.2    48  PHE48       0.2264
     16  O         16.2090   11.5850   15.4190 O.2    48  PHE48      -0.2867
     17  CB        14.6440   12.0340   18.1980 C.3    48  PHE48       0.0534
     18  CG        14.2650   13.1300   17.2430 C.ar   48  PHE48      -0.0203
     19  CD1       13.2630   12.9300   16.3070 C.ar   48  PHE48      -0.0042
     20  CD2       14.9360   14.3380   17.2500 C.ar   48  PHE48      -0.0042
     21  CE1       12.9250   13.9280   15.4040 C.ar   48  PHE48      -0.0003
     22  CE2       14.6020   15.3390   16.3580 C.ar   48  PHE48      -0.0003
     23  CZ        13.5940   15.1350   15.4320 C.ar   48  PHE48      -0.0000
     24  N         16.6570    9.0260   13.9130 N.3    51  ILE51      -0.1245
     25  CA        15.5160    9.1870   13.0220 C.3    51  ILE51       0.1561
     26  C         15.8080   10.2470   11.9560 C.2    51  ILE51       0.2260
     27  O         15.4270   10.0770   10.8010 O.2    51  ILE51      -0.2867
     28  CB        14.2220    9.5530   13.8000 C.3    51  ILE51       0.0252
     29  CG1       13.6760    8.3110   14.5060 C.3    51  ILE51       0.0019
     30  CG2       13.1440   10.1080   12.8570 C.3    51  ILE51       0.0019
     31  CD1       12.5710    8.5920   15.5100 C.3    51  ILE51       0.0001
     32  N         12.7360    9.4480    6.5460 N.3    57  TYR57      -0.1241
     33  CA        12.4260   10.6730    7.2710 C.3    57  TYR57       0.1605
     34  C         13.0540   11.8820    6.5800 C.2    57  TYR57       0.2264
     35  O         14.1330   12.3470    6.9490 O.2    57  TYR57      -0.2867
     36  CB        12.8960   10.5760    8.7260 C.3    57  TYR57       0.0534
     37  CG        12.3740   11.7000    9.5960 C.ar   57  TYR57      -0.0201
     38  CD1       11.0550   11.7080   10.0400 C.ar   57  TYR57      -0.0009
     39  CD2       13.1970   12.7520    9.9670 C.ar   57  TYR57      -0.0009
     40  CE1       10.5700   12.7390   10.8330 C.ar   57  TYR57       0.0417
     41  CE2       12.7310   13.7810   10.7590 C.ar   57  TYR57       0.0417
     42  CZ        11.4160   13.7750   11.1910 C.ar   57  TYR57       0.1957
     43  OH        10.9660   14.8140   11.9780 O.3    57  TYR57      -0.2866
     44  N         12.1000   15.1160    6.5320 N.3    59  PRO59      -0.2116
     45  CA        12.0280   16.5040    7.0270 C.3    59  PRO59       0.1372
     46  C         13.3580   17.1880    7.3550 C.2    59  PRO59       0.2244
     47  O         13.5670   18.3180    6.9070 O.2    59  PRO59      -0.2868
     48  CB        11.1830   16.3700    8.3000 C.3    59  PRO59       0.0268
     49  CG        10.2760   15.2350    8.0050 C.3    59  PRO59       0.0207
     50  CD        11.1350   14.2540    7.2470 C.3    59  PRO59       0.0892
     51  N         12.2410   22.3460   12.2510 N.3   162  GLY162     -0.1210
     52  CA        11.9690   20.9220   12.3000 C.3   162  GLY162      0.1956
     53  C         10.5010   20.5450   12.2700 C.2   162  GLY162      0.2613
     54  O         10.1650   19.3660   12.3510 O.2   162  GLY162     -0.2717
     55  N          9.6320   21.5440   12.1380 N.am  163  SER163     -0.1938
     56  CA         8.1830   21.3550   12.2240 C.3   163  SER163      0.2055
     57  C          7.7720   20.9000   13.6220 C.2   163  SER163      0.2643
     58  O          6.7740   20.1980   13.7880 O.2   163  SER163     -0.2714
     59  CB         7.6880   20.3500   11.1780 C.3   163  SER163      0.2130
     60  OG         6.3200   20.5800   10.8630 O.3   163  SER163     -0.2179
     61  N          8.5460   21.3080   14.6250 N.am  164  THR164     -0.1950
     62  CA         8.1650   21.0870   16.0160 C.3   164  THR164      0.1897
     63  C          6.7760   21.6600   16.2820 C.2   164  THR164      0.2313
     64  O          5.9960   21.0900   17.0420 O.2   164  THR164     -0.2863
     65  CB         9.1910   21.7150   16.9850 C.3   164  THR164      0.1794
     66  OG1       10.4840   21.1540   16.7340 O.3   164  THR164     -0.2208
     67  CG2        8.8150   21.4520   18.4390 C.3   164  THR164      0.0378
     68  N          3.7780   19.4000   16.2650 N.3   167  ASN167     -0.1240
     69  CA         3.4990   18.4730   17.3570 C.3   167  ASN167      0.1653
     70  C          2.5140   19.0780   18.3590 C.2   167  ASN167      0.2266
     71  O          2.1310   18.4300   19.3320 O.2   167  ASN167     -0.2867
     72  CB         4.8000   18.0540   18.0500 C.3   167  ASN167      0.1155
     73  CG         5.7220   17.2740   17.1260 C.2   167  ASN167      0.2627
     74  OD1        6.9090   17.5920   16.9910 O.2   167  ASN167     -0.2716
     75  ND2        5.1740   16.2540   16.4680 N.am  167  ASN167     -0.0877
     76  N          7.5650    7.8330    6.5890 N.3   206  ALA206     -0.1231
     77  CA         8.4650    8.6930    7.3580 C.3   206  ALA206      0.1694
     78  C          8.3230    8.4590    8.8620 C.2   206  ALA206      0.2592
     79  O          9.2250    8.7850    9.6370 O.2   206  ALA206     -0.2718
     80  CB         8.2040   10.1580    7.0310 C.3   206  ALA206      0.0304
     81  N          7.1920    7.8920    9.2710 N.am  207  TYR207     -0.1976
     82  CA         6.9240    7.6560   10.6880 C.3   207  TYR207      0.1639
     83  C          6.7730    6.1630   10.9780 C.2   207  TYR207      0.2290
     84  O          6.2830    5.7690   12.0350 O.2   207  TYR207     -0.2864
     85  CB         5.6850    8.4510   11.1180 C.3   207  TYR207      0.0560
     86  CG         5.9660    9.9350   11.0710 C.ar  207  TYR207     -0.0198
     87  CD1        5.8280   10.6530    9.8880 C.ar  207  TYR207     -0.0009
     88  CD2        6.4300   10.6080   12.1930 C.ar  207  TYR207     -0.0009
     89  CE1        6.1210   12.0070    9.8320 C.ar  207  TYR207      0.0417
     90  CE2        6.7220   11.9630   12.1470 C.ar  207  TYR207      0.0417
     91  CZ         6.5650   12.6560   10.9640 C.ar  207  TYR207      0.1957
     92  OH         6.8590   14.0000   10.9100 O.3   207  TYR207     -0.2866
     93  N         11.7830    4.1970   14.3490 N.3   214  THR214     -0.1218
     94  CA        10.6880    4.9960   14.8860 C.3   214  THR214      0.1862
     95  C          9.8710    4.1650   15.8800 C.2   214  THR214      0.2287
     96  O          9.3880    4.6880   16.8820 O.2   214  THR214     -0.2866
     97  CB         9.7610    5.5300   13.7850 C.3   214  THR214      0.1770
     98  OG1       10.5330    6.2420   12.8110 O.3   214  THR214     -0.2211
     99  CG2        8.7290    6.4750   14.3800 C.3   214  THR214      0.0375
    100  N         11.6290    4.2460   19.1290 N.3   217  PHE217     -0.1241
    101  CA        11.4140    5.5850   19.6750 C.3   217  PHE217      0.1605
    102  C         10.0520    5.6910   20.3560 C.2   217  PHE217      0.2264
    103  O          9.9420    6.1860   21.4800 O.2   217  PHE217     -0.2867
    104  CB        11.5490    6.6130   18.5450 C.3   217  PHE217      0.0534
    105  CG        11.2230    8.0290   18.9380 C.ar  217  PHE217     -0.0203
    106  CD1       12.1020    8.7740   19.7020 C.ar  217  PHE217     -0.0042
    107  CD2       10.0590    8.6320   18.4880 C.ar  217  PHE217     -0.0042
    108  CE1       11.8120   10.0850   20.0420 C.ar  217  PHE217     -0.0003
    109  CE2        9.7630    9.9430   18.8230 C.ar  217  PHE217     -0.0003
    110  CZ        10.6430   10.6710   19.5970 C.ar  217  PHE217     -0.0000
    111  N          1.0060    8.7810   15.7540 N.3   253  MET253     -0.1245
    112  CA         1.6760    7.5720   16.2130 C.3   253  MET253      0.1570
    113  C          0.8560    6.9350   17.3170 C.2   253  MET253      0.2261
    114  O          0.4280    7.6180   18.2470 O.2   253  MET253     -0.2867
    115  CB         3.0870    7.8760   16.7100 C.3   253  MET253      0.0387
    116  CG         4.0180    8.3950   15.6250 C.3   253  MET253      0.0595
    117  SD         5.7470    7.9810   15.9140 S.3   253  MET253     -0.1393
    118  CE         5.9930    8.5630   17.5890 C.3   253  MET253      0.0692
    119  N          1.5370   10.5130   19.8170 N.3   283  GLU283     -0.1245
    120  CA         2.0320   11.7110   19.1420 C.3   283  GLU283      0.1567
    121  C          1.1880   12.0790   17.9370 C.2   283  GLU283      0.2260
    122  O          0.6820   11.2070   17.2390 O.2   283  GLU283     -0.2867
    123  CB         3.4760   11.5120   18.6910 C.3   283  GLU283      0.0388
    124  CG         4.1370   12.7800   18.1800 C.3   283  GLU283      0.1160
    125  CD         5.5220   12.5260   17.6360 C.2   283  GLU283      0.3649
    126  OE1        5.6540   11.7220   16.6890 O.co2 283  GLU283     -0.2457
    127  OE2        6.4810   13.1220   18.1610 O.co2 283  GLU283     -0.2457
    128  N          1.5730   14.6800   14.4650 N.3   285  SER285     -0.1217
    129  CA         2.5060   15.4680   13.6780 C.3   285  SER285      0.1889
    130  C          1.7020   16.1080   12.5600 C.2   285  SER285      0.2288
    131  O          1.4790   15.5080   11.5110 O.2   285  SER285     -0.2866
    132  CB         3.6430   14.5980   13.1370 C.3   285  SER285      0.2089
    133  OG         4.6090   15.3730   12.4510 O.3   285  SER285     -0.2183
    134  N          0.5380   18.3200    9.4920 N.3   287  LYS287     -0.1245
    135  CA         1.1520   18.7460    8.2400 C.3   287  LYS287      0.1561
    136  C          0.3520   19.9160    7.6890 C.2   287  LYS287      0.2260
    137  O         -0.8670   19.9810    7.8620 O.2   287  LYS287     -0.2867
    138  CB         1.2220   17.5830    7.2520 C.3   287  LYS287      0.0271
    139  CG         1.9190   16.3510    7.8400 C.3   287  LYS287      0.0035
    140  CD         3.3650   16.6400    8.2280 C.3   287  LYS287      0.0206
    141  CE         3.9650   15.5000    9.0410 C.3   287  LYS287      0.1093
    142  NZ         5.3090   15.8500    9.5790 N.3   287  LYS287     -0.1314
@<TRIPOS>BOND
     1    44    45    1
     2    44    50    1
     3    32    33    1
     4    34    35    2
     5    34    33    1
     6    76    77    1
     7    47    46    2
     8    45    46    1
     9    45    48    1
    10    80    77    1
    11    50    49    1
    12   138   139    1
    13   138   135    1
    14    33    36    1
    15    77    78    1
    16   136   137    2
    17   136   135    1
    18   139   140    1
    19    49    48    1
    20   140   141    1
    21   135   134    1
    22    36    37    1
    23    78    81   am
    24    78    79    2
    25   141   142    1
    26    81    82    1
    27    37    39   ar
    28    37    38   ar
    29    89    87   ar
    30    89    91   ar
    31    87    86   ar
    32    39    41   ar
    33    38    40   ar
    34    82    83    1
    35    82    85    1
    36    41    42   ar
    37    27    26    2
    38    40    42   ar
    39    60    59    1
    40    92    91    1
    41    91    90   ar
    42    83    84    2
    43    86    85    1
    44    86    88   ar
    45    59    56    1
    46    42    43    1
    47   131   130    2
    48    26    25    1
    49    55    56    1
    50    55    53   am
    51    90    88   ar
    52    56    57    1
    53    51    52    1
    54    53    52    1
    55    53    54    2
    56   133   132    1
    57   130   129    1
    58    98    97    1
    59    30    28    1
    60    25    28    1
    61    25    24    1
    62   132   129    1
    63    57    58    2
    64    57    61   am
    65   129   128    1
    66    97    99    1
    67    97    94    1
    68    28    29    1
    69    93    94    1
    70    29    31    1
    71    61    62    1
    72    94    95    1
    73    21    23   ar
    74    21    19   ar
    75    16    15    2
    76    23    22   ar
    77   116   117    1
    78   116   115    1
    79   111   112    1
    80    95    96    2
    81   117   118    1
    82    62    63    1
    83    62    65    1
    84   112   115    1
    85   112   113    1
    86    68    69    1
    87    63    64    2
    88    19    18   ar
    89    22    20   ar
    90    75    73   am
    91    15    14    1
    92   126   125   ar
    93    66    65    1
    94    65    67    1
    95    74    73    2
    96    73    72    1
    97   122   121    2
    98    18    20   ar
    99    18    17    1
   100   113   114    2
   101    69    72    1
   102    69    70    1
   103    14    17    1
   104    14    13    1
   105   125   127   ar
   106   125   124    1
   107   121   120    1
   108   124   123    1
   109    70    71    2
   110   107   109   ar
   111   107   105   ar
   112   104   105    1
   113   104   101    1
   114   123   120    1
   115   109   110   ar
   116   105   106   ar
   117   100   101    1
   118   120   119    1
   119    12    11    1
   120   110   108   ar
   121   101   102    1
   122   106   108   ar
   123   102   103    2
   124    11    10   ar
   125    11     9   ar
   126    10     8   ar
   127     9     7   ar
   128     8     6   ar
   129     7     6   ar
   130     6     5    1
   131     5     2    1
   132     2     1    1
   133     2     3    1
   134     3     4    2
