@<TRIPOS>MOLECULE
tmp/6fntA00.pdb
 142 134 0 0 0
SMALL
GASTEIGER

@<TRIPOS>ATOM
      1  N         11.6810   12.6740   25.1900 N.3    40  TYR40      -0.1241
      2  CA        13.0400   13.1720   25.0420 C.3    40  TYR40       0.1605
      3  C         13.8850   13.1070   26.3090 C.2    40  TYR40       0.2264
      4  O         14.4570   14.1100   26.7330 O.2    40  TYR40      -0.2867
      5  CB        12.9850   14.6040   24.5180 C.3    40  TYR40       0.0534
      6  CG        12.2620   14.6930   23.1950 C.ar   40  TYR40      -0.0201
      7  CD1       10.9140   15.0130   23.1360 C.ar   40  TYR40      -0.0009
      8  CD2       12.9210   14.4220   22.0070 C.ar   40  TYR40      -0.0009
      9  CE1       10.2470   15.0800   21.9300 C.ar   40  TYR40       0.0417
     10  CE2       12.2640   14.4860   20.7970 C.ar   40  TYR40       0.0417
     11  CZ        10.9260   14.8140   20.7630 C.ar   40  TYR40       0.1957
     12  OH        10.2660   14.8790   19.5570 O.3    40  TYR40      -0.2866
     13  N         15.9170   10.2120   18.5330 N.3    48  PHE48      -0.1241
     14  CA        15.4130   11.2200   17.6100 C.3    48  PHE48       0.1605
     15  C         16.5350   11.7230   16.7120 C.2    48  PHE48       0.2264
     16  O         16.3240   11.9530   15.5230 O.2    48  PHE48      -0.2867
     17  CB        14.7750   12.4070   18.3300 C.3    48  PHE48       0.0534
     18  CG        14.3380   13.4900   17.3870 C.ar   48  PHE48      -0.0203
     19  CD1       13.2730   13.2790   16.5250 C.ar   48  PHE48      -0.0042
     20  CD2       15.0120   14.6960   17.3260 C.ar   48  PHE48      -0.0042
     21  CE1       12.8780   14.2570   15.6300 C.ar   48  PHE48      -0.0003
     22  CE2       14.6180   15.6800   16.4340 C.ar   48  PHE48      -0.0003
     23  CZ        13.5490   15.4590   15.5860 C.ar   48  PHE48      -0.0000
     24  N         16.7150    9.4880   14.0100 N.3    51  ILE51      -0.1245
     25  CA        15.5740    9.6390   13.1130 C.3    51  ILE51       0.1561
     26  C         15.8740   10.6970   12.0560 C.2    51  ILE51       0.2260
     27  O         15.5050   10.5350   10.8970 O.2    51  ILE51      -0.2867
     28  CB        14.2720    9.9960   13.8880 C.3    51  ILE51       0.0252
     29  CG1       13.7940    8.7680   14.6620 C.3    51  ILE51       0.0019
     30  CG2       13.1580   10.4660   12.9310 C.3    51  ILE51       0.0019
     31  CD1       12.6160    9.0140   15.5860 C.3    51  ILE51       0.0001
     32  N         12.9110    9.7490    6.6040 N.3    57  TYR57      -0.1241
     33  CA        12.6220   11.0040    7.2930 C.3    57  TYR57       0.1605
     34  C         13.2480   12.2170    6.5820 C.2    57  TYR57       0.2264
     35  O         14.3390   12.6740    6.9330 O.2    57  TYR57      -0.2867
     36  CB        13.0980   10.9300    8.7480 C.3    57  TYR57       0.0534
     37  CG        12.5580   12.0500    9.6070 C.ar   57  TYR57      -0.0201
     38  CD1       11.2230   12.0660   10.0000 C.ar   57  TYR57      -0.0009
     39  CD2       13.3760   13.0940   10.0160 C.ar   57  TYR57      -0.0009
     40  CE1       10.7170   13.0950   10.7810 C.ar   57  TYR57       0.0417
     41  CE2       12.8860   14.1240   10.7960 C.ar   57  TYR57       0.0417
     42  CZ        11.5560   14.1220   11.1790 C.ar   57  TYR57       0.1957
     43  OH        11.0780   15.1570   11.9590 O.3    57  TYR57      -0.2866
     44  N         12.2680   15.4740    6.5630 N.3    59  PRO59      -0.2116
     45  CA        12.1740   16.8590    7.0670 C.3    59  PRO59       0.1372
     46  C         13.4880   17.5800    7.4000 C.2    59  PRO59       0.2244
     47  O         13.6750   18.7180    6.9670 O.2    59  PRO59      -0.2868
     48  CB        11.3350   16.6970    8.3360 C.3    59  PRO59       0.0268
     49  CG        10.4410   15.5530    8.0240 C.3    59  PRO59       0.0207
     50  CD        11.3100   14.5950    7.2670 C.3    59  PRO59       0.0892
     51  N         12.3820   22.7200   12.2650 N.3   162  GLY162     -0.1210
     52  CA        12.1100   21.2930   12.3180 C.3   162  GLY162      0.1956
     53  C         10.6390   20.9150   12.3150 C.2   162  GLY162      0.2613
     54  O         10.2990   19.7490   12.5100 O.2   162  GLY162     -0.2717
     55  N          9.7730   21.8950   12.0820 N.am  163  SER163     -0.1938
     56  CA         8.3240   21.7120   12.1960 C.3   163  SER163      0.2055
     57  C          7.9550   21.3060   13.6240 C.2   163  SER163      0.2643
     58  O          7.0110   20.5410   13.8420 O.2   163  SER163     -0.2714
     59  CB         7.8070   20.6700   11.1900 C.3   163  SER163      0.2130
     60  OG         6.4350   20.8910   10.8860 O.3   163  SER163     -0.2179
     61  N          8.7060   21.8230   14.5950 N.am  164  THR164     -0.1950
     62  CA         8.3570   21.6460   16.0040 C.3   164  THR164      0.1897
     63  C          6.9420   22.1570   16.2530 C.2   164  THR164      0.2313
     64  O          6.1920   21.5810   17.0410 O.2   164  THR164     -0.2863
     65  CB         9.3390   22.3860   16.9430 C.3   164  THR164      0.1794
     66  OG1       10.6750   21.9340   16.6960 O.3   164  THR164     -0.2208
     67  CG2        8.9890   22.1350   18.4070 C.3   164  THR164      0.0378
     68  N          3.9250   19.8080   16.2600 N.3   167  ASN167     -0.1240
     69  CA         3.6550   18.8780   17.3560 C.3   167  ASN167      0.1653
     70  C          2.6700   19.4660   18.3670 C.2   167  ASN167      0.2266
     71  O          2.3290   18.8220   19.3600 O.2   167  ASN167     -0.2867
     72  CB         4.9590   18.4790   18.0540 C.3   167  ASN167      0.1155
     73  CG         5.8880   17.6830   17.1450 C.2   167  ASN167      0.2627
     74  OD1        7.0770   17.9840   17.0370 O.2   167  ASN167     -0.2716
     75  ND2        5.3430   16.6640   16.4820 N.am  167  ASN167     -0.0877
     76  N          7.7290    8.1700    6.6290 N.3   206  ALA206     -0.1231
     77  CA         8.6120    9.0470    7.3960 C.3   206  ALA206      0.1694
     78  C          8.4590    8.8250    8.9080 C.2   206  ALA206      0.2592
     79  O          9.3710    9.1340    9.6800 O.2   206  ALA206     -0.2718
     80  CB         8.3380   10.5070    7.0450 C.3   206  ALA206      0.0304
     81  N          7.3130    8.2810    9.3220 N.am  207  TYR207     -0.1976
     82  CA         7.0350    8.0470   10.7440 C.3   207  TYR207      0.1639
     83  C          6.8740    6.5570   11.0440 C.2   207  TYR207      0.2290
     84  O          6.3900    6.1700   12.1070 O.2   207  TYR207     -0.2864
     85  CB         5.7920    8.8410   11.1720 C.3   207  TYR207      0.0560
     86  CG         6.0620   10.3240   11.1280 C.ar  207  TYR207     -0.0198
     87  CD1        5.9320   11.0280    9.9420 C.ar  207  TYR207     -0.0009
     88  CD2        6.5010   11.0110   12.2550 C.ar  207  TYR207     -0.0009
     89  CE1        6.2050   12.3760    9.8780 C.ar  207  TYR207      0.0417
     90  CE2        6.7750   12.3670   12.2010 C.ar  207  TYR207      0.0417
     91  CZ         6.6270   13.0430   11.0070 C.ar  207  TYR207      0.1957
     92  OH         6.9030   14.3940   10.9260 O.3   207  TYR207     -0.2866
     93  N         11.8830    4.5720   14.4770 N.3   214  THR214     -0.1218
     94  CA        10.7830    5.3860   14.9880 C.3   214  THR214      0.1862
     95  C          9.9660    4.5770   15.9900 C.2   214  THR214      0.2287
     96  O          9.5250    5.1020   17.0110 O.2   214  THR214     -0.2866
     97  CB         9.8540    5.8850   13.8630 C.3   214  THR214      0.1770
     98  OG1       10.6240    6.5850   12.8790 O.3   214  THR214     -0.2211
     99  CG2        8.7860    6.8200   14.4240 C.3   214  THR214      0.0375
    100  N         11.6950    4.6910   19.2460 N.3   217  PHE217     -0.1241
    101  CA        11.5100    6.0350   19.7830 C.3   217  PHE217      0.1605
    102  C         10.1430    6.1730   20.4460 C.2   217  PHE217      0.2264
    103  O         10.0140    6.7320   21.5350 O.2   217  PHE217     -0.2867
    104  CB        11.6750    7.0510   18.6480 C.3   217  PHE217      0.0534
    105  CG        11.3630    8.4710   19.0280 C.ar  217  PHE217     -0.0203
    106  CD1       12.2360    9.2030   19.8150 C.ar  217  PHE217     -0.0042
    107  CD2       10.2160    9.0890   18.5550 C.ar  217  PHE217     -0.0042
    108  CE1       11.9560   10.5150   20.1490 C.ar  217  PHE217     -0.0003
    109  CE2        9.9310   10.4010   18.8810 C.ar  217  PHE217     -0.0003
    110  CZ        10.8000   11.1170   19.6780 C.ar  217  PHE217     -0.0000
    111  N          1.0770    9.1760   15.8290 N.3   253  MET253     -0.1245
    112  CA         1.7530    7.9870   16.3250 C.3   253  MET253      0.1570
    113  C          0.9290    7.3460   17.4270 C.2   253  MET253      0.2261
    114  O          0.4690    8.0300   18.3470 O.2   253  MET253     -0.2867
    115  CB         3.1570    8.3200   16.8480 C.3   253  MET253      0.0387
    116  CG         4.0840    8.8820   15.7840 C.3   253  MET253      0.0595
    117  SD         5.8170    8.4190   16.0300 S.3   253  MET253     -0.1393
    118  CE         6.0580    8.7370   17.7850 C.3   253  MET253      0.0692
    119  N          1.6450   10.9250   19.9160 N.3   283  GLU283     -0.1245
    120  CA         2.1200   12.1150   19.2170 C.3   283  GLU283      0.1567
    121  C          1.2890   12.4590   17.9880 C.2   283  GLU283      0.2260
    122  O          0.8030   11.5730   17.2830 O.2   283  GLU283     -0.2867
    123  CB         3.5740   11.9360   18.7790 C.3   283  GLU283      0.0388
    124  CG         4.2020   13.2140   18.2440 C.3   283  GLU283      0.1160
    125  CD         5.6210   13.0090   17.7470 C.2   283  GLU283      0.3649
    126  OE1        6.5430   13.6240   18.3180 O.co2 283  GLU283     -0.2457
    127  OE2        5.8120   12.2410   16.7790 O.co2 283  GLU283     -0.2457
    128  N          1.7390   15.0660   14.4680 N.3   285  SER285     -0.1217
    129  CA         2.6580   15.8790   13.6870 C.3   285  SER285      0.1889
    130  C          1.8590   16.5040   12.5470 C.2   285  SER285      0.2288
    131  O          1.6590   15.8870   11.5040 O.2   285  SER285     -0.2866
    132  CB         3.8250   15.0320   13.1680 C.3   285  SER285      0.2089
    133  OG         4.7980   15.8230   12.5120 O.3   285  SER285     -0.2183
    134  N          0.6360   18.6760    9.4370 N.3   287  LYS287     -0.1245
    135  CA         1.2390   19.0710    8.1750 C.3   287  LYS287      0.1561
    136  C          0.4390   20.2340    7.6010 C.2   287  LYS287      0.2260
    137  O         -0.7910   20.2540    7.6790 O.2   287  LYS287     -0.2867
    138  CB         1.2960   17.8810    7.2130 C.3   287  LYS287      0.0271
    139  CG         1.9780   16.6440    7.8220 C.3   287  LYS287      0.0035
    140  CD         3.4390   16.9160    8.1920 C.3   287  LYS287      0.0206
    141  CE         4.0440   15.7950    9.0290 C.3   287  LYS287      0.1093
    142  NZ         5.3580   16.1950    9.6150 N.3   287  LYS287     -0.1314
@<TRIPOS>BOND
     1    44    45    1
     2    44    50    1
     3    34    35    2
     4    34    33    1
     5    32    33    1
     6    76    77    1
     7    47    46    2
     8    80    77    1
     9    45    46    1
    10    45    48    1
    11   138   139    1
    12   138   135    1
    13    50    49    1
    14    33    36    1
    15    77    78    1
    16   136   137    2
    17   136   135    1
    18   139   140    1
    19    49    48    1
    20   135   134    1
    21   140   141    1
    22    36    37    1
    23    78    81   am
    24    78    79    2
    25   141   142    1
    26    81    82    1
    27    37    38   ar
    28    37    39   ar
    29    89    87   ar
    30    89    91   ar
    31    87    86   ar
    32    38    40   ar
    33    39    41   ar
    34    82    83    1
    35    82    85    1
    36    40    42   ar
    37    41    42   ar
    38    60    59    1
    39    27    26    2
    40    92    91    1
    41    91    90   ar
    42    83    84    2
    43    86    85    1
    44    86    88   ar
    45    42    43    1
    46    59    56    1
    47   131   130    2
    48    26    25    1
    49    55    56    1
    50    55    53   am
    51    56    57    1
    52    90    88   ar
    53    51    52    1
    54    53    52    1
    55    53    54    2
    56   133   132    1
    57   130   129    1
    58    98    97    1
    59    30    28    1
    60    25    28    1
    61    25    24    1
    62   132   129    1
    63    57    58    2
    64    57    61   am
    65   129   128    1
    66    97    99    1
    67    97    94    1
    68    28    29    1
    69    93    94    1
    70    61    62    1
    71    29    31    1
    72    94    95    1
    73    16    15    2
    74    23    21   ar
    75    23    22   ar
    76    21    19   ar
    77   116   117    1
    78   116   115    1
    79   111   112    1
    80    95    96    2
    81    62    63    1
    82    62    65    1
    83   117   118    1
    84    63    64    2
    85    68    69    1
    86   112   115    1
    87   112   113    1
    88    22    20   ar
    89    75    73   am
    90    19    18   ar
    91    66    65    1
    92    15    14    1
    93   127   125   ar
    94    65    67    1
    95    74    73    2
    96    73    72    1
    97   122   121    2
    98    20    18   ar
    99    69    72    1
   100    69    70    1
   101    18    17    1
   102   113   114    2
   103    14    17    1
   104    14    13    1
   105   125   124    1
   106   125   126   ar
   107   121   120    1
   108   124   123    1
   109    70    71    2
   110   107   109   ar
   111   107   105   ar
   112   104   105    1
   113   104   101    1
   114   123   120    1
   115   109   110   ar
   116   105   106   ar
   117   120   119    1
   118   100   101    1
   119    12    11    1
   120   110   108   ar
   121   101   102    1
   122   106   108   ar
   123   102   103    2
   124    11    10   ar
   125    11     9   ar
   126    10     8   ar
   127     9     7   ar
   128     8     6   ar
   129     7     6   ar
   130     6     5    1
   131     5     2    1
   132     2     1    1
   133     2     3    1
   134     3     4    2
