@<TRIPOS>MOLECULE
tmp/6fnxA00.pdb
 125 121 0 0 0
SMALL
GASTEIGER

@<TRIPOS>ATOM
      1  N         -4.1820   -0.6260   -0.9370 N.3    40  TRP40      -0.1228
      2  CA        -4.0550   -1.9850   -1.4240 C.3    40  TRP40       0.1722
      3  C         -5.3470   -2.7690   -1.6500 C.2    40  TRP40       0.2437
      4  O         -5.4410   -3.3850   -2.7380 O.2    40  TRP40      -0.2733
      5  CB        -3.0180   -2.7650   -0.6280 C.3    40  TRP40       0.0563
      6  CG        -3.2470   -2.8810    0.9340 C.ar   40  TRP40       0.0003
      7  CD1       -2.9070   -1.9550    1.8500 C.ar   40  TRP40       0.0946
      8  CD2       -3.9380   -3.8660    1.5740 C.ar   40  TRP40       0.0152
      9  NE1       -3.3860   -2.3450    3.1110 N.ar   40  TRP40      -0.2442
     10  CE2       -3.9730   -3.5460    2.9300 C.ar   40  TRP40       0.0810
     11  CE3       -4.5130   -5.0420    1.1770 C.ar   40  TRP40       0.0012
     12  CZ2       -4.5880   -4.3790    3.8880 C.ar   40  TRP40       0.0191
     13  CZ3       -5.1710   -5.9080    2.1420 C.ar   40  TRP40       0.0001
     14  CH2       -5.1500   -5.5780    3.4860 C.ar   40  TRP40       0.0015
     15  N         -6.4060   -2.6770   -0.8460 N.am   41  PRO41      -0.2718
     16  CA        -7.5730   -3.4790   -1.1310 C.3    41  PRO41       0.1535
     17  C         -8.3490   -2.9420   -2.4120 C.2    41  PRO41       0.2598
     18  O         -9.2210   -3.6480   -2.8240 O.2    41  PRO41      -0.2715
     19  CB        -8.4210   -3.3240    0.1160 C.3    41  PRO41       0.0310
     20  CG        -7.4210   -2.9400    1.2270 C.3    41  PRO41       0.0237
     21  CD        -6.4980   -1.9960    0.4890 C.3    41  PRO41       0.0939
     22  N         -8.0510   -1.7210   -2.7180 N.am   42  PHE42      -0.1974
     23  CA        -8.7800   -1.0130   -3.7990 C.3    42  PHE42       0.1639
     24  C         -7.9820   -1.0260   -5.1420 C.2    42  PHE42       0.2290
     25  O         -8.4920   -0.4510   -6.1230 O.2    42  PHE42      -0.2864
     26  CB        -9.0300    0.4240   -3.3920 C.3    42  PHE42       0.0560
     27  CG        -9.8400    0.5170   -2.1080 C.ar   42  PHE42      -0.0200
     28  CD1      -11.1890    0.5580   -2.1050 C.ar   42  PHE42      -0.0042
     29  CD2       -9.1990    0.5720   -0.8730 C.ar   42  PHE42      -0.0042
     30  CE1      -11.8870    0.6280   -0.8920 C.ar   42  PHE42      -0.0003
     31  CE2       -9.9220    0.5760    0.3260 C.ar   42  PHE42      -0.0003
     32  CZ       -11.2110    0.6200    0.3180 C.ar   42  PHE42      -0.0000
     33  N        -12.3450   -6.9040   -6.7880 N.3    46  VAL46      -0.1245
     34  CA       -12.5140   -7.8360   -5.6530 C.3    46  VAL46       0.1561
     35  C        -12.4050   -9.2860   -6.2020 C.2    46  VAL46       0.2260
     36  O        -13.1830   -9.6710   -7.1110 O.2    46  VAL46      -0.2867
     37  CB       -13.8670   -7.5860   -5.0120 C.3    46  VAL46       0.0252
     38  CG1      -14.2610   -8.7670   -4.0590 C.3    46  VAL46       0.0019
     39  CG2      -13.8570   -6.2470   -4.2200 C.3    46  VAL46       0.0019
     40  N        -10.6630  -13.7940   -1.3550 N.3    51  LEU51      -0.1245
     41  CA       -11.0860  -13.1110   -0.0900 C.3    51  LEU51       0.1561
     42  C        -12.2420  -13.7950    0.5940 C.2    51  LEU51       0.2260
     43  O        -12.6760  -13.2320    1.6610 O.2    51  LEU51      -0.2867
     44  CB       -11.3800  -11.6680   -0.4740 C.3    51  LEU51       0.0270
     45  CG       -10.1710  -10.8570   -0.8980 C.3    51  LEU51       0.0019
     46  CD1      -10.6700   -9.5240   -1.4750 C.3    51  LEU51       0.0001
     47  CD2       -9.1750  -10.5570    0.2360 C.3    51  LEU51       0.0001
     48  N        -15.4780  -14.0700   -0.0170 N.3    53  LEU53      -0.1245
     49  CA       -16.6560  -13.1850   -0.0360 C.3    53  LEU53       0.1561
     50  C        -17.7020  -13.7570   -1.0270 C.2    53  LEU53       0.2260
     51  O        -17.9410  -13.1670   -2.0750 O.2    53  LEU53      -0.2867
     52  CB       -16.2780  -11.7880   -0.3700 C.3    53  LEU53       0.0270
     53  CG       -15.1670  -11.1250    0.5550 C.3    53  LEU53       0.0019
     54  CD1      -14.7720   -9.8090   -0.1010 C.3    53  LEU53       0.0001
     55  CD2      -15.5420  -11.0040    1.9470 C.3    53  LEU53       0.0001
     56  N        -20.4270  -11.4830   -2.5080 N.3    56  TYR56      -0.1241
     57  CA       -20.1220  -10.1170   -2.8820 C.3    56  TYR56       0.1605
     58  C        -20.8290   -9.6800   -4.2120 C.2    56  TYR56       0.2264
     59  O        -21.4350   -8.6470   -4.2740 O.2    56  TYR56      -0.2867
     60  CB       -18.6170   -9.9110   -3.0750 C.3    56  TYR56       0.0534
     61  CG       -18.1920   -8.5190   -3.3580 C.ar   56  TYR56      -0.0201
     62  CD1      -17.9910   -7.6050   -2.3100 C.ar   56  TYR56      -0.0009
     63  CD2      -18.0200   -8.0330   -4.6720 C.ar   56  TYR56      -0.0009
     64  CE1      -17.6940   -6.2940   -2.5150 C.ar   56  TYR56       0.0417
     65  CE2      -17.6890   -6.7630   -4.9100 C.ar   56  TYR56       0.0417
     66  CZ       -17.5470   -5.8570   -3.8600 C.ar   56  TYR56       0.1957
     67  OH       -17.2880   -4.5570   -4.0610 O.3    56  TYR56      -0.2866
     68  N        -17.0040    2.9270   -6.6440 N.3    91  MET91      -0.1245
     69  CA       -16.0910    2.1150   -5.8270 C.3    91  MET91       0.1570
     70  C        -16.3680    2.3960   -4.3000 C.2    91  MET91       0.2261
     71  O        -16.4500    1.4710   -3.5250 O.2    91  MET91      -0.2867
     72  CB       -14.6340    2.5140   -6.1580 C.3    91  MET91       0.0387
     73  CG       -13.6340    1.7680   -5.2860 C.3    91  MET91       0.0595
     74  SD       -11.9440    2.2720   -5.7030 S.3    91  MET91      -0.1393
     75  CE       -11.8340    3.8990   -4.8340 C.3    91  MET91       0.0692
     76  N        -18.2910   -0.2200   -1.3860 N.3    95  CYS95      -0.1235
     77  CA       -17.6410   -0.5800   -0.0790 C.3    95  CYS95       0.1677
     78  C        -18.5720   -0.2140    1.0860 C.2    95  CYS95       0.2270
     79  O        -18.7280   -1.0700    2.0260 O.2    95  CYS95      -0.2867
     80  CB       -16.3360    0.1810   -0.0120 C.3    95  CYS95       0.0956
     81  SG       -15.3670   -0.1400    1.4830 S.3    95  CYS95      -0.0801
     82  N        -21.6530   -2.8790    1.0390 N.3    98  TYR98      -0.1227
     83  CA       -21.3550   -4.2260    1.2650 C.3    98  TYR98       0.1736
     84  C        -20.9500   -4.5280    2.7590 C.2    98  TYR98       0.2595
     85  O        -21.2370   -5.5790    3.2320 O.2    98  TYR98      -0.2718
     86  CB       -20.3360   -4.7900    0.2890 C.3    98  TYR98       0.0548
     87  CG       -19.9820   -6.2520    0.5190 C.ar   98  TYR98      -0.0200
     88  CD1      -20.8970   -7.2890    0.1960 C.ar   98  TYR98      -0.0009
     89  CD2      -18.8130   -6.6390    1.1070 C.ar   98  TYR98      -0.0009
     90  CE1      -20.6310   -8.5780    0.4850 C.ar   98  TYR98       0.0417
     91  CE2      -18.5450   -7.9360    1.3790 C.ar   98  TYR98       0.0417
     92  CZ       -19.4280   -8.9130    1.0900 C.ar   98  TYR98       0.1957
     93  OH       -19.1430  -10.1860    1.3760 O.3    98  TYR98      -0.2866
     94  N        -20.1450   -3.6230    3.2580 N.am   99  ASN99      -0.1974
     95  CA       -19.4750   -3.8470    4.5440 C.3    99  ASN99       0.1688
     96  C        -20.1830   -3.1400    5.6650 C.2    99  ASN99       0.2292
     97  O        -21.0600   -2.3110    5.5620 O.2    99  ASN99      -0.2864
     98  CB       -18.0530   -3.3850    4.4750 C.3    99  ASN99       0.1181
     99  CG       -17.3060   -4.1060    3.3840 C.2    99  ASN99       0.2629
    100  OD1      -16.8660   -5.2060    3.4960 O.2    99  ASN99      -0.2716
    101  ND2      -17.0940   -3.3870    2.2170 N.am   99  ASN99      -0.0877
    102  N        -12.7370   -2.0550    9.1690 N.3   104  ASP104     -0.1225
    103  CA       -11.4800   -1.5230    8.6630 C.3   104  ASP104      0.1805
    104  C        -11.5430   -1.1480    7.1890 C.2   104  ASP104      0.2597
    105  O        -11.0430   -0.0850    6.8510 O.2   104  ASP104     -0.2718
    106  CB       -10.3330   -2.6060    8.7710 C.3   104  ASP104      0.1424
    107  CG        -9.7430   -2.7440   10.1660 C.2   104  ASP104      0.3668
    108  OD1       -9.9700   -1.8800   11.0760 O.co2 104  ASP104     -0.2456
    109  OD2       -9.0800   -3.8520   10.3730 O.co2 104  ASP104     -0.2456
    110  N        -12.2030   -1.9620    6.3610 N.am  105  ILE105     -0.1980
    111  CA       -12.2550   -1.6080    4.8960 C.3   105  ILE105      0.1595
    112  C        -12.9870   -0.3040    4.7600 C.2   105  ILE105      0.2287
    113  O        -12.6820    0.4530    3.8120 O.2   105  ILE105     -0.2864
    114  CB       -12.8280   -2.7920    4.1290 C.3   105  ILE105      0.0276
    115  CG1      -12.5950   -2.6290    2.5950 C.3   105  ILE105      0.0022
    116  CG2      -14.3170   -3.0510    4.4350 C.3   105  ILE105      0.0022
    117  CD1      -11.1370   -2.7660    2.1590 C.3   105  ILE105      0.0001
    118  N        -10.8070    2.6040    5.7270 N.3   108  MET108     -0.1245
    119  CA        -9.8570    2.7650    4.5800 C.3   108  MET108      0.1570
    120  C        -10.4550    3.5830    3.3740 C.2   108  MET108      0.2261
    121  O         -9.8890    4.5400    2.9900 O.2   108  MET108     -0.2867
    122  CB        -9.3320    1.4110    4.0940 C.3   108  MET108      0.0387
    123  CG        -8.4580    0.7040    5.1510 C.3   108  MET108      0.0595
    124  SD        -8.2430   -1.0710    4.8050 S.3   108  MET108     -0.1393
    125  CE        -6.5430   -1.0710    4.1520 C.3   108  MET108      0.0692
@<TRIPOS>BOND
     1    36    35    2
     2    33    34    1
     3    68    69    1
     4    35    34    1
     5    72    69    1
     6    72    73    1
     7    25    24    2
     8    69    70    1
     9    74    73    1
    10    74    75    1
    11    34    37    1
    12    24    23    1
    13    37    39    1
    14    37    38    1
    15    65    63   ar
    16    65    66   ar
    17    63    61   ar
    18    70    71    2
    19    59    58    2
    20    58    57    1
    21    67    66    1
    22    66    64   ar
    23    23    26    1
    24    23    22    1
    25    26    27    1
    26    61    60    1
    27    61    62   ar
    28    60    57    1
    29    57    56    1
    30    18    17    2
    31     4     3    2
    32    22    17   am
    33    64    62   ar
    34    17    16    1
    35    27    28   ar
    36    27    29   ar
    37    28    30   ar
    38    51    50    2
    39     3     2    1
    40     3    15   am
    41    46    45    1
    42     2     1    1
    43     2     5    1
    44    76    77    1
    45    40    41    1
    46    16    15    1
    47    16    19    1
    48    50    49    1
    49    45    44    1
    50    45    47    1
    51    30    32   ar
    52    29    31   ar
    53    15    21    1
    54     5     6    1
    55    44    41    1
    56    52    49    1
    57    52    53    1
    58    54    53    1
    59    41    42    1
    60    77    80    1
    61    77    78    1
    62    49    48    1
    63    80    81    1
    64    19    20    1
    65    88    90   ar
    66    88    87   ar
    67    86    87    1
    68    86    83    1
    69    32    31   ar
    70    90    92   ar
    71    21    20    1
    72    87    89   ar
    73    53    55    1
    74    42    43    2
    75     6     8   ar
    76     6     7   ar
    77    82    83    1
    78    78    79    2
    79    92    93    1
    80    92    91   ar
    81    89    91   ar
    82    11     8   ar
    83    11    13   ar
    84    83    84    1
    85     8    10   ar
    86     7     9   ar
    87    13    14   ar
    88   117   115    1
    89   101    99   am
    90   115   114    1
    91    84    85    2
    92    84    94   am
    93    10     9   ar
    94    10    12   ar
    95   121   120    2
    96    94    95    1
    97   120   119    1
    98    99   100    2
    99    99    98    1
   100    14    12   ar
   101   113   112    2
   102   122   119    1
   103   122   123    1
   104   114   116    1
   105   114   111    1
   106   125   124    1
   107    98    95    1
   108    95    96    1
   109   119   118    1
   110   112   111    1
   111   124   123    1
   112   111   110    1
   113    97    96    2
   114   110   104   am
   115   105   104    2
   116   104   103    1
   117   103   106    1
   118   103   102    1
   119   106   107    1
   120   107   109   ar
   121   107   108   ar
