@<TRIPOS>MOLECULE
tmp/6fo0M02.pdb
 173 163 0 0 0
SMALL
GASTEIGER

@<TRIPOS>ATOM
      1  N        103.7400   97.0340  102.4090 N.3     8  ALA8       -0.1231
      2  CA       104.8560   96.4500  103.1340 C.3     8  ALA8        0.1694
      3  C        104.4550   95.2040  103.9060 C.2     8  ALA8        0.2592
      4  O        105.2690   94.2880  104.0550 O.2     8  ALA8       -0.2718
      5  CB       105.4290   97.4700  104.1020 C.3     8  ALA8        0.0304
      6  N        103.2360   95.1640  104.4470 N.am    9  PHE9       -0.1976
      7  CA       102.8160   94.0870  105.3370 C.3     9  PHE9        0.1639
      8  C        101.6930   93.2300  104.7790 C.2     9  PHE9        0.2290
      9  O        101.2140   92.3440  105.4930 O.2     9  PHE9       -0.2864
     10  CB       102.3540   94.6380  106.6960 C.3     9  PHE9        0.0560
     11  CG       103.4200   95.3490  107.4950 C.ar    9  PHE9       -0.0200
     12  CD1      104.7550   95.3130  107.1410 C.ar    9  PHE9       -0.0042
     13  CD2      103.0640   96.0440  108.6350 C.ar    9  PHE9       -0.0042
     14  CE1      105.6900   95.9620  107.8780 C.ar    9  PHE9       -0.0003
     15  CE2      104.0090   96.7010  109.3840 C.ar    9  PHE9       -0.0003
     16  CZ       105.3240   96.6580  109.0070 C.ar    9  PHE9       -0.0000
     17  N        103.4810   92.3160  100.1590 N.3    12  LEU12      -0.1245
     18  CA       104.9120   92.4280  100.0250 C.3    12  LEU12       0.1561
     19  C        105.4550   91.2320   99.2520 C.2    12  LEU12       0.2260
     20  O        104.9820   90.1100   99.4360 O.2    12  LEU12      -0.2867
     21  CB       105.5730   92.4900  101.3850 C.3    12  LEU12       0.0270
     22  CG       107.0760   92.7170  101.3970 C.3    12  LEU12       0.0019
     23  CD1      107.3900   94.0900  100.9050 C.3    12  LEU12       0.0001
     24  CD2      107.6310   92.5170  102.7820 C.3    12  LEU12       0.0001
     25  N        108.1340   88.4920   99.1320 N.3    14  ALA14      -0.1245
     26  CA       109.1330   87.8390   99.9520 C.3    14  ALA14       0.1562
     27  C        109.3370   86.4320   99.4300 C.2    14  ALA14       0.2260
     28  O        108.4820   85.9040   98.7130 O.2    14  ALA14      -0.2867
     29  CB       108.7110   87.7930  101.4170 C.3    14  ALA14       0.0290
     30  N        111.3950   79.7110  102.9950 N.3    18  ILE18      -0.1245
     31  CA       111.6950   80.3650  104.2520 C.3    18  ILE18       0.1561
     32  C        111.4290   79.4170  105.4040 C.2    18  ILE18       0.2260
     33  O        110.4170   78.7100  105.4330 O.2    18  ILE18      -0.2867
     34  CB       110.8800   81.6600  104.3660 C.3    18  ILE18       0.0252
     35  CG1      111.3690   82.6140  103.2810 C.3    18  ILE18       0.0019
     36  CG2      110.9550   82.2040  105.7640 C.3    18  ILE18       0.0019
     37  CD1      110.6730   83.9560  103.1530 C.3    18  ILE18       0.0001
     38  N        112.8330   82.8110  110.7820 N.3    22  TRP22      -0.1241
     39  CA       112.4950   84.2140  110.6140 C.3    22  TRP22       0.1605
     40  C        111.2370   84.6000  111.3580 C.2    22  TRP22       0.2264
     41  O        110.9380   85.7930  111.4580 O.2    22  TRP22      -0.2867
     42  CB       112.3440   84.5380  109.1330 C.3    22  TRP22       0.0550
     43  CG       113.6170   84.4280  108.3720 C.ar   22  TRP22       0.0003
     44  CD1      114.8320   84.1720  108.8740 C.ar   22  TRP22       0.0946
     45  CD2      113.7970   84.5740  106.9700 C.ar   22  TRP22       0.0152
     46  NE1      115.7720   84.1450  107.8910 N.ar   22  TRP22      -0.2442
     47  CE2      115.1570   84.3900  106.7040 C.ar   22  TRP22       0.0810
     48  CE3      112.9420   84.8410  105.9130 C.ar   22  TRP22       0.0012
     49  CZ2      115.6790   84.4630  105.4400 C.ar   22  TRP22       0.0191
     50  CZ3      113.4630   84.9070  104.6660 C.ar   22  TRP22       0.0001
     51  CH2      114.8160   84.7220  104.4310 C.ar   22  TRP22       0.0015
     52  N        112.4090   86.7590  114.0450 N.3    25  GLY25      -0.1210
     53  CA       112.5250   88.1520  113.6750 C.3    25  GLY25       0.1956
     54  C        111.2370   88.9270  113.8300 C.2    25  GLY25       0.2612
     55  O        111.2720   90.1560  113.9250 O.2    25  GLY25      -0.2717
     56  N        110.1000   88.2340  113.8730 N.am   26  SER26      -0.1952
     57  CA       108.8040   88.8790  113.9740 C.3    26  SER26       0.1924
     58  C        108.2720   88.9040  115.3900 C.2    26  SER26       0.2314
     59  O        107.5030   89.8040  115.7390 O.2    26  SER26      -0.2863
     60  CB       107.7990   88.1610  113.0850 C.3    26  SER26       0.2116
     61  OG       108.1540   88.2720  111.7200 O.3    26  SER26      -0.2180
     62  N        108.2790   92.0360  117.6070 N.3    29  GLY29      -0.1210
     63  CA       107.1350   92.9060  117.4430 C.3    29  GLY29       0.1956
     64  C        106.0220   92.5600  118.4030 C.2    29  GLY29       0.2611
     65  O        105.2800   93.4380  118.8480 O.2    29  GLY29      -0.2717
     66  N        105.8970   91.2820  118.7420 N.am   30  ILE30      -0.1979
     67  CA       104.9070   90.8570  119.7150 C.3    30  ILE30       0.1595
     68  C        105.4500   91.0250  121.1190 C.2    30  ILE30       0.2287
     69  O        104.7580   91.5280  122.0090 O.2    30  ILE30      -0.2864
     70  CB       104.4840   89.4080  119.4370 C.3    30  ILE30       0.0276
     71  CG1      103.7820   89.3370  118.0870 C.3    30  ILE30       0.0022
     72  CG2      103.5690   88.9010  120.5370 C.3    30  ILE30       0.0022
     73  CD1      103.6090   87.9510  117.5520 C.3    30  ILE30       0.0001
     74  N        107.7110   93.0640  122.1250 N.3    32  LEU32      -0.1231
     75  CA       107.8310   94.4720  122.4550 C.3    32  LEU32       0.1693
     76  C        106.4780   95.0530  122.8210 C.2    32  LEU32       0.2591
     77  O        106.3670   95.8380  123.7690 O.2    32  LEU32      -0.2718
     78  CB       108.4540   95.2270  121.2920 C.3    32  LEU32       0.0284
     79  CG       108.7350   96.7170  121.4860 C.3    32  LEU32       0.0019
     80  CD1      109.7100   96.9180  122.5900 C.3    32  LEU32       0.0001
     81  CD2      109.2880   97.3490  120.2190 C.3    32  LEU32       0.0001
     82  N        105.4330   94.6570  122.1010 N.am   33  ILE33      -0.1980
     83  CA       104.0980   95.1270  122.4370 C.3    33  ILE33       0.1595
     84  C        103.5990   94.4070  123.6770 C.2    33  ILE33       0.2287
     85  O        103.0330   95.0260  124.5850 O.2    33  ILE33      -0.2864
     86  CB       103.1500   94.9510  121.2330 C.3    33  ILE33       0.0276
     87  CG1      103.5640   95.8820  120.0930 C.3    33  ILE33       0.0022
     88  CG2      101.7260   95.2740  121.6040 C.3    33  ILE33       0.0022
     89  CD1      102.9050   95.5900  118.7550 C.3    33  ILE33       0.0001
     90  N        110.4570  101.0020  119.8370 N.3   181  MET181     -0.1245
     91  CA       109.2850  100.8570  118.9790 C.3   181  MET181      0.1570
     92  C        109.4190  101.7030  117.7300 C.2   181  MET181      0.2261
     93  O        108.8980  101.3400  116.6710 O.2   181  MET181     -0.2867
     94  CB       108.0220  101.2520  119.7400 C.3   181  MET181      0.0387
     95  CG       106.7250  100.9940  118.9970 C.3   181  MET181      0.0595
     96  SD       105.2400  101.4710  119.9120 S.3   181  MET181     -0.1393
     97  CE       105.2680  103.2660  119.7920 C.3   181  MET181      0.0692
     98  N        112.7090  100.3970  115.6260 N.3   184  ALA184     -0.1231
     99  CA       112.3210   99.1660  114.9600 C.3   184  ALA184      0.1694
    100  C        111.6970   99.4550  113.6060 C.2   184  ALA184      0.2591
    101  O        111.9340   98.7250  112.6380 O.2   184  ALA184     -0.2718
    102  CB       111.3530   98.3900  115.8410 C.3   184  ALA184      0.0304
    103  N        110.9120  100.5250  113.5090 N.am  185  MET185     -0.1979
    104  CA       110.3290  100.8520  112.2190 C.3   185  MET185      0.1605
    105  C        111.4090  101.2620  111.2410 C.2   185  MET185      0.2287
    106  O        111.3220  100.9570  110.0470 O.2   185  MET185     -0.2864
    107  CB       109.2920  101.9590  112.3590 C.3   185  MET185      0.0413
    108  CG       108.0810  101.5750  113.1810 C.3   185  MET185      0.0598
    109  SD       107.1030  100.1970  112.5360 S.3   185  MET185     -0.1393
    110  CE       106.3080  100.9280  111.1050 C.3   185  MET185      0.0692
    111  N        113.0990   98.2130  109.7630 N.3   188  LEU188     -0.1245
    112  CA       112.3730   97.6190  108.6570 C.3   188  LEU188      0.1561
    113  C        112.4260   98.4650  107.4080 C.2   188  LEU188      0.2260
    114  O        112.2720   97.9340  106.3040 O.2   188  LEU188     -0.2867
    115  CB       110.9150   97.4240  109.0470 C.3   188  LEU188      0.0270
    116  CG       110.7250   96.4870  110.2250 C.3   188  LEU188      0.0019
    117  CD1      109.3010   96.5480  110.7070 C.3   188  LEU188      0.0001
    118  CD2      111.1240   95.0920  109.8330 C.3   188  LEU188      0.0001
    119  N        115.2580   97.7740  105.1920 N.3   191  LEU191     -0.1231
    120  CA       115.0440   96.4620  104.6170 C.3   191  LEU191      0.1693
    121  C        114.1670   96.5490  103.3870 C.2   191  LEU191      0.2592
    122  O        114.4560   95.9260  102.3600 O.2   191  LEU191     -0.2718
    123  CB       114.4160   95.5530  105.6520 C.3   191  LEU191      0.0284
    124  CG       114.3050   94.0970  105.2450 C.3   191  LEU191      0.0019
    125  CD1      114.4860   93.2520  106.4620 C.3   191  LEU191      0.0001
    126  CD2      112.9820   93.7740  104.5710 C.3   191  LEU191      0.0001
    127  N        113.1010   97.3400  103.4680 N.am  192  HIS192     -0.1976
    128  CA       112.0780   97.3520  102.4360 C.3   192  HIS192      0.1656
    129  C        112.6170   97.8140  101.0930 C.2   192  HIS192      0.2291
    130  O        111.9770   97.5800  100.0640 O.2   192  HIS192     -0.2864
    131  CB       110.9320   98.2400  102.8950 C.3   192  HIS192      0.0771
    132  CG       109.7480   98.2320  101.9870 C.ar  192  HIS192      0.0820
    133  ND1      109.6460   99.0560  100.8870 N.ar  192  HIS192     -0.2267
    134  CD2      108.6050   97.5120  102.0250 C.ar  192  HIS192      0.1154
    135  CE1      108.4940   98.8390  100.2820 C.ar  192  HIS192      0.1986
    136  NE2      107.8420   97.9050  100.9520 N.ar  192  HIS192     -0.2212
    137  N        114.0840   90.5930  102.0430 N.3   196  SER196     -0.1217
    138  CA       114.7500   89.6680  102.9420 C.3   196  SER196      0.1889
    139  C        115.9850   89.0790  102.2720 C.2   196  SER196      0.2288
    140  O        116.4070   89.5020  101.1940 O.2   196  SER196     -0.2866
    141  CB       113.7780   88.5940  103.3840 C.3   196  SER196      0.2089
    142  OG       114.4320   87.6930  104.2510 O.3   196  SER196     -0.2183
    143  N        102.4200   87.8350  101.3920 N.3   211  PHE211     -0.1241
    144  CA       102.7160   87.8480  102.8110 C.3   211  PHE211      0.1605
    145  C        101.4890   87.7580  103.7010 C.2   211  PHE211      0.2264
    146  O        101.6260   87.3580  104.8630 O.2   211  PHE211     -0.2867
    147  CB       103.4810   89.1270  103.1480 C.3   211  PHE211      0.0534
    148  CG       103.9380   89.2190  104.5580 C.ar  211  PHE211     -0.0203
    149  CD1      105.0860   88.5930  104.9600 C.ar  211  PHE211     -0.0042
    150  CD2      103.2210   89.9390  105.4790 C.ar  211  PHE211     -0.0042
    151  CE1      105.5130   88.6760  106.2570 C.ar  211  PHE211     -0.0003
    152  CE2      103.6400   90.0270  106.7750 C.ar  211  PHE211     -0.0003
    153  CZ       104.7910   89.3950  107.1670 C.ar  211  PHE211     -0.0000
    154  N        102.9600   84.0740  105.4410 N.3   215  TYR215     -0.1241
    155  CA       103.8480   84.2970  106.5660 C.3   215  TYR215      0.1605
    156  C        103.1150   84.8820  107.7510 C.2   215  TYR215      0.2264
    157  O        103.6130   84.8010  108.8790 O.2   215  TYR215     -0.2867
    158  CB       104.9940   85.1900  106.1390 C.3   215  TYR215      0.0534
    159  CG       105.8520   84.4830  105.1480 C.ar  215  TYR215     -0.0201
    160  CD1      106.8590   83.6570  105.5570 C.ar  215  TYR215     -0.0009
    161  CD2      105.5970   84.5810  103.8090 C.ar  215  TYR215     -0.0009
    162  CE1      107.6240   82.9770  104.6540 C.ar  215  TYR215      0.0417
    163  CE2      106.3500   83.9100  102.8960 C.ar  215  TYR215      0.0417
    164  CZ       107.3620   83.1120  103.3190 C.ar  215  TYR215      0.1957
    165  OH       108.1000   82.4420  102.3750 O.3   215  TYR215     -0.2866
    166  N        103.6610   83.3760  111.2190 N.3   219  ASP219     -0.1239
    167  CA       104.0520   84.1940  112.3520 C.3   219  ASP219      0.1674
    168  C        103.1330   83.9570  113.5360 C.2   219  ASP219      0.2266
    169  O        103.5910   83.9110  114.6830 O.2   219  ASP219     -0.2867
    170  CB       104.0490   85.6630  111.9650 C.3   219  ASP219      0.1410
    171  CG       105.2130   86.0350  111.0780 C.2   219  ASP219      0.3668
    172  OD1      106.2680   85.3750  111.1600 O.co2 219  ASP219     -0.2456
    173  OD2      105.0790   87.0020  110.3020 O.co2 219  ASP219     -0.2456
@<TRIPOS>BOND
     1    28    27    2
     2    25    26    1
     3    19    20    2
     4    19    18    1
     5    27    26    1
     6    26    29    1
     7    18    17    1
     8    18    21    1
     9   130   129    2
    10   135   133   ar
    11   135   136   ar
    12   133   132   ar
    13    23    22    1
    14   136   134   ar
    15   129   128    1
    16   140   139    2
    17    21    22    1
    18   143   144    1
    19    22    24    1
    20   132   134   ar
    21   132   131    1
    22   137   138    1
    23   139   138    1
    24   122   121    2
    25   165   164    1
    26     1     2    1
    27   128   131    1
    28   128   127    1
    29   144   147    1
    30   144   145    1
    31   163   164   ar
    32   163   161   ar
    33   138   141    1
    34    30    31    1
    35     2     3    1
    36     2     5    1
    37   147   148    1
    38    37    35    1
    39    35    34    1
    40   164   162   ar
    41   141   142    1
    42   121   127   am
    43   121   120    1
    44   145   146    2
    45   161   159   ar
    46     3     4    2
    47     3     6   am
    48    31    34    1
    49    31    32    1
    50    34    36    1
    51    51    50   ar
    52    51    49   ar
    53     6     7    1
    54   148   149   ar
    55   148   150   ar
    56   126   124    1
    57   120   119    1
    58   120   123    1
    59   162   160   ar
    60    50    48   ar
    61     8     7    1
    62     8     9    2
    63   149   151   ar
    64   159   160   ar
    65   159   158    1
    66   124   123    1
    67   124   125    1
    68     7    10    1
    69    32    33    2
    70    49    47   ar
    71   154   155    1
    72   150   152   ar
    73    48    45   ar
    74   158   155    1
    75   151   153   ar
    76   114   113    2
    77   155   156    1
    78    10    11    1
    79    47    45   ar
    80    47    46   ar
    81   152   153   ar
    82    45    43   ar
    83    12    11   ar
    84    12    14   ar
    85   113   112    1
    86    11    13   ar
    87   156   157    2
    88    14    16   ar
    89    46    44   ar
    90    43    44   ar
    91    43    42    1
    92    13    15   ar
    93   112   115    1
    94   112   111    1
    95    16    15   ar
    96   115   116    1
    97    42    39    1
    98   118   116    1
    99   106   105    2
   100   116   117    1
   101   173   171   ar
   102    39    38    1
   103    39    40    1
   104   171   172   ar
   105   171   170    1
   106   110   109    1
   107   166   167    1
   108   105   104    1
   109    40    41    2
   110    61    60    1
   111   170   167    1
   112   104   107    1
   113   104   103    1
   114   167   168    1
   115   107   108    1
   116   109   108    1
   117   101   100    2
   118    60    57    1
   119   103   100   am
   120   168   169    2
   121   100    99    1
   122    53    54    1
   123    53    52    1
   124    54    56   am
   125    54    55    2
   126    56    57    1
   127    57    58    1
   128    99    98    1
   129    99   102    1
   130    58    59    2
   131    93    92    2
   132    63    62    1
   133    63    64    1
   134    73    71    1
   135    92    91    1
   136    71    70    1
   137    64    66   am
   138    64    65    2
   139    66    67    1
   140    89    87    1
   141    91    94    1
   142    91    90    1
   143    95    94    1
   144    95    96    1
   145    70    67    1
   146    70    72    1
   147    67    68    1
   148    97    96    1
   149    87    86    1
   150    81    79    1
   151    68    69    2
   152    86    88    1
   153    86    83    1
   154    78    79    1
   155    78    75    1
   156    79    80    1
   157    82    83    1
   158    82    76   am
   159    74    75    1
   160    83    84    1
   161    75    76    1
   162    76    77    2
   163    84    85    2
