@<TRIPOS>MOLECULE
tmp/6fo5A00.pdb
 153 148 0 0 0
SMALL
GASTEIGER

@<TRIPOS>ATOM
      1  N         47.9890   -4.4990    7.9010 N.3    38  PHE38      -0.1241
      2  CA        48.8250   -3.2910    7.8250 C.3    38  PHE38       0.1605
      3  C         49.1750   -2.6910    9.1800 C.2    38  PHE38       0.2264
      4  O         49.8000   -1.6170    9.2310 O.2    38  PHE38      -0.2867
      5  CB        48.1680   -2.2340    6.9530 C.3    38  PHE38       0.0534
      6  CG        47.9410   -2.5920    5.5100 C.ar   38  PHE38      -0.0203
      7  CD1       48.6640   -3.6020    4.8760 C.ar   38  PHE38      -0.0042
      8  CD2       46.9990   -1.8830    4.7900 C.ar   38  PHE38      -0.0042
      9  CE1       48.4020   -3.8960    3.5120 C.ar   38  PHE38      -0.0003
     10  CE2       46.7880   -2.1850    3.4510 C.ar   38  PHE38      -0.0003
     11  CZ        47.5000   -3.1880    2.8310 C.ar   38  PHE38      -0.0000
     12  N         51.3190   -3.7660   11.5850 N.3    40  TRP40      -0.1228
     13  CA        52.6140   -3.9890   12.2200 C.3    40  TRP40       0.1722
     14  C         53.5410   -2.7870   12.2700 C.2    40  TRP40       0.2437
     15  O         54.2270   -2.6430   13.3070 O.2    40  TRP40      -0.2733
     16  CB        53.2970   -5.2300   11.6450 C.3    40  TRP40       0.0563
     17  CG        53.6430   -5.1170   10.1890 C.ar   40  TRP40       0.0003
     18  CD1       52.8480   -5.4690    9.1430 C.ar   40  TRP40       0.0946
     19  CD2       54.8420   -4.5690    9.6260 C.ar   40  TRP40       0.0152
     20  NE1       53.4780   -5.1470    7.9600 N.ar   40  TRP40      -0.2442
     21  CE2       54.7080   -4.6170    8.2340 C.ar   40  TRP40       0.0810
     22  CE3       56.0300   -4.0670   10.1940 C.ar   40  TRP40       0.0012
     23  CZ2       55.6960   -4.1620    7.3970 C.ar   40  TRP40       0.0191
     24  CZ3       56.9940   -3.6280    9.3830 C.ar   40  TRP40       0.0001
     25  CH2       56.8410   -3.6850    7.9440 C.ar   40  TRP40       0.0015
     26  N         53.6430   -1.8770   11.2960 N.am   41  PRO41      -0.2718
     27  CA        54.5710   -0.7380   11.4530 C.3    41  PRO41       0.1535
     28  C         54.1470    0.2250   12.5670 C.2    41  PRO41       0.2598
     29  O         54.9580    1.0680   12.9580 O.2    41  PRO41      -0.2715
     30  CB        54.5320   -0.0160   10.1030 C.3    41  PRO41       0.0310
     31  CG        54.0340   -1.0930    9.1430 C.3    41  PRO41       0.0237
     32  CD        53.0030   -1.8770    9.9480 C.3    41  PRO41       0.0939
     33  N         52.9020    0.0990   13.0180 N.am   42  PHE42      -0.1974
     34  CA        52.2890    0.9970   13.9770 C.3    42  PHE42       0.1639
     35  C         52.2130    0.3470   15.3580 C.2    42  PHE42       0.2290
     36  O         51.6460    0.9650   16.2750 O.2    42  PHE42      -0.2864
     37  CB        50.8850    1.3610   13.5140 C.3    42  PHE42       0.0560
     38  CG        50.8750    2.0340   12.1760 C.ar   42  PHE42      -0.0200
     39  CD1       51.0220    3.3890   12.0400 C.ar   42  PHE42      -0.0042
     40  CD2       50.7610    1.2750   11.0110 C.ar   42  PHE42      -0.0042
     41  CE1       51.0880    4.0070   10.7930 C.ar   42  PHE42      -0.0003
     42  CE2       50.8480    1.8870    9.7700 C.ar   42  PHE42      -0.0003
     43  CZ        51.0100    3.2160    9.6570 C.ar   42  PHE42      -0.0000
     44  N         54.6230   -0.4820   17.5490 N.3    44  GLN44      -0.1245
     45  CA        55.6920   -0.1680   18.5080 C.3    44  GLN44       0.1566
     46  C         56.2530    1.1860   18.1660 C.2    44  GLN44       0.2260
     47  O         56.1200    1.6870   17.0200 O.2    44  GLN44      -0.2867
     48  CB        56.7780   -1.2470   18.4620 C.3    44  GLN44       0.0367
     49  CG        57.4500   -1.4010   17.1380 C.3    44  GLN44       0.0905
     50  CD        56.5670   -2.1080   16.1030 C.2    44  GLN44       0.2608
     51  OE1       56.0400   -3.1880   16.3500 O.2    44  GLN44      -0.2717
     52  NE2       56.3420   -1.4860   14.9300 N.am   44  GLN44      -0.0878
     53  N         58.6290    4.0460   16.8820 N.3    46  VAL46      -0.1245
     54  CA        59.6020    4.1110   15.7880 C.3    46  VAL46       0.1561
     55  C         61.0180    4.0240   16.3290 C.2    46  VAL46       0.2260
     56  O         61.4380    4.8520   17.1520 O.2    46  VAL46      -0.2867
     57  CB        59.3790    5.3950   14.9850 C.3    46  VAL46       0.0252
     58  CG1       60.5580    5.6710   14.0330 C.3    46  VAL46       0.0019
     59  CG2       58.0740    5.3220   14.1950 C.3    46  VAL46       0.0019
     60  N         65.2320    1.5860   11.5290 N.3    51  LEU51      -0.1301
     61  CA        64.4830    1.8590   10.3810 C.3    51  LEU51       0.1247
     62  C         65.2980    2.8490    9.4160 C.3    51  LEU51       0.2009
     63  O         64.7130    3.1200    8.3630 O.3    51  LEU51      -0.2188
     64  CB        63.0320    2.3320   10.7150 C.3    51  LEU51       0.0217
     65  CG        62.1910    1.3470   11.5570 C.3    51  LEU51       0.0015
     66  CD1       60.8530    1.9610   11.8740 C.3    51  LEU51       0.0000
     67  CD2       62.0320    0.0550   10.8000 C.3    51  LEU51       0.0000
     68  N         65.2640    6.0750    9.3790 N.3    53  LEU53      -0.1245
     69  CA        64.2590    7.1610    9.0590 C.3    53  LEU53       0.1561
     70  C         64.8450    8.4800    9.4360 C.2    53  LEU53       0.2260
     71  O         64.8130    8.8680   10.6080 O.2    53  LEU53      -0.2867
     72  CB        62.9260    6.9530    9.7420 C.3    53  LEU53       0.0270
     73  CG        62.1160    5.7040    9.3220 C.3    53  LEU53       0.0019
     74  CD1       60.8440    5.5400   10.0890 C.3    53  LEU53       0.0001
     75  CD2       61.8780    5.6580    7.8490 C.3    53  LEU53       0.0001
     76  N         63.6610   11.4460   11.9830 N.3    56  TYR56      -0.1241
     77  CA        62.2830   11.1640   12.4740 C.3    56  TYR56       0.1605
     78  C         61.9840   11.9810   13.6800 C.2    56  TYR56       0.2264
     79  O         60.9470   12.6490   13.7030 O.2    56  TYR56      -0.2867
     80  CB        62.0760    9.6810   12.7350 C.3    56  TYR56       0.0534
     81  CG        60.6130    9.3870   12.9780 C.ar   56  TYR56      -0.0201
     82  CD1       59.7390    9.1650   11.9420 C.ar   56  TYR56      -0.0009
     83  CD2       60.0710    9.3810   14.2790 C.ar   56  TYR56      -0.0009
     84  CE1       58.3780    8.9730   12.1260 C.ar   56  TYR56       0.0417
     85  CE2       58.7590    9.1600   14.4860 C.ar   56  TYR56       0.0417
     86  CZ        57.8700    8.9610   13.4110 C.ar   56  TYR56       0.1957
     87  OH        56.5480    8.7970   13.6570 O.3    56  TYR56      -0.2866
     88  N         49.0310    9.3830   16.2570 N.3    91  MET91      -0.1245
     89  CA        49.7460    8.3410   15.5030 C.3    91  MET91       0.1570
     90  C         49.5410    8.5070   13.9950 C.2    91  MET91       0.2261
     91  O         50.4870    8.4600   13.2250 O.2    91  MET91      -0.2867
     92  CB        49.2780    6.9860   15.9940 C.3    91  MET91       0.0387
     93  CG        49.9050    5.8310   15.2230 C.3    91  MET91       0.0595
     94  SD        49.2400    4.2310   15.7440 S.3    91  MET91      -0.1393
     95  CE        47.6490    4.2750   14.8520 C.3    91  MET91       0.0692
     96  N         52.3580    9.9880   10.9390 N.3    95  CYS95      -0.1235
     97  CA        52.6750    9.2940    9.6960 C.3    95  CYS95       0.1677
     98  C         52.4830   10.2120    8.4930 C.2    95  CYS95       0.2270
     99  O         53.3080   10.2690    7.5780 O.2    95  CYS95      -0.2867
    100  CB        51.8110    8.0360    9.6220 C.3    95  CYS95       0.0956
    101  SG        52.1450    6.9900    8.1920 S.3    95  CYS95      -0.0801
    102  N         55.3930   13.0100    8.5780 N.3    98  TYR98      -0.1227
    103  CA        56.7980   12.6020    8.2900 C.3    98  TYR98       0.1736
    104  C         56.9680   12.0870    6.8670 C.2    98  TYR98       0.2595
    105  O         58.0150   12.3210    6.2580 O.2    98  TYR98      -0.2718
    106  CB        57.2150   11.5250    9.2920 C.3    98  TYR98       0.0548
    107  CG        58.6110   11.0840    9.0420 C.ar   98  TYR98      -0.0200
    108  CD1       59.7120   11.8960    9.3760 C.ar   98  TYR98      -0.0009
    109  CD2       58.8710    9.8800    8.3980 C.ar   98  TYR98      -0.0009
    110  CE1       61.0030   11.5330    9.0530 C.ar   98  TYR98       0.0417
    111  CE2       60.1830    9.5020    8.0520 C.ar   98  TYR98       0.0417
    112  CZ        61.2360   10.3580    8.3780 C.ar   98  TYR98       0.1957
    113  OH        62.5070    9.9750    8.0000 O.3    98  TYR98      -0.2866
    114  N         55.9780   11.3690    6.3720 N.am   99  ASN99      -0.1974
    115  CA        56.1270   10.6680    5.0970 C.3    99  ASN99       0.1688
    116  C         55.4630   11.4920    3.9730 C.2    99  ASN99       0.2292
    117  O         54.7200   12.3690    4.1930 O.2    99  ASN99      -0.2864
    118  CB        55.4620    9.2680    5.2010 C.3    99  ASN99       0.1181
    119  CG        56.1380    8.4460    6.2950 C.2    99  ASN99       0.2629
    120  OD1       57.2130    7.8920    6.1140 O.2    99  ASN99      -0.2716
    121  ND2       55.4610    8.3990    7.4500 N.am   99  ASN99      -0.0877
    122  N         53.5800    4.3480    0.5320 N.3   104  ASP104     -0.1225
    123  CA        52.9050    3.1360    0.9780 C.3   104  ASP104      0.1805
    124  C         52.6070    3.1320    2.4680 C.2   104  ASP104      0.2597
    125  O         51.5190    2.6760    2.8490 O.2   104  ASP104     -0.2718
    126  CB        53.7450    1.9550    0.6210 C.3   104  ASP104      0.1424
    127  CG        53.7830    1.6240   -0.8590 C.2   104  ASP104      0.3668
    128  OD1       52.9120    2.1300   -1.6020 O.co2 104  ASP104     -0.2456
    129  OD2       54.6220    0.8560   -1.2720 O.co2 104  ASP104     -0.2456
    130  N         53.4820    3.6580    3.3210 N.am  105  ILE105     -0.1980
    131  CA        53.1780    3.6730    4.7450 C.3   105  ILE105      0.1595
    132  C         51.9570    4.5410    5.0220 C.2   105  ILE105      0.2287
    133  O         51.1860    4.3000    5.9430 O.2   105  ILE105     -0.2864
    134  CB        54.4120    4.1350    5.5500 C.3   105  ILE105      0.0276
    135  CG1       54.2470    3.9020    7.0350 C.3   105  ILE105      0.0022
    136  CG2       54.7800    5.5740    5.2720 C.3   105  ILE105      0.0022
    137  CD1       54.2530    2.4830    7.4690 C.3   105  ILE105      0.0001
    138  N         49.4180    4.9590    2.8470 N.3   107  LEU107     -0.1231
    139  CA        48.2660    4.1160    2.4790 C.3   107  LEU107      0.1693
    140  C         47.8840    3.1980    3.6120 C.2   107  LEU107      0.2591
    141  O         46.6940    2.9650    3.8640 O.2   107  LEU107     -0.2718
    142  CB        48.5580    3.3040    1.2330 C.3   107  LEU107      0.0284
    143  CG        48.8150    4.1240   -0.0430 C.3   107  LEU107      0.0019
    144  CD1       49.2000    3.1840   -1.1560 C.3   107  LEU107      0.0001
    145  CD2       47.6230    4.9680   -0.3920 C.3   107  LEU107      0.0001
    146  N         48.8690    2.6420    4.3280 N.am  108  MET108     -0.1979
    147  CA        48.5760    1.7620    5.4590 C.3   108  MET108      0.1605
    148  C         47.8850    2.5130    6.5650 C.2   108  MET108      0.2287
    149  O         46.8670    2.0500    7.0990 O.2   108  MET108     -0.2864
    150  CB        49.8940    1.1440    5.9710 C.3   108  MET108      0.0413
    151  CG        50.5150    0.2160    4.9360 C.3   108  MET108      0.0598
    152  SD        52.1910   -0.3420    5.3980 S.3   108  MET108     -0.1393
    153  CE        51.8270   -1.8190    6.2870 C.3   108  MET108      0.0692
@<TRIPOS>BOND
     1   128   127   ar
     2   129   127   ar
     3   144   143    1
     4   127   126    1
     5   145   143    1
     6   143   142    1
     7   122   123    1
     8   126   123    1
     9   123   124    1
    10   142   139    1
    11   124   125    2
    12   124   130   am
    13   139   138    1
    14   139   140    1
    15    11    10   ar
    16    11     9   ar
    17   130   131    1
    18    10     8   ar
    19     9     7   ar
    20   140   141    2
    21   140   146   am
    22   116   117    2
    23   116   115    1
    24   146   147    1
    25   131   132    1
    26   131   134    1
    27     8     6   ar
    28     7     6   ar
    29   151   152    1
    30   151   150    1
    31   132   133    2
    32   115   118    1
    33   115   114    1
    34   118   119    1
    35   136   134    1
    36   152   153    1
    37   147   150    1
    38   147   148    1
    39     6     5    1
    40   134   135    1
    41   120   119    2
    42   105   104    2
    43   119   121   am
    44   114   104   am
    45   148   149    2
    46   104   103    1
    47     5     2    1
    48   135   137    1
    49    23    25   ar
    50    23    21   ar
    51    99    98    2
    52     2     1    1
    53     2     3    1
    54    75    73    1
    55    25    24   ar
    56    20    21   ar
    57    20    18   ar
    58   113   112    1
    59   111   112   ar
    60   111   109   ar
    61   101   100    1
    62    21    19   ar
    63   103   102    1
    64   103   106    1
    65    63    62    1
    66   112   110   ar
    67   109   107   ar
    68    98    97    1
    69   107   106    1
    70   107   108   ar
    71   110   108   ar
    72    69    68    1
    73    69    70    1
    74    69    72    1
    75    18    17   ar
    76    31    32    1
    77    31    30    1
    78     3     4    2
    79    73    72    1
    80    73    74    1
    81    24    22   ar
    82    62    61    1
    83    70    71    2
    84   100    97    1
    85    19    17   ar
    86    19    22   ar
    87    43    42   ar
    88    43    41   ar
    89    97    96    1
    90    42    40   ar
    91    32    26    1
    92    30    27    1
    93    17    16    1
    94    61    64    1
    95    61    60    1
    96    64    65    1
    97    41    39   ar
    98    67    65    1
    99    40    38   ar
   100    26    27    1
   101    26    14   am
   102    27    28    1
   103    65    66    1
   104    12    13    1
   105    16    13    1
   106    82    84   ar
   107    82    81   ar
   108    76    77    1
   109    39    38   ar
   110    84    86   ar
   111    38    37    1
   112    13    14    1
   113    14    15    2
   114    77    80    1
   115    77    78    1
   116    28    29    2
   117    28    33   am
   118    80    81    1
   119    81    83   ar
   120    33    34    1
   121    91    90    2
   122    86    87    1
   123    86    85   ar
   124    37    34    1
   125    78    79    2
   126    34    35    1
   127    90    89    1
   128    58    57    1
   129    59    57    1
   130    83    85   ar
   131    95    94    1
   132    52    50   am
   133    57    54    1
   134    93    94    1
   135    93    92    1
   136    35    36    2
   137    89    92    1
   138    89    88    1
   139    54    55    1
   140    54    53    1
   141    50    51    2
   142    50    49    1
   143    55    56    2
   144    47    46    2
   145    49    48    1
   146    44    45    1
   147    46    45    1
   148    48    45    1
