@<TRIPOS>MOLECULE
tmp/6focA00.pdb
 126 125 0 0 0
SMALL
GASTEIGER

@<TRIPOS>ATOM
      1  N         33.1310  -32.4230  -46.6420 N.3   144  ARG144     -0.1231
      2  CA        33.5620  -33.7300  -46.1530 C.3   144  ARG144      0.1694
      3  C         32.8680  -34.8280  -46.9710 C.2   144  ARG144      0.2592
      4  O         31.7060  -34.6840  -47.3520 O.2   144  ARG144     -0.2718
      5  CB        33.2530  -33.8580  -44.6580 C.3   144  ARG144      0.0321
      6  CG        33.7710  -35.1390  -44.0190 C.3   144  ARG144      0.0489
      7  CD        33.6310  -35.1510  -42.5120 C.3   144  ARG144      0.2205
      8  NE        33.9670  -36.4540  -41.9520 N.pl3 144  ARG144     -0.0865
      9  CZ        33.1230  -37.4770  -41.8510 C.cat 144  ARG144      0.5346
     10  NH1       31.8810  -37.3650  -42.2920 N.pl3 144  ARG144      0.1354
     11  NH2       33.5240  -38.6120  -41.3070 N.pl3 144  ARG144      0.1354
     12  N         33.6050  -35.9190  -47.2230 N.am  145  LYS145     -0.1966
     13  CA        33.1550  -37.0750  -48.0140 C.3   145  LYS145      0.1728
     14  C         32.7200  -36.6210  -49.4150 C.2   145  LYS145      0.2617
     15  O         31.6340  -36.9760  -49.8760 O.2   145  LYS145     -0.2715
     16  CB        32.0230  -37.8210  -47.2970 C.3   145  LYS145      0.0311
     17  CG        32.3710  -38.3770  -45.9240 C.3   145  LYS145      0.0038
     18  CD        33.3580  -39.5230  -45.9580 C.3   145  LYS145      0.0206
     19  CE        33.5660  -40.1570  -44.5990 C.3   145  LYS145      0.1093
     20  NZ        34.5920  -41.2260  -44.6380 N.3   145  LYS145     -0.1314
     21  N         33.5770  -35.8320  -50.0730 N.am  146  THR146     -0.1937
     22  CA        33.3920  -35.4250  -51.4700 C.3   146  THR146      0.2028
     23  C         34.4550  -36.0790  -52.3670 C.2   146  THR146      0.2643
     24  O         34.3120  -36.0740  -53.5900 O.2   146  THR146     -0.2714
     25  CB        33.4190  -33.8980  -51.6110 C.3   146  THR146      0.1808
     26  OG1       34.6330  -33.4150  -51.0330 O.3   146  THR146     -0.2208
     27  CG2       32.2330  -33.2280  -50.9540 C.3   146  THR146      0.0379
     28  N         35.5120  -36.6290  -51.7540 N.am  147  GLY147     -0.1939
     29  CA        36.5970  -37.3070  -52.4630 C.3   147  GLY147      0.2014
     30  C         37.7640  -36.3750  -52.7490 C.2   147  GLY147      0.2639
     31  O         38.2250  -36.2850  -53.8860 O.2   147  GLY147     -0.2714
     32  N         38.2390  -35.6890  -51.7030 N.am  148  LYS148     -0.1963
     33  CA        39.3710  -34.7640  -51.7900 C.3   148  LYS148      0.1728
     34  C         40.6820  -35.5420  -51.6320 C.2   148  LYS148      0.2617
     35  O         41.5930  -35.4040  -52.4510 O.2   148  LYS148     -0.2715
     36  CB        39.2610  -33.6710  -50.7210 C.3   148  LYS148      0.0311
     37  CG        38.1290  -32.6740  -50.9270 C.3   148  LYS148      0.0038
     38  CD        38.2510  -31.4270  -50.0760 C.3   148  LYS148      0.0206
     39  CE        38.2360  -31.6940  -48.5850 C.3   148  LYS148      0.1093
     40  NZ        36.9600  -32.3050  -48.1480 N.3   148  LYS148     -0.1314
     41  N         40.7630  -36.3470  -50.5660 N.am  149  THR149     -0.1937
     42  CA        41.9350  -37.1700  -50.2660 C.3   149  THR149      0.2028
     43  C         42.1190  -38.2320  -51.3600 C.2   149  THR149      0.2642
     44  O         43.2450  -38.5230  -51.7560 O.2   149  THR149     -0.2714
     45  CB        41.8180  -37.8130  -48.8770 C.3   149  THR149      0.1808
     46  OG1       41.6380  -36.7740  -47.9140 O.3   149  THR149     -0.2208
     47  CG2       43.0270  -38.6410  -48.5010 C.3   149  THR149      0.0379
     48  N         41.0010  -38.7960  -51.8350 N.am  150  ALA150     -0.1977
     49  CA        40.9870  -39.8450  -52.8590 C.3   150  ALA150      0.1597
     50  C         41.7400  -39.3860  -54.1160 C.2   150  ALA150      0.2287
     51  O         42.5230  -40.1470  -54.6820 O.2   150  ALA150     -0.2864
     52  CB        39.5630  -40.2250  -53.1840 C.3   150  ALA150      0.0319
     53  N         45.1560  -41.0520  -55.5640 N.3   154  ASP154     -0.1239
     54  CA        45.1410  -41.5280  -56.9510 C.3   154  ASP154      0.1674
     55  C         46.2680  -40.8560  -57.7480 C.2   154  ASP154      0.2266
     56  O         46.8850  -41.4920  -58.6020 O.2   154  ASP154     -0.2867
     57  CB        43.7800  -41.2850  -57.6100 C.3   154  ASP154      0.1410
     58  CG        42.6840  -42.2230  -57.1320 C.2   154  ASP154      0.3668
     59  OD1       42.8320  -42.7860  -56.0290 O.co2 154  ASP154     -0.2456
     60  OD2       41.6920  -42.3850  -57.8690 O.co2 154  ASP154     -0.2456
     61  N         28.3160  -35.6980  -56.1530 N.3   319  PHE319     -0.1241
     62  CA        28.8900  -36.9350  -55.6150 C.3   319  PHE319      0.1605
     63  C         27.7810  -37.9580  -55.3360 C.2   319  PHE319      0.2264
     64  O         27.9170  -39.1330  -55.6780 O.2   319  PHE319     -0.2867
     65  CB        29.6930  -36.6430  -54.3440 C.3   319  PHE319      0.0534
     66  CG        30.3500  -37.8500  -53.7240 C.ar  319  PHE319     -0.0203
     67  CD1       31.5970  -38.2800  -54.1520 C.ar  319  PHE319     -0.0042
     68  CD2       29.7220  -38.5570  -52.7090 C.ar  319  PHE319     -0.0042
     69  CE1       32.2000  -39.3900  -53.5790 C.ar  319  PHE319     -0.0003
     70  CE2       30.3240  -39.6680  -52.1390 C.ar  319  PHE319     -0.0003
     71  CZ        31.5630  -40.0810  -52.5730 C.ar  319  PHE319     -0.0000
     72  N         31.2750  -39.1110  -59.9420 N.3   324  ARG324     -0.1231
     73  CA        32.4560  -39.3580  -59.1120 C.3   324  ARG324      0.1679
     74  C         33.6620  -39.5830  -60.0240 C.2   324  ARG324      0.2434
     75  O         33.6590  -40.5290  -60.8070 O.2   324  ARG324     -0.2733
     76  CB        32.2190  -40.5680  -58.2030 C.3   324  ARG324      0.0321
     77  CG        30.9120  -40.5100  -57.4250 C.3   324  ARG324      0.0489
     78  CD        30.8260  -41.5410  -56.3170 C.3   324  ARG324      0.2205
     79  NE        29.5170  -41.5220  -55.6770 N.pl3 324  ARG324     -0.0865
     80  CZ        29.2590  -41.9770  -54.4560 C.cat 324  ARG324      0.5346
     81  NH1       30.2180  -42.5360  -53.7360 N.pl3 324  ARG324      0.1354
     82  NH2       28.0380  -41.8830  -53.9590 N.pl3 324  ARG324      0.1354
     83  N         34.6900  -38.7240  -59.9350 N.am  325  PRO325     -0.2729
     84  CA        34.7800  -37.6120  -58.9990 C.3   325  PRO325      0.1401
     85  C         33.7600  -36.4990  -59.2860 C.2   325  PRO325      0.2269
     86  O         33.3370  -36.3200  -60.4320 O.2   325  PRO325     -0.2865
     87  CB        36.2110  -37.0870  -59.1820 C.3   325  PRO325      0.0296
     88  CG        36.5190  -37.3860  -60.6270 C.3   325  PRO325      0.0237
     89  CD        35.8080  -38.6960  -60.8910 C.3   325  PRO325      0.0939
     90  N         34.8060  -41.8670  -62.9980 N.3   392  GLN392     -0.1231
     91  CA        35.9870  -42.7130  -62.8340 C.3   392  GLN392      0.1683
     92  C         35.9470  -43.3820  -61.4620 C.2   392  GLN392      0.2434
     93  O         35.6890  -42.7180  -60.4610 O.2   392  GLN392     -0.2733
     94  CB        37.2510  -41.8690  -63.0060 C.3   392  GLN392      0.0380
     95  CG        38.5330  -42.6890  -63.0980 C.3   392  GLN392      0.0905
     96  CD        39.7320  -41.8440  -63.4510 C.2   392  GLN392      0.2608
     97  OE1       39.6540  -40.9440  -64.2830 O.2   392  GLN392     -0.2717
     98  NE2       40.8600  -42.1370  -62.8250 N.am  392  GLN392     -0.0878
     99  N         36.2030  -44.7090  -61.3680 N.am  393  PRO393     -0.2718
    100  CA        36.1960  -45.4060  -60.0810 C.3   393  PRO393      0.1535
    101  C         37.4180  -45.0470  -59.2200 C.2   393  PRO393      0.2598
    102  O         38.4230  -44.5590  -59.7390 O.2   393  PRO393     -0.2715
    103  CB        36.2090  -46.8890  -60.4780 C.3   393  PRO393      0.0310
    104  CG        36.9160  -46.9080  -61.8160 C.3   393  PRO393      0.0237
    105  CD        36.5170  -45.6100  -62.4880 C.3   393  PRO393      0.0939
    106  N         37.3040  -45.2960  -57.9110 N.am  394  GLN394     -0.1964
    107  CA        38.3400  -44.9440  -56.9370 C.3   394  GLN394      0.1733
    108  C         39.5540  -45.8660  -57.1120 C.2   394  GLN394      0.2616
    109  O         39.4050  -47.0450  -57.4410 O.2   394  GLN394     -0.2715
    110  CB        37.7940  -45.0180  -55.5070 C.3   394  GLN394      0.0408
    111  CG        37.2840  -46.3950  -55.0940 C.3   394  GLN394      0.0908
    112  CD        36.9850  -46.4830  -53.6170 C.2   394  GLN394      0.2608
    113  OE1       36.9880  -45.4850  -52.9000 O.2   394  GLN394     -0.2717
    114  NE2       36.7210  -47.6910  -53.1490 N.am  394  GLN394     -0.0878
    115  N         40.7460  -45.2990  -56.8900 N.am  395  TYR395     -0.1974
    116  CA        42.0220  -46.0220  -56.9090 C.3   395  TYR395      0.1639
    117  C         42.1930  -46.7570  -58.2450 C.2   395  TYR395      0.2290
    118  O         42.4850  -47.9540  -58.2700 O.2   395  TYR395     -0.2864
    119  CB        42.1070  -46.9790  -55.7160 C.3   395  TYR395      0.0560
    120  CG        41.7930  -46.3480  -54.3830 C.ar  395  TYR395     -0.0198
    121  CD1       42.7010  -45.5070  -53.7570 C.ar  395  TYR395     -0.0009
    122  CD2       40.5870  -46.5880  -53.7430 C.ar  395  TYR395     -0.0009
    123  CE1       42.4180  -44.9210  -52.5330 C.ar  395  TYR395      0.0417
    124  CE2       40.2890  -46.0110  -52.5190 C.ar  395  TYR395      0.0417
    125  CZ        41.2080  -45.1740  -51.9110 C.ar  395  TYR395      0.1957
    126  OH        40.9220  -44.6010  -50.7060 O.3   395  TYR395     -0.2866
@<TRIPOS>BOND
     1    97    96    2
     2    96    95    1
     3    96    98   am
     4    95    94    1
     5    94    91    1
     6    90    91    1
     7    91    92    1
     8   105   104    1
     9   105    99    1
    10   104   103    1
    11    92    99   am
    12    92    93    2
    13    99   100    1
    14    89    88    1
    15    89    83    1
    16    75    74    2
    17    88    87    1
    18   103   100    1
    19    86    85    2
    20   100   101    1
    21    74    83   am
    22    74    73    1
    23    72    73    1
    24    83    84    1
    25   102   101    2
    26    85    84    1
    27   101   106   am
    28    87    84    1
    29    73    76    1
    30    56    55    2
    31   118   117    2
    32   117   116    1
    33    76    77    1
    34   106   107    1
    35    60    58   ar
    36    55    54    1
    37    57    58    1
    38    57    54    1
    39   109   108    2
    40    77    78    1
    41    58    59   ar
    42   108   107    1
    43   108   115   am
    44    54    53    1
    45   107   110    1
    46   116   115    1
    47   116   119    1
    48    78    79    1
    49    61    62    1
    50   119   120    1
    51    64    63    2
    52    79    80    2
    53    62    63    1
    54    62    65    1
    55   110   111    1
    56   111   112    1
    57    51    50    2
    58    80    82    1
    59    80    81    1
    60   120   121   ar
    61   120   122   ar
    62    65    66    1
    63    67    66   ar
    64    67    69   ar
    65    50    49    1
    66    31    30    2
    67   121   123   ar
    68   122   124   ar
    69    66    68   ar
    70   112   114   am
    71   112   113    2
    72    24    23    2
    73    69    71   ar
    74    52    49    1
    75    49    48    1
    76    30    29    1
    77    30    32   am
    78    68    70   ar
    79    71    70   ar
    80   123   125   ar
    81   124   125   ar
    82    29    28    1
    83    35    34    2
    84    23    28   am
    85    23    22    1
    86   125   126    1
    87    48    43   am
    88    33    32    1
    89    33    34    1
    90    33    36    1
    91    44    43    2
    92    34    41   am
    93    25    22    1
    94    25    26    1
    95    25    27    1
    96    22    21    1
    97    43    42    1
    98    37    36    1
    99    37    38    1
   100    41    42    1
   101    42    45    1
   102    38    39    1
   103    21    14   am
   104    15    14    2
   105    14    13    1
   106    45    47    1
   107    45    46    1
   108    39    40    1
   109    13    16    1
   110    13    12    1
   111     4     3    2
   112    16    17    1
   113    12     3   am
   114     3     2    1
   115     1     2    1
   116     2     5    1
   117    18    17    1
   118    18    19    1
   119     5     6    1
   120    20    19    1
   121     6     7    1
   122     7     8    1
   123    10     9    1
   124     8     9    2
   125     9    11    1
