@<TRIPOS>MOLECULE
tmp/6focF01.pdb
 136 131 0 0 0
SMALL
GASTEIGER

@<TRIPOS>ATOM
      1  N          9.8390    5.2840  -40.7660 N.3   146  GLY146     -0.1210
      2  CA         9.0300    6.1500  -41.6240 C.3   146  GLY146      0.1956
      3  C          7.8680    5.4000  -42.2520 C.2   146  GLY146      0.2612
      4  O          7.6780    5.4430  -43.4670 O.2   146  GLY146     -0.2717
      5  N          7.0880    4.7180  -41.4080 N.am  147  VAL147     -0.1965
      6  CA         5.9810    3.8660  -41.8570 C.3   147  VAL147      0.1727
      7  C          4.6560    4.6020  -41.6090 C.2   147  VAL147      0.2617
      8  O          3.8500    4.7520  -42.5180 O.2   147  VAL147     -0.2715
      9  CB         6.0100    2.4810  -41.1730 C.3   147  VAL147      0.0290
     10  CG1        4.8210    1.6230  -41.5820 C.3   147  VAL147      0.0023
     11  CG2        7.3160    1.7340  -41.4270 C.3   147  VAL147      0.0023
     12  N          4.4420    5.0530  -40.3630 N.am  148  GLY148     -0.1940
     13  CA         3.2100    5.7440  -39.9630 C.3   148  GLY148      0.2014
     14  C          2.8260    5.4600  -38.5190 C.2   148  GLY148      0.2639
     15  O          1.7520    4.9200  -38.2550 O.2   148  GLY148     -0.2714
     16  N          3.7180    5.8230  -37.5910 N.am  149  LYS149     -0.1963
     17  CA         3.5020    5.6640  -36.1530 C.3   149  LYS149      0.1728
     18  C          2.8440    6.9310  -35.5920 C.2   149  LYS149      0.2617
     19  O          1.8120    6.8590  -34.9220 O.2   149  LYS149     -0.2715
     20  CB         4.8270    5.3910  -35.4360 C.3   149  LYS149      0.0311
     21  CG         5.5060    4.0790  -35.8080 C.3   149  LYS149      0.0038
     22  CD         6.6920    3.7370  -34.9270 C.3   149  LYS149      0.0206
     23  CE         7.9060    4.6090  -35.1780 C.3   149  LYS149      0.1093
     24  NZ         8.5530    4.2990  -36.4760 N.3   149  LYS149     -0.1314
     25  N          3.4590    8.0840  -35.8820 N.am  150  THR150     -0.1937
     26  CA         3.0330    9.3850  -35.3690 C.3   150  THR150      0.2028
     27  C          1.6730    9.7820  -35.9600 C.2   150  THR150      0.2642
     28  O          0.8700   10.4210  -35.2850 O.2   150  THR150     -0.2714
     29  CB         4.0880   10.4620  -35.6530 C.3   150  THR150      0.1808
     30  OG1        5.3480    9.9700  -35.1950 O.3   150  THR150     -0.2208
     31  CG2        3.7860   11.7830  -34.9790 C.3   150  THR150      0.0379
     32  N          1.4310    9.4100  -37.2230 N.am  151  VAL151     -0.1977
     33  CA         0.1650    9.6910  -37.9010 C.3   151  VAL151      0.1596
     34  C         -0.9640    8.9200  -37.2030 C.2   151  VAL151      0.2287
     35  O         -2.0770    9.4290  -37.0750 O.2   151  VAL151     -0.2864
     36  CB         0.2410    9.3530  -39.4040 C.3   151  VAL151      0.0276
     37  CG1       -1.1300    9.3670  -40.0660 C.3   151  VAL151      0.0022
     38  CG2        1.1940   10.2830  -40.1400 C.3   151  VAL151      0.0022
     39  N         11.8410   12.7750  -30.4620 N.3   175  GLU175     -0.1231
     40  CA        11.1540   12.8950  -31.7580 C.3   175  GLU175      0.1699
     41  C         11.3490   14.3130  -32.3130 C.2   175  GLU175      0.2592
     42  O         12.1430   15.0780  -31.7660 O.2   175  GLU175     -0.2718
     43  CB         9.6870   12.4810  -31.6080 C.3   175  GLU175      0.0402
     44  CG         9.5060   11.0050  -31.2880 C.3   175  GLU175      0.1161
     45  CD        10.1840   10.0330  -32.2420 C.2   175  GLU175      0.3649
     46  OE1       10.0510   10.2140  -33.4670 O.co2 175  GLU175     -0.2457
     47  OE2       10.8670    9.1120  -31.7560 O.co2 175  GLU175     -0.2457
     48  N         10.6750   14.6100  -33.4330 N.am  176  ARG176     -0.1980
     49  CA        10.9180   15.8120  -34.2130 C.3   176  ARG176      0.1597
     50  C         10.3040   17.0270  -33.5070 C.2   176  ARG176      0.2287
     51  O          9.1450   16.9950  -33.0780 O.2   176  ARG176     -0.2864
     52  CB        10.3210   15.6710  -35.6180 C.3   176  ARG176      0.0334
     53  CG        10.9210   14.5600  -36.4710 C.3   176  ARG176      0.0492
     54  CD        10.1330   14.4640  -37.7650 C.3   176  ARG176      0.2205
     55  NE        10.5790   13.4400  -38.6950 N.pl3 176  ARG176     -0.0865
     56  CZ        10.2330   12.1610  -38.6260 C.cat 176  ARG176      0.5346
     57  NH1        9.7650   11.6540  -37.4990 N.pl3 176  ARG176      0.1354
     58  NH2       10.3470   11.3880  -39.6940 N.pl3 176  ARG176      0.1354
     59  N          7.3230   18.3500  -35.4680 N.3   179  GLU179     -0.1245
     60  CA         6.0680   17.6470  -35.1820 C.3   179  GLU179      0.1567
     61  C          5.4440   18.1850  -33.8880 C.2   179  GLU179      0.2260
     62  O          4.2180   18.2450  -33.7730 O.2   179  GLU179     -0.2867
     63  CB         6.3040   16.1380  -35.0920 C.3   179  GLU179      0.0388
     64  CG         6.5180   15.4910  -36.4460 C.3   179  GLU179      0.1160
     65  CD         6.6500   13.9790  -36.4220 C.2   179  GLU179      0.3649
     66  OE1        7.3590   13.4590  -35.5350 O.co2 179  GLU179     -0.2457
     67  OE2        6.0330   13.3230  -37.2890 O.co2 179  GLU179     -0.2457
     68  N          2.1900   -1.1700  -46.2980 N.3   321  PHE321     -0.1241
     69  CA         2.4050    0.2650  -46.5610 C.3   321  PHE321      0.1605
     70  C          2.7390    0.4890  -48.0430 C.2   321  PHE321      0.2264
     71  O          2.3360    1.5010  -48.6140 O.2   321  PHE321     -0.2867
     72  CB         3.5130    0.8060  -45.6470 C.3   321  PHE321      0.0534
     73  CG         4.0130    2.2120  -45.8820 C.ar  321  PHE321     -0.0203
     74  CD1        3.2940    3.3090  -45.4280 C.ar  321  PHE321     -0.0042
     75  CD2        5.2500    2.4380  -46.4770 C.ar  321  PHE321     -0.0042
     76  CE1        3.7840    4.5960  -45.5960 C.ar  321  PHE321     -0.0003
     77  CE2        5.7250    3.7270  -46.6620 C.ar  321  PHE321     -0.0003
     78  CZ         4.9900    4.8040  -46.2240 C.ar  321  PHE321     -0.0000
     79  N         -3.7900    1.9510  -45.7430 N.3   326  PHE326     -0.1228
     80  CA        -3.6340    2.8030  -44.5640 C.3   326  PHE326      0.1721
     81  C         -4.8710    2.6790  -43.6750 C.2   326  PHE326      0.2437
     82  O         -5.9910    2.8280  -44.1610 O.2   326  PHE326     -0.2733
     83  CB        -3.4150    4.2600  -44.9810 C.3   326  PHE326      0.0547
     84  CG        -2.2700    4.4710  -45.9390 C.ar  326  PHE326     -0.0202
     85  CD1       -0.9710    4.6210  -45.4760 C.ar  326  PHE326     -0.0042
     86  CD2       -2.4920    4.5150  -47.3080 C.ar  326  PHE326     -0.0042
     87  CE1        0.0810    4.8000  -46.3620 C.ar  326  PHE326     -0.0003
     88  CE2       -1.4400    4.7030  -48.1910 C.ar  326  PHE326     -0.0003
     89  CZ        -0.1560    4.8460  -47.7170 C.ar  326  PHE326     -0.0000
     90  N         -4.6770    2.4040  -42.3760 N.am  327  PRO327     -0.2729
     91  CA        -3.3870    2.1350  -41.7570 C.3   327  PRO327      0.1401
     92  C         -2.8690    0.7320  -42.1120 C.2   327  PRO327      0.2269
     93  O         -3.6660   -0.1820  -42.3140 O.2   327  PRO327     -0.2865
     94  CB        -3.6700    2.2490  -40.2550 C.3   327  PRO327      0.0296
     95  CG        -5.0820    1.7420  -40.1300 C.3   327  PRO327      0.0237
     96  CD        -5.7610    2.1940  -41.4050 C.3   327  PRO327      0.0939
     97  N         -8.8070    2.4170  -44.4320 N.3   397  GLN397     -0.1245
     98  CA        -9.8150    3.3680  -43.9630 C.3   397  GLN397      0.1566
     99  C         -9.2490    4.7930  -43.9980 C.2   397  GLN397      0.2260
    100  O         -8.0500    4.9990  -43.8250 O.2   397  GLN397     -0.2867
    101  CB       -10.2640    2.9910  -42.5490 C.3   397  GLN397      0.0367
    102  CG       -11.4880    3.7570  -42.0640 C.3   397  GLN397      0.0905
    103  CD       -11.9720    3.2780  -40.7170 C.2   397  GLN397      0.2608
    104  OE1      -11.6440    2.1820  -40.2690 O.2   397  GLN397     -0.2717
    105  NE2      -12.7620    4.1060  -40.0530 N.am  397  GLN397     -0.0878
    106  N         -8.5200    8.4340  -42.5790 N.3   399  MET399     -0.1245
    107  CA        -8.1440    8.9470  -41.2580 C.3   399  MET399      0.1570
    108  C         -8.4790   10.4420  -41.1890 C.2   399  MET399      0.2261
    109  O         -8.2450   11.1780  -42.1490 O.2   399  MET399     -0.2867
    110  CB        -6.6460    8.7460  -41.0000 C.3   399  MET399      0.0387
    111  CG        -6.1420    7.3550  -41.3570 C.3   399  MET399      0.0595
    112  SD        -6.6040    6.0930  -40.1430 S.3   399  MET399     -0.1393
    113  CE        -5.1740    6.1530  -39.0680 C.3   399  MET399      0.0692
    114  N         -5.4050   12.5040  -41.4500 N.3   402  ALA402     -0.1245
    115  CA        -4.8700   12.4530  -42.8110 C.3   402  ALA402      0.1562
    116  C         -5.8610   13.0840  -43.7980 C.2   402  ALA402      0.2260
    117  O         -6.4790   12.3840  -44.6010 O.2   402  ALA402     -0.2867
    118  CB        -4.5500   11.0240  -43.1810 C.3   402  ALA402      0.0290
    119  N         -2.7860   14.4590  -46.3650 N.3   405  PHE405     -0.1227
    120  CA        -2.1550   13.3390  -47.0650 C.3   405  PHE405      0.1736
    121  C         -3.0630   12.8530  -48.2030 C.2   405  PHE405      0.2596
    122  O         -2.6990   12.9590  -49.3760 O.2   405  PHE405     -0.2718
    123  CB        -1.8340   12.2010  -46.0920 C.3   405  PHE405      0.0547
    124  CG        -0.8220   12.5440  -45.0270 C.ar  405  PHE405     -0.0202
    125  CD1        0.4640   12.9370  -45.3680 C.ar  405  PHE405     -0.0042
    126  CD2       -1.1500   12.4590  -43.6820 C.ar  405  PHE405     -0.0042
    127  CE1        1.3930   13.2510  -44.3870 C.ar  405  PHE405     -0.0003
    128  CE2       -0.2190   12.7720  -42.7030 C.ar  405  PHE405     -0.0003
    129  CZ         1.0500   13.1660  -43.0570 C.ar  405  PHE405     -0.0000
    130  N         -4.2390   12.3270  -47.8410 N.am  406  THR406     -0.1953
    131  CA        -5.1600   11.6970  -48.7870 C.3   406  THR406      0.1897
    132  C         -5.8960   12.7760  -49.5900 C.2   406  THR406      0.2313
    133  O         -5.7880   12.8260  -50.8160 O.2   406  THR406     -0.2863
    134  CB        -6.1440   10.7660  -48.0650 C.3   406  THR406      0.1794
    135  OG1       -6.8770   11.5370  -47.1120 O.3   406  THR406     -0.2208
    136  CG2       -5.4580    9.6100  -47.3710 C.3   406  THR406      0.0378
@<TRIPOS>BOND
     1   133   132    2
     2   132   131    1
     3   122   121    2
     4   131   134    1
     5   131   130    1
     6    71    70    2
     7   121   130   am
     8   121   120    1
     9    88    89   ar
    10    88    86   ar
    11   134   136    1
    12   134   135    1
    13    70    69    1
    14    89    87   ar
    15    86    84   ar
    16   120   119    1
    17   120   123    1
    18    77    75   ar
    19    77    78   ar
    20    69    68    1
    21    69    72    1
    22    75    73   ar
    23    87    85   ar
    24    78    76   ar
    25   123   124    1
    26    84    85   ar
    27    84    83    1
    28    73    72    1
    29    73    74   ar
    30    79    80    1
    31    76    74   ar
    32   125   124   ar
    33   125   127   ar
    34   124   126   ar
    35    83    80    1
    36   117   116    2
    37    80    81    1
    38    97    98    1
    39   127   129   ar
    40    82    81    2
    41    99    98    1
    42    99   100    2
    43    98   101    1
    44   116   115    1
    45   126   128   ar
    46    81    90   am
    47     4     3    2
    48   118   115    1
    49   129   128   ar
    50   115   114    1
    51   106   107    1
    52   101   102    1
    53     8     7    2
    54    90    91    1
    55    90    96    1
    56    93    92    2
    57     3     2    1
    58     3     5   am
    59   109   108    2
    60    92    91    1
    61   102   103    1
    62     6     7    1
    63     6     5    1
    64     6     9    1
    65    91    94    1
    66     2     1    1
    67     7    12   am
    68    10     9    1
    69    11     9    1
    70    96    95    1
    71   111   110    1
    72   111   112    1
    73   107   108    1
    74   107   110    1
    75   103   104    2
    76   103   105   am
    77    12    13    1
    78    94    95    1
    79   112   113    1
    80    38    36    1
    81    37    36    1
    82    13    14    1
    83    58    56    1
    84    36    33    1
    85    55    56    2
    86    55    54    1
    87    56    57    1
    88    14    15    2
    89    14    16   am
    90    33    32    1
    91    33    34    1
    92    54    53    1
    93    16    17    1
    94    67    65   ar
    95    32    27   am
    96    34    35    2
    97    24    23    1
    98    53    52    1
    99    64    65    1
   100    64    63    1
   101    65    66   ar
   102    17    18    1
   103    17    20    1
   104    27    26    1
   105    27    28    2
   106    25    18   am
   107    25    26    1
   108    21    20    1
   109    21    22    1
   110    29    26    1
   111    29    30    1
   112    29    31    1
   113    52    49    1
   114    18    19    2
   115    59    60    1
   116    60    63    1
   117    60    61    1
   118    23    22    1
   119    49    50    1
   120    49    48    1
   121    61    62    2
   122    50    51    2
   123    46    45   ar
   124    48    41   am
   125    41    42    2
   126    41    40    1
   127    45    47   ar
   128    45    44    1
   129    40    43    1
   130    40    39    1
   131    43    44    1
