@<TRIPOS>MOLECULE
tmp/6fofE00.pdb
 98 91 0 0 0
SMALL
GASTEIGER

@<TRIPOS>ATOM
      1  N         58.7340   15.7000  261.9840 N.3    47  ARG47      -0.1245
      2  CA        58.0830   16.6810  261.1270 C.3    47  ARG47       0.1563
      3  C         58.3060   16.4460  259.6240 C.2    47  ARG47       0.2260
      4  O         59.2870   15.8460  259.2380 O.2    47  ARG47      -0.2867
      5  CB        58.5500   18.1050  261.4850 C.3    47  ARG47       0.0307
      6  CG        59.9820   18.4860  261.0530 C.3    47  ARG47       0.0489
      7  CD        60.4670   19.7900  261.6960 C.3    47  ARG47       0.2205
      8  NE        59.9450   21.0050  261.0600 N.pl3  47  ARG47      -0.0865
      9  CZ        60.3730   21.5120  259.8890 C.cat  47  ARG47       0.5346
     10  NH1       61.3230   20.8870  259.1860 N.pl3  47  ARG47       0.1354
     11  NH2       59.8290   22.6420  259.3840 N.pl3  47  ARG47       0.1354
     12  N         53.1950   27.3270  253.5660 N.3    61  HIS61      -0.1241
     13  CA        53.9670   26.4320  254.4170 C.3    61  HIS61       0.1621
     14  C         52.9790   25.3310  254.7910 C.2    61  HIS61       0.2264
     15  O         51.8580   25.6360  255.2720 O.2    61  HIS61      -0.2867
     16  CB        54.5020   27.2240  255.6220 C.3    61  HIS61       0.0745
     17  CG        55.2440   26.4280  256.6570 C.ar   61  HIS61       0.0817
     18  ND1       56.5430   25.9980  256.4880 N.ar   61  HIS61      -0.2268
     19  CD2       54.8930   26.0600  257.9190 C.ar   61  HIS61       0.1154
     20  CE1       56.9550   25.3860  257.5890 C.ar   61  HIS61       0.1986
     21  NE2       55.9780   25.4260  258.4770 N.ar   61  HIS61      -0.2212
     22  N         53.0360   21.8720  257.0250 N.3    63  ASN63      -0.1240
     23  CA        53.9260   21.3680  258.0500 C.3    63  ASN63       0.1653
     24  C         53.2550   20.3290  258.9410 C.2    63  ASN63       0.2266
     25  O         52.8670   20.6100  260.0670 O.2    63  ASN63      -0.2867
     26  CB        54.4280   22.5710  258.8550 C.3    63  ASN63       0.1155
     27  CG        55.3190   22.2120  260.0350 C.2    63  ASN63       0.2627
     28  OD1       55.5170   23.0590  260.9100 O.2    63  ASN63      -0.2716
     29  ND2       55.8790   21.0070  260.0660 N.am   63  ASN63      -0.0877
     30  N         53.2320   17.9180  261.7520 N.3    65  ARG65      -0.1245
     31  CA        54.0200   17.6430  262.9630 C.3    65  ARG65       0.1563
     32  C         53.5480   16.3520  263.6430 C.2    65  ARG65       0.2260
     33  O         52.3860   16.2340  263.9660 O.2    65  ARG65      -0.2867
     34  CB        53.9120   18.8290  263.9160 C.3    65  ARG65       0.0307
     35  CG        54.2540   20.1510  263.2760 C.3    65  ARG65       0.0489
     36  CD        54.0830   21.2670  264.2630 C.3    65  ARG65       0.2205
     37  NE        54.3420   22.5510  263.6160 N.pl3  65  ARG65      -0.0865
     38  CZ        54.1340   23.7100  264.2000 C.cat  65  ARG65       0.5346
     39  NH1       53.7290   23.7940  265.4670 N.pl3  65  ARG65       0.1354
     40  NH2       54.4060   24.8020  263.5250 N.pl3  65  ARG65       0.1354
     41  N         53.2130   17.2770  268.7410 N.3    68  GLU68      -0.1245
     42  CA        53.0630   18.5380  269.4510 C.3    68  GLU68       0.1567
     43  C         52.2230   18.2160  270.6890 C.2    68  GLU68       0.2260
     44  O         50.9940   18.0310  270.5590 O.2    68  GLU68      -0.2867
     45  CB        52.3620   19.5690  268.5580 C.3    68  GLU68       0.0388
     46  CG        52.1730   20.9170  269.2600 C.3    68  GLU68       0.1160
     47  CD        51.5650   21.9800  268.3590 C.2    68  GLU68       0.3649
     48  OE1       50.3570   21.8260  268.0180 O.co2  68  GLU68      -0.2457
     49  OE2       52.2740   22.9630  268.0110 O.co2  68  GLU68      -0.2457
     50  N         50.0620   22.1800  260.4120 N.3    75  VAL75      -0.1245
     51  CA        50.0820   23.6080  260.5330 C.3    75  VAL75       0.1561
     52  C         50.3300   24.1720  259.1330 C.2    75  VAL75       0.2260
     53  O         51.2570   23.7210  258.4370 O.2    75  VAL75      -0.2867
     54  CB        51.1880   24.0670  261.4800 C.3    75  VAL75       0.0252
     55  CG1       51.0710   25.5700  261.7360 C.3    75  VAL75       0.0019
     56  CG2       51.1100   23.2980  262.8040 C.3    75  VAL75       0.0019
     57  N         50.5190   27.9790  257.0230 N.3    77  ASN77      -0.1240
     58  CA        50.8120   29.3620  257.2780 C.3    77  ASN77       0.1653
     59  C         51.5560   30.0090  256.1040 C.2    77  ASN77       0.2266
     60  O         51.9030   29.3390  255.1040 O.2    77  ASN77      -0.2867
     61  CB        51.6080   29.5490  258.5980 C.3    77  ASN77       0.1155
     62  CG        51.2820   30.8590  259.2940 C.2    77  ASN77       0.2627
     63  OD1       50.8160   31.8050  258.6550 O.2    77  ASN77      -0.2716
     64  ND2       51.4680   30.9080  260.6050 N.am   77  ASN77      -0.0877
     65  N         55.6840   35.1160  260.5570 N.3    84  TRP84      -0.1241
     66  CA        54.6300   34.1610  260.3590 C.3    84  TRP84       0.1605
     67  C         53.2940   34.8150  260.6090 C.2    84  TRP84       0.2264
     68  O         53.1290   35.5490  261.5790 O.2    84  TRP84      -0.2867
     69  CB        54.8140   32.9670  261.3050 C.3    84  TRP84       0.0550
     70  CG        55.8970   32.0570  260.8170 C.ar   84  TRP84       0.0003
     71  CD1       57.1280   31.9250  261.3540 C.ar   84  TRP84       0.0946
     72  CD2       55.8940   31.2370  259.6070 C.ar   84  TRP84       0.0152
     73  NE1       57.8590   31.0610  260.6120 N.ar   84  TRP84      -0.2442
     74  CE2       57.1420   30.6150  259.5390 C.ar   84  TRP84       0.0810
     75  CE3       54.9470   30.9580  258.6080 C.ar   84  TRP84       0.0012
     76  CZ2       57.4990   29.7200  258.5120 C.ar   84  TRP84       0.0191
     77  CZ3       55.3030   30.0670  257.5570 C.ar   84  TRP84       0.0001
     78  CH2       56.5870   29.4790  257.5240 C.ar   84  TRP84       0.0015
     79  N         47.9280   31.0400  261.8560 N.3    87  GLU87      -0.1245
     80  CA        48.0860   29.5880  261.7320 C.3    87  GLU87       0.1567
     81  C         46.7490   28.9260  261.3690 C.2    87  GLU87       0.2260
     82  O         45.7620   29.2150  261.9710 O.2    87  GLU87      -0.2867
     83  CB        48.6650   28.9530  263.0390 C.3    87  GLU87       0.0388
     84  CG        50.1360   29.3210  263.3020 C.3    87  GLU87       0.1160
     85  CD        50.8240   28.3740  264.2940 C.2    87  GLU87       0.3649
     86  OE1       50.2080   28.0130  265.3370 O.co2  87  GLU87      -0.2457
     87  OE2       51.9760   27.9790  264.0330 O.co2  87  GLU87      -0.2457
     88  N         45.4000   25.2940  261.5140 N.3    89  ARG89      -0.1245
     89  CA        45.8030   24.0770  262.1820 C.3    89  ARG89       0.1563
     90  C         44.7300   23.0820  261.9590 C.2    89  ARG89       0.2260
     91  O         43.5620   23.3790  262.2020 O.2    89  ARG89      -0.2867
     92  CB        45.8950   24.2840  263.6800 C.3    89  ARG89       0.0307
     93  CG        47.1540   24.9570  264.1240 C.3    89  ARG89       0.0489
     94  CD        47.0380   25.5220  265.5360 C.3    89  ARG89       0.2205
     95  NE        48.3870   25.8400  266.0270 N.pl3  89  ARG89      -0.0865
     96  CZ        49.2480   24.9560  266.5190 C.cat  89  ARG89       0.5346
     97  NH1       48.9000   23.6810  266.6950 N.pl3  89  ARG89       0.1354
     98  NH2       50.4440   25.3660  266.9060 N.pl3  89  ARG89       0.1354
@<TRIPOS>BOND
     1    12    13    1
     2    13    14    1
     3    13    16    1
     4    14    15    2
     5    60    59    2
     6    16    17    1
     7    59    58    1
     8    18    17   ar
     9    18    20   ar
    10    17    19   ar
    11    57    58    1
    12    22    23    1
    13    58    61    1
    14    78    77   ar
    15    78    76   ar
    16    77    75   ar
    17    20    21   ar
    18    19    21   ar
    19    23    26    1
    20    23    24    1
    21    53    52    2
    22    76    74   ar
    23    61    62    1
    24    75    72   ar
    25    63    62    2
    26    26    27    1
    27    24    25    2
    28    52    51    1
    29    10     9    1
    30     4     3    2
    31    62    64   am
    32    11     9    1
    33    74    72   ar
    34    74    73   ar
    35    72    70   ar
    36     3     2    1
    37     9     8    2
    38    27    29   am
    39    27    28    2
    40    66    65    1
    41    66    67    1
    42    66    69    1
    43    50    51    1
    44    51    54    1
    45    67    68    2
    46    73    71   ar
    47    70    69    1
    48    70    71   ar
    49     6     5    1
    50     6     7    1
    51     8     7    1
    52     2     5    1
    53     2     1    1
    54    81    80    1
    55    81    82    2
    56    54    55    1
    57    54    56    1
    58    88    89    1
    59    80    79    1
    60    80    83    1
    61    30    31    1
    62    90    89    1
    63    90    91    2
    64    89    92    1
    65    31    32    1
    66    31    34    1
    67    83    84    1
    68    35    34    1
    69    35    36    1
    70    84    85    1
    71    40    38    1
    72    37    38    2
    73    37    36    1
    74    32    33    2
    75    92    93    1
    76    87    85   ar
    77    93    94    1
    78    38    39    1
    79    85    86   ar
    80    94    95    1
    81    95    96    2
    82    96    97    1
    83    96    98    1
    84    49    47   ar
    85    48    47   ar
    86    47    46    1
    87    45    46    1
    88    45    42    1
    89    41    42    1
    90    42    43    1
    91    44    43    2
