@<TRIPOS>MOLECULE
tmp/6fokB07.pdb
 103 102 0 0 0
SMALL
GASTEIGER

@<TRIPOS>ATOM
      1  N         31.4800  175.9900   18.9620 N.3   501  TRP501     -0.1241
      2  CA        32.6130  176.0770   19.8700 C.3   501  TRP501      0.1605
      3  C         32.4890  175.0410   20.9790 C.2   501  TRP501      0.2264
      4  O         31.4130  174.8580   21.5610 O.2   501  TRP501     -0.2867
      5  CB        32.7290  177.4690   20.4810 C.3   501  TRP501      0.0550
      6  CG        33.2850  178.4840   19.5340 C.ar  501  TRP501      0.0003
      7  CD1       32.5770  179.3680   18.7710 C.ar  501  TRP501      0.0946
      8  CD2       34.6670  178.7220   19.2470 C.ar  501  TRP501      0.0152
      9  NE1       33.4390  180.1460   18.0300 N.ar  501  TRP501     -0.2442
     10  CE2       34.7250  179.7730   18.3090 C.ar  501  TRP501      0.0810
     11  CE3       35.8590  178.1550   19.6940 C.ar  501  TRP501      0.0012
     12  CZ2       35.9240  180.2420   17.7930 C.ar  501  TRP501      0.0191
     13  CZ3       37.0520  178.6290   19.1910 C.ar  501  TRP501      0.0001
     14  CH2       37.0760  179.6720   18.2550 C.ar  501  TRP501      0.0015
     15  N         34.8690  173.5100   24.4300 N.3   503  THR503     -0.1218
     16  CA        36.0290  173.6410   25.2890 C.3   503  THR503      0.1862
     17  C         36.1270  172.3730   26.1200 C.2   503  THR503      0.2287
     18  O         35.1150  171.7400   26.4320 O.2   503  THR503     -0.2866
     19  CB        35.9460  174.8850   26.1820 C.3   503  THR503      0.1770
     20  OG1       37.2190  175.1230   26.7950 O.3   503  THR503     -0.2211
     21  CG2       34.8790  174.7110   27.2600 C.3   503  THR503      0.0375
     22  N         44.1130  171.9360   28.4300 N.3   531  PHE531     -0.1227
     23  CA        42.9640  172.8150   28.1990 C.3   531  PHE531      0.1736
     24  C         42.8400  173.0680   26.7080 C.2   531  PHE531      0.2596
     25  O         43.7650  173.6070   26.0920 O.2   531  PHE531     -0.2718
     26  CB        43.1100  174.1320   28.9540 C.3   531  PHE531      0.0547
     27  CG        43.2640  173.9670   30.4280 C.ar  531  PHE531     -0.0202
     28  CD1       44.5130  174.0300   31.0180 C.ar  531  PHE531     -0.0042
     29  CD2       42.1570  173.7520   31.2290 C.ar  531  PHE531     -0.0042
     30  CE1       44.6550  173.8740   32.3920 C.ar  531  PHE531     -0.0003
     31  CE2       42.2920  173.6020   32.5960 C.ar  531  PHE531     -0.0003
     32  CZ        43.5410  173.6660   33.1740 C.ar  531  PHE531     -0.0000
     33  N         41.7180  172.6600   26.1280 N.am  532  GLY532     -0.1942
     34  CA        41.5300  172.7190   24.6950 C.3   532  GLY532      0.2014
     35  C         40.3300  173.5610   24.3070 C.2   532  GLY532      0.2638
     36  O         39.3670  173.6880   25.0650 O.2   532  GLY532     -0.2714
     37  N         40.4010  174.1320   23.1070 N.am  533  LEU533     -0.1977
     38  CA        39.3050  174.8520   22.4720 C.3   533  LEU533      0.1596
     39  C         39.1620  174.3190   21.0550 C.2   533  LEU533      0.2287
     40  O         40.1610  174.1760   20.3440 O.2   533  LEU533     -0.2864
     41  CB        39.5870  176.3600   22.4480 C.3   533  LEU533      0.0297
     42  CG        38.6820  177.3390   23.1950 C.3   533  LEU533      0.0022
     43  CD1       39.0920  178.7590   22.8270 C.3   533  LEU533      0.0001
     44  CD2       37.2160  177.1060   22.8800 C.3   533  LEU533      0.0001
     45  N         39.1720  174.4020   13.6890 N.3   542  ALA542     -0.1231
     46  CA        40.3870  174.8870   14.3180 C.3   542  ALA542      0.1694
     47  C         40.4380  174.3550   15.7400 C.2   542  ALA542      0.2593
     48  O         39.4170  173.9880   16.3260 O.2   542  ALA542     -0.2718
     49  CB        40.4670  176.4170   14.3170 C.3   542  ALA542      0.0304
     50  N         41.6390  174.3340   16.2870 N.am  543  GLY543     -0.1942
     51  CA        41.8450  173.8340   17.6320 C.3   543  GLY543      0.2014
     52  C         43.0320  174.5230   18.2480 C.2   543  GLY543      0.2639
     53  O         43.9550  174.9570   17.5510 O.2   543  GLY543     -0.2714
     54  N         42.9860  174.6600   19.5660 N.am  544  SER544     -0.1949
     55  CA        44.1190  175.1350   20.3350 C.3   544  SER544      0.1924
     56  C         44.1760  174.3100   21.6070 C.2   544  SER544      0.2314
     57  O         43.1680  173.7640   22.0520 O.2   544  SER544     -0.2863
     58  CB        44.0190  176.6310   20.6710 C.3   544  SER544      0.2116
     59  OG        42.7980  176.9240   21.3390 O.3   544  SER544     -0.2180
     60  N         46.3850  174.1710   25.4850 N.3   546  TRP546     -0.1241
     61  CA        47.4010  174.4350   26.4920 C.3   546  TRP546      0.1605
     62  C         47.6740  173.1370   27.2400 C.2   546  TRP546      0.2264
     63  O         46.7410  172.4870   27.7110 O.2   546  TRP546     -0.2867
     64  CB        46.9620  175.5000   27.4980 C.3   546  TRP546      0.0550
     65  CG        47.2800  176.9010   27.1050 C.ar  546  TRP546      0.0003
     66  CD1       46.3950  177.8440   26.6620 C.ar  546  TRP546      0.0946
     67  CD2       48.5700  177.5350   27.1230 C.ar  546  TRP546      0.0152
     68  NE1       47.0540  179.0260   26.4040 N.ar  546  TRP546     -0.2442
     69  CE2       48.3860  178.8660   26.6780 C.ar  546  TRP546      0.0810
     70  CE3       49.8590  177.1090   27.4590 C.ar  546  TRP546      0.0012
     71  CZ2       49.4400  179.7720   26.5710 C.ar  546  TRP546      0.0191
     72  CZ3       50.9100  178.0100   27.3560 C.ar  546  TRP546      0.0001
     73  CH2       50.6910  179.3340   26.9160 C.ar  546  TRP546      0.0015
     74  N         51.9100  175.5940   24.2820 N.3   576  PHE576     -0.1241
     75  CA        50.6960  175.9080   23.5440 C.3   576  PHE576      0.1605
     76  C         50.8280  175.4810   22.0920 C.2   576  PHE576      0.2264
     77  O         51.8720  175.6880   21.4650 O.2   576  PHE576     -0.2867
     78  CB        50.4050  177.4490   23.6090 C.3   576  PHE576      0.0534
     79  CG        49.1550  177.8690   22.8870 C.ar  576  PHE576     -0.0203
     80  CD1       47.9150  177.7330   23.4840 C.ar  576  PHE576     -0.0042
     81  CD2       49.2240  178.4280   21.6120 C.ar  576  PHE576     -0.0042
     82  CE1       46.7520  178.1450   22.8230 C.ar  576  PHE576     -0.0003
     83  CE2       48.0730  178.8420   20.9450 C.ar  576  PHE576     -0.0003
     84  CZ        46.8350  178.6930   21.5470 C.ar  576  PHE576     -0.0000
     85  N         48.3580  175.0370   18.2280 N.3   578  LEU578     -0.1245
     86  CA        47.1880  175.5420   17.5260 C.3   578  LEU578      0.1561
     87  C         47.1520  174.9010   16.1520 C.2   578  LEU578      0.2260
     88  O         48.1970  174.7010   15.5340 O.2   578  LEU578     -0.2867
     89  CB        47.2410  177.0860   17.4230 C.3   578  LEU578      0.0270
     90  CG        46.4410  177.8220   16.3490 C.3   578  LEU578      0.0019
     91  CD1       44.9480  177.7200   16.6030 C.3   578  LEU578      0.0001
     92  CD2       46.8880  179.2920   16.2770 C.3   578  LEU578      0.0001
     93  N         55.0890  179.2390   21.5520 N.3   598  PHE598     -0.1241
     94  CA        55.9070  180.2220   22.2360 C.3   598  PHE598      0.1605
     95  C         57.3500  179.7730   22.4330 C.2   598  PHE598      0.2264
     96  O         58.1020  180.4550   23.1370 O.2   598  PHE598     -0.2867
     97  CB        55.2180  180.6110   23.5410 C.3   598  PHE598      0.0534
     98  CG        53.8090  181.0880   23.3150 C.ar  598  PHE598     -0.0203
     99  CD1       53.5780  182.2650   22.5940 C.ar  598  PHE598     -0.0042
    100  CD2       52.7230  180.3550   23.7510 C.ar  598  PHE598     -0.0042
    101  CE1       52.2920  182.7090   22.3370 C.ar  598  PHE598     -0.0003
    102  CE2       51.4260  180.7950   23.5030 C.ar  598  PHE598     -0.0003
    103  CZ        51.2110  181.9760   22.7930 C.ar  598  PHE598     -0.0000
@<TRIPOS>BOND
     1    45    46    1
     2    49    46    1
     3    46    47    1
     4    88    87    2
     5    47    50   am
     6    47    48    2
     7    87    86    1
     8    92    90    1
     9    50    51    1
    10    90    91    1
    11    90    89    1
    12    89    86    1
    13    86    85    1
    14    53    52    2
    15    51    52    1
    16    12    14   ar
    17    12    10   ar
    18     9    10   ar
    19     9     7   ar
    20    52    54   am
    21    14    13   ar
    22    10     8   ar
    23     7     6   ar
    24     1     2    1
    25    13    11   ar
    26     8     6   ar
    27     8    11   ar
    28     6     5    1
    29    54    55    1
    30     2     5    1
    31     2     3    1
    32    55    58    1
    33    55    56    1
    34    40    39    2
    35    58    59    1
    36    83    84   ar
    37    83    81   ar
    38     3     4    2
    39    39    38    1
    40    77    76    2
    41    84    82   ar
    42    93    94    1
    43    56    57    2
    44    81    79   ar
    45    76    75    1
    46    94    95    1
    47    94    97    1
    48   101    99   ar
    49   101   103   ar
    50    95    96    2
    51    41    38    1
    52    41    42    1
    53    38    37    1
    54    99    98   ar
    55   103   102   ar
    56    82    80   ar
    57    43    42    1
    58    44    42    1
    59    79    80   ar
    60    79    78    1
    61    37    35   am
    62    98    97    1
    63    98   100   ar
    64   102   100   ar
    65    75    78    1
    66    75    74    1
    67    35    34    1
    68    35    36    2
    69    15    16    1
    70    34    33    1
    71    16    17    1
    72    16    19    1
    73    60    61    1
    74    25    24    2
    75    17    18    2
    76    33    24   am
    77    19    20    1
    78    19    21    1
    79    68    66   ar
    80    68    69   ar
    81    61    62    1
    82    61    64    1
    83    71    69   ar
    84    71    73   ar
    85    66    65   ar
    86    69    67   ar
    87    24    23    1
    88    73    72   ar
    89    65    67   ar
    90    65    64    1
    91    67    70   ar
    92    62    63    2
    93    72    70   ar
    94    23    22    1
    95    23    26    1
    96    26    27    1
    97    27    28   ar
    98    27    29   ar
    99    28    30   ar
   100    29    31   ar
   101    30    32   ar
   102    31    32   ar
