@<TRIPOS>MOLECULE
tmp/6fokB04.pdb
 83 83 0 0 0
SMALL
GASTEIGER

@<TRIPOS>ATOM
      1  N         54.3120  160.0770    4.5510 N.3   129  LYS129     -0.1231
      2  CA        53.3190  159.6600    3.5770 C.3   129  LYS129      0.1693
      3  C         52.6780  158.3620    4.0370 C.2   129  LYS129      0.2592
      4  O         53.3700  157.4500    4.5020 O.2   129  LYS129     -0.2718
      5  CB        53.9270  159.4970    2.1760 C.3   129  LYS129      0.0285
      6  CG        55.1540  158.6300    2.1180 C.3   129  LYS129      0.0035
      7  CD        55.4080  158.1130    0.7150 C.3   129  LYS129      0.0206
      8  CE        56.2460  159.0810   -0.0920 C.3   129  LYS129      0.1093
      9  NZ        57.2370  158.3420   -0.9290 N.3   129  LYS129     -0.1314
     10  N         51.3520  158.2920    3.9080 N.am  130  VAL130     -0.1966
     11  CA        50.5390  157.1850    4.3960 C.3   130  VAL130      0.1727
     12  C         49.5750  156.7930    3.2910 C.2   130  VAL130      0.2616
     13  O         49.0090  157.6600    2.6160 O.2   130  VAL130     -0.2715
     14  CB        49.7610  157.5670    5.6770 C.3   130  VAL130      0.0290
     15  CG1       48.7800  156.4740    6.0690 C.3   130  VAL130      0.0023
     16  CG2       50.7140  157.8640    6.8160 C.3   130  VAL130      0.0023
     17  N         49.3940  155.4880    3.1000 N.am  131  LEU131     -0.1977
     18  CA        48.4510  154.9550    2.1250 C.3   131  LEU131      0.1596
     19  C         47.7190  153.7710    2.7410 C.2   131  LEU131      0.2287
     20  O         48.3420  152.9080    3.3690 O.2   131  LEU131     -0.2864
     21  CB        49.1650  154.5230    0.8370 C.3   131  LEU131      0.0297
     22  CG        48.3250  153.8790   -0.2740 C.3   131  LEU131      0.0022
     23  CD1       47.4830  154.9060   -1.0180 C.3   131  LEU131      0.0001
     24  CD2       49.2150  153.1190   -1.2470 C.3   131  LEU131      0.0001
     25  N         45.8930  146.9230    1.1860 N.3   144  PHE144     -0.1241
     26  CA        47.2850  147.2960    1.3570 C.3   144  PHE144      0.1605
     27  C         47.3720  148.5070    2.2640 C.2   144  PHE144      0.2264
     28  O         46.6060  149.4660    2.1230 O.2   144  PHE144     -0.2867
     29  CB        48.0020  147.6170    0.0410 C.3   144  PHE144      0.0534
     30  CG        49.3730  148.2030    0.2520 C.ar  144  PHE144     -0.0203
     31  CD1       50.4700  147.3770    0.4570 C.ar  144  PHE144     -0.0042
     32  CD2       49.5610  149.5780    0.2980 C.ar  144  PHE144     -0.0042
     33  CE1       51.7380  147.9090    0.6800 C.ar  144  PHE144     -0.0003
     34  CE2       50.8190  150.1150    0.5240 C.ar  144  PHE144     -0.0003
     35  CZ        51.9140  149.2770    0.7120 C.ar  144  PHE144     -0.0000
     36  N         50.4300  151.0800    4.1530 N.3   146  GLY146     -0.1210
     37  CA        51.8370  151.4160    4.2160 C.3   146  GLY146      0.1956
     38  C         52.0640  152.8540    4.6180 C.2   146  GLY146      0.2612
     39  O         51.1760  153.7100    4.5110 O.2   146  GLY146     -0.2717
     40  N         53.2810  153.1130    5.0720 N.am  147  ASN147     -0.1960
     41  CA        53.6900  154.4750    5.3600 C.3   147  ASN147      0.1819
     42  C         55.1970  154.5680    5.2300 C.2   147  ASN147      0.2621
     43  O         55.9170  153.5610    5.2520 O.2   147  ASN147     -0.2715
     44  CB        53.2380  154.9320    6.7510 C.3   147  ASN147      0.1195
     45  CG        54.1290  154.4170    7.8520 C.2   147  ASN147      0.2630
     46  OD1       54.1100  153.2250    8.1710 O.2   147  ASN147     -0.2716
     47  ND2       54.9240  155.3110    8.4440 N.am  147  ASN147     -0.0877
     48  N         55.6560  155.8000    5.0750 N.am  148  HIS148     -0.1973
     49  CA        57.0690  156.1330    5.0880 C.3   148  HIS148      0.1656
     50  C         57.1740  157.5170    5.7000 C.2   148  HIS148      0.2291
     51  O         56.4830  158.4390    5.2540 O.2   148  HIS148     -0.2864
     52  CB        57.6650  156.1040    3.6800 C.3   148  HIS148      0.0771
     53  CG        59.1450  156.3090    3.6570 C.ar  148  HIS148      0.0820
     54  ND1       59.7350  157.5000    4.0190 N.ar  148  HIS148     -0.2267
     55  CD2       60.1580  155.4670    3.3390 C.ar  148  HIS148      0.1154
     56  CE1       61.0480  157.3890    3.9160 C.ar  148  HIS148      0.1986
     57  NE2       61.3310  156.1630    3.5090 N.ar  148  HIS148     -0.2212
     58  N         59.5260  152.9600    7.9100 N.3   169  TRP169     -0.1227
     59  CA        58.4770  152.6270    6.9570 C.3   169  TRP169      0.1737
     60  C         57.8890  151.2680    7.2990 C.2   169  TRP169      0.2595
     61  O         58.5140  150.4540    7.9830 O.2   169  TRP169     -0.2718
     62  CB        58.9950  152.6500    5.5160 C.3   169  TRP169      0.0564
     63  CG        60.0900  151.6810    5.2430 C.ar  169  TRP169      0.0003
     64  CD1       61.4280  151.9350    5.2650 C.ar  169  TRP169      0.0946
     65  CD2       59.9430  150.2990    4.8940 C.ar  169  TRP169      0.0152
     66  NE1       62.1270  150.7970    4.9510 N.ar  169  TRP169     -0.2442
     67  CE2       61.2390  149.7760    4.7180 C.ar  169  TRP169      0.0810
     68  CE3       58.8420  149.4580    4.6990 C.ar  169  TRP169      0.0012
     69  CZ2       61.4680  148.4390    4.3790 C.ar  169  TRP169      0.0191
     70  CZ3       59.0650  148.1260    4.3580 C.ar  169  TRP169      0.0001
     71  CH2       60.3700  147.6320    4.2030 C.ar  169  TRP169      0.0015
     72  N         56.6740  151.0470    6.8080 N.am  170  ASN170     -0.1960
     73  CA        55.9440  149.7990    6.9320 C.3   170  ASN170      0.1819
     74  C         55.2050  149.5380    5.6380 C.2   170  ASN170      0.2621
     75  O         54.8340  150.4730    4.9210 O.2   170  ASN170     -0.2715
     76  CB        54.9080  149.8260    8.0580 C.3   170  ASN170      0.1195
     77  CG        55.5230  150.0900    9.3960 C.2   170  ASN170      0.2630
     78  OD1       56.0630  149.1760   10.0330 O.2   170  ASN170     -0.2716
     79  ND2       55.4420  151.3380    9.8500 N.am  170  ASN170     -0.0877
     80  N         54.9650  148.2620    5.3650 N.am  171  GLY171     -0.1954
     81  CA        54.1170  147.8500    4.2650 C.3   171  GLY171      0.1869
     82  C         53.4260  146.5650    4.6700 C.2   171  GLY171      0.2309
     83  O         54.1060  145.6130    5.0640 O.2   171  GLY171     -0.2863
@<TRIPOS>BOND
     1    24    22    1
     2    23    22    1
     3     9     8    1
     4    22    21    1
     5     8     7    1
     6    29    30    1
     7    29    26    1
     8    30    32   ar
     9    30    31   ar
    10    32    34   ar
    11    31    33   ar
    12    34    35   ar
    13    33    35   ar
    14     7     6    1
    15    21    18    1
    16    25    26    1
    17    26    27    1
    18     6     5    1
    19    28    27    2
    20    18    19    1
    21    18    17    1
    22     5     2    1
    23    13    12    2
    24    19    20    2
    25    17    12   am
    26    12    11    1
    27    55    57   ar
    28    55    53   ar
    29    57    56   ar
    30     2     3    1
    31     2     1    1
    32    53    52    1
    33    53    54   ar
    34    52    49    1
    35    10     3   am
    36    10    11    1
    37    56    54   ar
    38     3     4    2
    39    36    37    1
    40    71    70   ar
    41    71    69   ar
    42    37    38    1
    43    81    82    1
    44    81    80    1
    45    70    68   ar
    46    69    67   ar
    47    11    14    1
    48    39    38    2
    49    38    40   am
    50    82    83    2
    51    68    65   ar
    52    67    65   ar
    53    67    66   ar
    54    65    63   ar
    55    75    74    2
    56    66    64   ar
    57    40    41    1
    58    48    49    1
    59    48    42   am
    60    49    50    1
    61    42    43    2
    62    42    41    1
    63    63    64   ar
    64    63    62    1
    65    51    50    2
    66    41    44    1
    67    80    74   am
    68    62    59    1
    69    74    73    1
    70    14    15    1
    71    14    16    1
    72    44    45    1
    73    72    73    1
    74    72    60   am
    75    73    76    1
    76    59    60    1
    77    59    58    1
    78    60    61    2
    79    45    46    2
    80    45    47   am
    81    76    77    1
    82    77    79   am
    83    77    78    2
