@<TRIPOS>MOLECULE
tmp/6fokB03.pdb
 75 72 0 0 0
SMALL
GASTEIGER

@<TRIPOS>ATOM
      1  N         41.6640  130.0070   25.1550 N.3   288  VAL288     -0.1231
      2  CA        43.0410  129.6810   25.4940 C.3   288  VAL288      0.1692
      3  C         43.9460  130.4810   24.5750 C.2   288  VAL288      0.2592
      4  O         43.5540  130.9000   23.4870 O.2   288  VAL288     -0.2718
      5  CB        43.3700  128.1710   25.3600 C.3   288  VAL288      0.0266
      6  CG1       42.6050  127.3510   26.3910 C.3   288  VAL288      0.0020
      7  CG2       43.0780  127.6820   23.9450 C.3   288  VAL288      0.0020
      8  N         45.1670  130.7070   25.0350 N.am  289  ASP289     -0.1960
      9  CA        46.1610  131.3860   24.2300 C.3   289  ASP289      0.1840
     10  C         47.5170  130.7790   24.5400 C.2   289  ASP289      0.2621
     11  O         47.7000  130.0950   25.5510 O.2   289  ASP289     -0.2715
     12  CB        46.1620  132.9130   24.4630 C.3   289  ASP289      0.1450
     13  CG        46.1540  133.3150   25.9500 C.2   289  ASP289      0.3671
     14  OD1       46.9570  132.7720   26.7490 O.co2 289  ASP289     -0.2456
     15  OD2       45.3630  134.2250   26.3110 O.co2 289  ASP289     -0.2456
     16  N         48.4690  131.0280   23.6510 N.am  290  ALA290     -0.1977
     17  CA        49.8190  130.5130   23.8200 C.3   290  ALA290      0.1597
     18  C         50.7850  131.4310   23.0960 C.2   290  ALA290      0.2287
     19  O         50.4210  132.0770   22.1170 O.2   290  ALA290     -0.2864
     20  CB        49.9630  129.0960   23.2720 C.3   290  ALA290      0.0319
     21  N         51.2940  129.7350   28.3070 N.3   326  TYR326     -0.1227
     22  CA        50.0520  129.0590   27.9600 C.3   326  TYR326      0.1736
     23  C         49.0030  129.5380   28.9390 C.2   326  TYR326      0.2596
     24  O         49.2610  129.5690   30.1400 O.2   326  TYR326     -0.2718
     25  CB        50.1540  127.5230   28.0730 C.3   326  TYR326      0.0548
     26  CG        51.2770  126.9320   27.2850 C.ar  326  TYR326     -0.0200
     27  CD1       51.1190  126.6460   25.9360 C.ar  326  TYR326     -0.0009
     28  CD2       52.5040  126.6560   27.8820 C.ar  326  TYR326     -0.0009
     29  CE1       52.1550  126.1030   25.1920 C.ar  326  TYR326      0.0417
     30  CE2       53.5510  126.1120   27.1430 C.ar  326  TYR326      0.0417
     31  CZ        53.3660  125.8370   25.7980 C.ar  326  TYR326      0.1957
     32  OH        54.3900  125.3020   25.0500 O.3   326  TYR326     -0.2866
     33  N         47.8240  129.8790   28.4500 N.am  327  GLY327     -0.1942
     34  CA        46.8040  130.4520   29.3050 C.3   327  GLY327      0.2014
     35  C         45.4330  129.9080   28.9750 C.2   327  GLY327      0.2638
     36  O         45.1640  129.4920   27.8560 O.2   327  GLY327     -0.2714
     37  N         44.5710  129.9040   29.9800 N.am  328  ALA328     -0.1977
     38  CA        43.1510  129.6230   29.8290 C.3   328  ALA328      0.1597
     39  C         42.3980  130.7400   30.5280 C.2   328  ALA328      0.2287
     40  O         42.7680  131.1320   31.6370 O.2   328  ALA328     -0.2864
     41  CB        42.7710  128.2530   30.4390 C.3   328  ALA328      0.0319
     42  N         44.2970  131.5350   34.1130 N.3   348  LEU348     -0.1231
     43  CA        45.4030  130.8050   34.7180 C.3   348  LEU348      0.1693
     44  C         46.4600  130.6430   33.6410 C.2   348  LEU348      0.2592
     45  O         46.1630  130.1510   32.5530 O.2   348  LEU348     -0.2718
     46  CB        44.9410  129.4510   35.2700 C.3   348  LEU348      0.0284
     47  CG        45.8720  128.6710   36.2130 C.3   348  LEU348      0.0019
     48  CD1       46.2240  129.4930   37.4510 C.3   348  LEU348      0.0001
     49  CD2       45.2270  127.3260   36.6080 C.3   348  LEU348      0.0001
     50  N         47.6750  131.0830   33.9410 N.am  349  ASP349     -0.1960
     51  CA        48.7860  131.1220   33.0060 C.3   349  ASP349      0.1840
     52  C         49.9050  130.2160   33.4940 C.2   349  ASP349      0.2621
     53  O         50.2390  130.2140   34.6800 O.2   349  ASP349     -0.2715
     54  CB        49.3530  132.5360   32.8810 C.3   349  ASP349      0.1450
     55  CG        48.4510  133.4600   32.0950 C.2   349  ASP349      0.3671
     56  OD1       48.2910  133.2210   30.8730 O.co2 349  ASP349     -0.2456
     57  OD2       47.9150  134.4230   32.7070 O.co2 349  ASP349     -0.2456
     58  N         50.5200  129.5120   32.5680 N.am  350  ARG350     -0.1977
     59  CA        51.7430  128.7650   32.8300 C.3   350  ARG350      0.1597
     60  C         52.8530  129.4310   32.0310 C.2   350  ARG350      0.2287
     61  O         52.8370  129.4080   30.8020 O.2   350  ARG350     -0.2864
     62  CB        51.5780  127.3020   32.4320 C.3   350  ARG350      0.0334
     63  CG        52.8880  126.5290   32.3600 C.3   350  ARG350      0.0492
     64  CD        53.3180  126.0140   33.7310 C.3   350  ARG350      0.2205
     65  NE        54.5400  125.2150   33.6180 N.pl3 350  ARG350     -0.0865
     66  CZ        55.2970  124.8410   34.6470 C.cat 350  ARG350      0.5346
     67  NH1       54.9670  125.1930   35.8900 N.pl3 350  ARG350      0.1354
     68  NH2       56.3920  124.1220   34.4280 N.pl3 350  ARG350      0.1354
     69  N         53.1300  129.2090   37.8220 N.3   378  THR378     -0.1218
     70  CA        51.7230  129.1190   37.4610 C.3   378  THR378      0.1862
     71  C         51.0160  130.2570   38.1740 C.2   378  THR378      0.2287
     72  O         51.0780  130.3490   39.4030 O.2   378  THR378     -0.2866
     73  CB        51.1450  127.7610   37.8610 C.3   378  THR378      0.1770
     74  OG1       51.8960  126.7230   37.2100 O.3   378  THR378     -0.2211
     75  CG2       49.6740  127.6550   37.4430 C.3   378  THR378      0.0375
@<TRIPOS>BOND
     1    19    18    2
     2    18    17    1
     3    20    17    1
     4     4     3    2
     5    16    17    1
     6    16    10   am
     7     7     5    1
     8     9    12    1
     9     9    10    1
    10     9     8    1
    11    12    13    1
    12    10    11    2
    13     3     8   am
    14     3     2    1
    15    32    31    1
    16     1     2    1
    17    29    31   ar
    18    29    27   ar
    19     5     2    1
    20     5     6    1
    21    31    30   ar
    22    27    26   ar
    23    13    15   ar
    24    13    14   ar
    25    30    28   ar
    26    26    28   ar
    27    26    25    1
    28    36    35    2
    29    22    25    1
    30    22    21    1
    31    22    23    1
    32    33    23   am
    33    33    34    1
    34    23    24    2
    35    35    34    1
    36    35    37   am
    37    38    37    1
    38    38    41    1
    39    38    39    1
    40    39    40    2
    41    61    60    2
    42    56    55   ar
    43    60    59    1
    44    55    57   ar
    45    55    54    1
    46    63    62    1
    47    63    64    1
    48    62    59    1
    49    45    44    2
    50    58    59    1
    51    58    52   am
    52    54    51    1
    53    51    52    1
    54    51    50    1
    55    52    53    2
    56    65    64    1
    57    65    66    2
    58    44    50   am
    59    44    43    1
    60    42    43    1
    61    68    66    1
    62    66    67    1
    63    43    46    1
    64    46    47    1
    65    47    49    1
    66    47    48    1
    67    74    73    1
    68    75    73    1
    69    70    69    1
    70    70    73    1
    71    70    71    1
    72    71    72    2
