@<TRIPOS>MOLECULE
tmp/6fokB02.pdb
 72 68 0 0 0
SMALL
GASTEIGER

@<TRIPOS>ATOM
      1  N         29.2680  134.9200   28.0330 N.3   284  LEU284     -0.1245
      2  CA        30.4480  134.2000   28.4970 C.3   284  LEU284      0.1561
      3  C         31.4580  134.1310   27.3650 C.2   284  LEU284      0.2260
      4  O         31.1440  133.6210   26.2870 O.2   284  LEU284     -0.2867
      5  CB        30.0830  132.7880   28.9650 C.3   284  LEU284      0.0270
      6  CG        31.2210  131.8500   29.3740 C.3   284  LEU284      0.0019
      7  CD1       31.9090  132.3140   30.6570 C.3   284  LEU284      0.0001
      8  CD2       30.7030  130.4250   29.5280 C.3   284  LEU284      0.0001
      9  N         35.1900  132.4610   26.6120 N.3   286  THR286     -0.1218
     10  CA        36.0680  131.4350   27.1540 C.3   286  THR286      0.1862
     11  C         37.0990  131.0630   26.0910 C.2   286  THR286      0.2287
     12  O         36.7650  130.9700   24.9090 O.2   286  THR286     -0.2866
     13  CB        35.2360  130.2160   27.6110 C.3   286  THR286      0.1770
     14  OG1       35.9560  129.4790   28.6020 O.3   286  THR286     -0.2211
     15  CG2       34.8860  129.2970   26.4440 C.3   286  THR286      0.0375
     16  N         41.3530  131.2670   29.8920 N.3   329  PHE329     -0.1227
     17  CA        40.6760  132.4250   30.4540 C.3   329  PHE329      0.1736
     18  C         39.1670  132.3040   30.2950 C.2   329  PHE329      0.2596
     19  O         38.6620  131.5810   29.4370 O.2   329  PHE329     -0.2718
     20  CB        41.1610  133.7290   29.8110 C.3   329  PHE329      0.0547
     21  CG        41.0430  133.7450   28.3130 C.ar  329  PHE329     -0.0202
     22  CD1       39.8440  134.0800   27.6990 C.ar  329  PHE329     -0.0042
     23  CD2       42.1310  133.4210   27.5200 C.ar  329  PHE329     -0.0042
     24  CE1       39.7360  134.0860   26.3220 C.ar  329  PHE329     -0.0003
     25  CE2       42.0330  133.4440   26.1520 C.ar  329  PHE329     -0.0003
     26  CZ        40.8360  133.7760   25.5500 C.ar  329  PHE329     -0.0000
     27  N         38.4520  133.0470   31.1390 N.am  330  GLY330     -0.1957
     28  CA        37.0020  133.1070   31.0740 C.3   330  GLY330      0.1869
     29  C         36.4940  134.4250   31.6240 C.2   330  GLY330      0.2309
     30  O         37.0380  134.9250   32.6110 O.2   330  GLY330     -0.2863
     31  N         32.6900  136.3190   32.3970 N.3   332  LEU332     -0.1245
     32  CA        31.2400  136.1860   32.4740 C.3   332  LEU332      0.1561
     33  C         30.6190  137.5470   32.7590 C.2   332  LEU332      0.2260
     34  O         31.0220  138.2300   33.7090 O.2   332  LEU332     -0.2867
     35  CB        30.8510  135.2000   33.5700 C.3   332  LEU332      0.0270
     36  CG        29.3580  134.9930   33.8170 C.3   332  LEU332      0.0019
     37  CD1       28.7490  134.2020   32.6720 C.3   332  LEU332      0.0001
     38  CD2       29.1630  134.2730   35.1230 C.3   332  LEU332      0.0001
     39  N         32.7870  139.3240   35.7160 N.3   344  GLY344     -0.1210
     40  CA        33.8740  138.6780   36.4220 C.3   344  GLY344      0.1956
     41  C         34.7600  137.9240   35.4570 C.2   344  GLY344      0.2612
     42  O         34.2520  137.3320   34.5050 O.2   344  GLY344     -0.2717
     43  N         36.0700  137.9460   35.6640 N.am  345  GLY345     -0.1942
     44  CA        36.9810  137.2480   34.7760 C.3   345  GLY345      0.2014
     45  C         38.0680  136.5450   35.5640 C.2   345  GLY345      0.2638
     46  O         38.4560  136.9860   36.6450 O.2   345  GLY345     -0.2714
     47  N         38.5600  135.4470   34.9990 N.am  346  LEU346     -0.1977
     48  CA        39.6250  134.6410   35.5890 C.3   346  LEU346      0.1596
     49  C         40.5470  134.1620   34.4890 C.2   346  LEU346      0.2287
     50  O         40.0940  133.8370   33.3920 O.2   346  LEU346     -0.2864
     51  CB        39.0840  133.3900   36.3150 C.3   346  LEU346      0.0297
     52  CG        38.1060  133.6030   37.4560 C.3   346  LEU346      0.0022
     53  CD1       37.6120  132.2600   37.9580 C.3   346  LEU346      0.0001
     54  CD2       38.7690  134.3870   38.5630 C.3   346  LEU346      0.0001
     55  N         39.3790  139.4770   37.9190 N.3   383  PHE383     -0.1227
     56  CA        38.7890  140.7400   38.3390 C.3   383  PHE383      0.1736
     57  C         37.2880  140.5610   38.5260 C.2   383  PHE383      0.2595
     58  O         36.6850  139.6220   38.0060 O.2   383  PHE383     -0.2718
     59  CB        39.0620  141.8480   37.3150 C.3   383  PHE383      0.0547
     60  CG        38.3250  141.6390   36.0420 C.ar  383  PHE383     -0.0202
     61  CD1       38.8160  140.7740   35.0810 C.ar  383  PHE383     -0.0042
     62  CD2       37.1000  142.2500   35.8300 C.ar  383  PHE383     -0.0042
     63  CE1       38.1220  140.5340   33.9330 C.ar  383  PHE383     -0.0003
     64  CE2       36.3950  142.0160   34.6650 C.ar  383  PHE383     -0.0003
     65  CZ        36.9040  141.1660   33.7170 C.ar  383  PHE383     -0.0000
     66  N         36.6920  141.4880   39.2660 N.am  384  VAL384     -0.1980
     67  CA        35.2390  141.6320   39.3060 C.3   384  VAL384      0.1595
     68  C         34.9350  143.1120   39.1540 C.2   384  VAL384      0.2287
     69  O         35.6610  143.9610   39.6960 O.2   384  VAL384     -0.2864
     70  CB        34.6220  141.0450   40.6000 C.3   384  VAL384      0.0276
     71  CG1       35.1210  141.7760   41.8340 C.3   384  VAL384      0.0022
     72  CG2       33.0860  141.0460   40.5420 C.3   384  VAL384      0.0022
@<TRIPOS>BOND
     1    12    11    2
     2    26    25   ar
     3    26    24   ar
     4    11    10    1
     5    25    23   ar
     6     4     3    2
     7    24    22   ar
     8    15    13    1
     9     9    10    1
    10    10    13    1
    11     3     2    1
    12    23    21   ar
    13    13    14    1
    14    22    21   ar
    15     1     2    1
    16    21    20    1
    17     2     5    1
    18     5     6    1
    19     6     8    1
    20     6     7    1
    21    19    18    2
    22    20    17    1
    23    16    17    1
    24    18    17    1
    25    18    27   am
    26    28    27    1
    27    28    29    1
    28    29    30    2
    29    31    32    1
    30    32    33    1
    31    32    35    1
    32    37    36    1
    33    33    34    2
    34    50    49    2
    35    35    36    1
    36    65    63   ar
    37    65    64   ar
    38    36    38    1
    39    63    61   ar
    40    49    48    1
    41    42    41    2
    42    64    62   ar
    43    44    45    1
    44    44    43    1
    45    47    45   am
    46    47    48    1
    47    61    60   ar
    48    41    43   am
    49    41    40    1
    50    45    46    2
    51    48    51    1
    52    39    40    1
    53    62    60   ar
    54    60    59    1
    55    51    52    1
    56    59    56    1
    57    52    53    1
    58    52    54    1
    59    55    56    1
    60    58    57    2
    61    56    57    1
    62    57    66   am
    63    68    67    1
    64    68    69    2
    65    66    67    1
    66    67    70    1
    67    72    70    1
    68    70    71    1
