@<TRIPOS>MOLECULE
tmp/6fomB01.pdb
 102 101 0 0 0
SMALL
GASTEIGER

@<TRIPOS>ATOM
      1  N         68.2860   79.2960  294.5420 N.3   138  ALA138     -0.1231
      2  CA        69.4810   79.6770  295.2700 C.3   138  ALA138      0.1694
      3  C         69.7170   78.6460  296.3500 C.2   138  ALA138      0.2593
      4  O         68.7650   78.1370  296.9520 O.2   138  ALA138     -0.2718
      5  CB        69.3500   81.0790  295.8840 C.3   138  ALA138      0.0304
      6  N         70.9830   78.3440  296.5930 N.am  139  GLY139     -0.1942
      7  CA        71.2830   77.2860  297.5380 C.3   139  GLY139      0.2014
      8  C         72.7350   77.3030  297.9610 C.2   139  GLY139      0.2639
      9  O         73.5370   78.1240  297.5080 O.2   139  GLY139     -0.2714
     10  N         73.0640   76.3400  298.8160 N.am  140  SER140     -0.1949
     11  CA        74.3820   76.1990  299.4190 C.3   140  SER140      0.1924
     12  C         75.5060   76.2810  298.4010 C.2   140  SER140      0.2314
     13  O         75.2800   76.0730  297.2060 O.2   140  SER140     -0.2863
     14  CB        74.4350   74.8810  300.1630 C.3   140  SER140      0.2116
     15  OG        73.1710   74.6550  300.7550 O.3   140  SER140     -0.2180
     16  N         49.6390   73.2060  299.6790 N.3   547  TRP547     -0.1241
     17  CA        51.0350   73.0440  300.0310 C.3   547  TRP547      0.1605
     18  C         51.2850   71.5770  300.3390 C.2   547  TRP547      0.2264
     19  O         50.3480   70.7780  300.4560 O.2   547  TRP547     -0.2867
     20  CB        51.3900   73.9360  301.2110 C.3   547  TRP547      0.0550
     21  CG        50.6100   73.5780  302.4130 C.ar  547  TRP547      0.0003
     22  CD1       49.3200   73.9270  302.6810 C.ar  547  TRP547      0.0946
     23  CD2       51.0580   72.7880  303.5260 C.ar  547  TRP547      0.0152
     24  NE1       48.9290   73.4010  303.8920 N.ar  547  TRP547     -0.2442
     25  CE2       49.9810   72.7070  304.4380 C.ar  547  TRP547      0.0810
     26  CE3       52.2650   72.1440  303.8420 C.ar  547  TRP547      0.0012
     27  CZ2       50.0770   72.0090  305.6560 C.ar  547  TRP547      0.0191
     28  CZ3       52.3560   71.4450  305.0400 C.ar  547  TRP547      0.0001
     29  CH2       51.2650   71.3820  305.9320 C.ar  547  TRP547      0.0015
     30  N         54.5630   68.7010  302.0550 N.3   549  ALA549     -0.1245
     31  CA        55.8690   68.3620  302.6010 C.3   549  ALA549      0.1562
     32  C         56.1640   66.8970  302.3020 C.2   549  ALA549      0.2260
     33  O         55.2480   66.0690  302.2120 O.2   549  ALA549     -0.2867
     34  CB        55.9290   68.6020  304.1030 C.3   549  ALA549      0.0290
     35  N         64.6150   66.1230  302.9950 N.3   585  LEU585     -0.1231
     36  CA        63.2840   66.6590  303.2660 C.3   585  LEU585      0.1693
     37  C         62.9690   67.7760  302.2800 C.2   585  LEU585      0.2592
     38  O         63.8710   68.4370  301.7460 O.2   585  LEU585     -0.2718
     39  CB        63.1320   67.2220  304.6920 C.3   585  LEU585      0.0284
     40  CG        63.3630   66.3260  305.8970 C.3   585  LEU585      0.0019
     41  CD1       63.8570   67.1590  307.0650 C.3   585  LEU585      0.0001
     42  CD2       62.0780   65.6070  306.2540 C.3   585  LEU585      0.0001
     43  N         61.6700   67.9910  302.0530 N.am  586  ASN586     -0.1960
     44  CA        61.2570   69.0990  301.2010 C.3   586  ASN586      0.1819
     45  C         59.8120   69.4900  301.4920 C.2   586  ASN586      0.2621
     46  O         59.0410   68.7410  302.1090 O.2   586  ASN586     -0.2715
     47  CB        61.4460   68.7860  299.6990 C.3   586  ASN586      0.1195
     48  CG        60.6050   67.6090  299.2190 C.2   586  ASN586      0.2630
     49  OD1       59.4390   67.7700  298.8510 O.2   586  ASN586     -0.2716
     50  ND2       61.2070   66.4330  299.1820 N.am  586  ASN586     -0.0877
     51  N         59.4750   70.6930  301.0310 N.am  587  GLY587     -0.1954
     52  CA        58.1170   71.1940  301.0670 C.3   587  GLY587      0.1869
     53  C         57.9110   72.2150  299.9650 C.2   587  GLY587      0.2309
     54  O         58.8680   72.7880  299.4160 O.2   587  GLY587     -0.2863
     55  N         61.4000   74.3110  298.5480 N.3   599  ALA599     -0.1231
     56  CA        62.6910   74.2930  299.2030 C.3   599  ALA599      0.1694
     57  C         62.9250   72.8850  299.7150 C.2   599  ALA599      0.2593
     58  O         61.9940   72.0810  299.7970 O.2   599  ALA599     -0.2718
     59  CB        62.7500   75.3260  300.3330 C.3   599  ALA599      0.0304
     60  N         64.1800   72.5930  300.0400 N.am  600  GLY600     -0.1942
     61  CA        64.5300   71.2800  300.5410 C.3   600  GLY600      0.2014
     62  C         65.9190   71.2660  301.1260 C.2   600  GLY600      0.2638
     63  O         66.7390   72.1500  300.8630 O.2   600  GLY600     -0.2714
     64  N         66.1790   70.2430  301.9270 N.am  601  VAL601     -0.1977
     65  CA        67.5110   69.9790  302.4500 C.3   601  VAL601      0.1596
     66  C         67.9400   68.6080  301.9260 C.2   601  VAL601      0.2287
     67  O         67.2460   67.6060  302.1520 O.2   601  VAL601     -0.2864
     68  CB        67.5540   70.0850  303.9900 C.3   601  VAL601      0.0276
     69  CG1       66.7290   68.9900  304.6690 C.3   601  VAL601      0.0022
     70  CG2       68.9960   70.0710  304.4850 C.3   601  VAL601      0.0022
     71  N         71.3900   73.0020  301.0740 N.3   636  PHE636     -0.1227
     72  CA        70.0880   73.6500  301.1310 C.3   636  PHE636      0.1736
     73  C         69.7980   74.3490  299.8180 C.2   636  PHE636      0.2595
     74  O         70.6940   74.9170  299.1960 O.2   636  PHE636     -0.2718
     75  CB        70.0430   74.7000  302.2540 C.3   636  PHE636      0.0547
     76  CG        69.9770   74.1220  303.6450 C.ar  636  PHE636     -0.0202
     77  CD1       71.1270   73.6640  304.2770 C.ar  636  PHE636     -0.0042
     78  CD2       68.7580   74.0450  304.3190 C.ar  636  PHE636     -0.0042
     79  CE1       71.0620   73.1350  305.5490 C.ar  636  PHE636     -0.0003
     80  CE2       68.6800   73.5180  305.6120 C.ar  636  PHE636     -0.0003
     81  CZ        69.8300   73.0650  306.2330 C.ar  636  PHE636     -0.0000
     82  N         68.5280   74.3660  299.4300 N.am  637  TRP637     -0.1962
     83  CA        68.1220   75.0400  298.2060 C.3   637  TRP637      0.1771
     84  C         66.6840   75.5160  298.3690 C.2   637  TRP637      0.2620
     85  O         65.8820   74.8900  299.0660 O.2   637  TRP637     -0.2715
     86  CB        68.2510   74.1070  296.9780 C.3   637  TRP637      0.0590
     87  CG        67.4040   72.8580  297.1040 C.ar  637  TRP637      0.0006
     88  CD1       67.7870   71.6530  297.6130 C.ar  637  TRP637      0.0946
     89  CD2       66.0330   72.7050  296.7120 C.ar  637  TRP637      0.0152
     90  NE1       66.7350   70.7620  297.5850 N.ar  637  TRP637     -0.2442
     91  CE2       65.6490   71.3860  297.0340 C.ar  637  TRP637      0.0810
     92  CE3       65.0910   73.5570  296.1260 C.ar  637  TRP637      0.0012
     93  CZ2       64.3700   70.9040  296.7840 C.ar  637  TRP637      0.0191
     94  CZ3       63.8240   73.0790  295.8890 C.ar  637  TRP637      0.0001
     95  CH2       63.4710   71.7670  296.2180 C.ar  637  TRP637      0.0015
     96  N         66.3810   76.6430  297.7210 N.am  638  THR638     -0.1951
     97  CA        65.0380   77.2130  297.6490 C.3   638  THR638      0.1897
     98  C         64.7940   77.6790  296.2220 C.2   638  THR638      0.2313
     99  O         65.7290   78.1210  295.5380 O.2   638  THR638     -0.2863
    100  CB        64.8580   78.3970  298.6150 C.3   638  THR638      0.1794
    101  OG1       65.4100   78.0440  299.8940 O.3   638  THR638     -0.2208
    102  CG2       63.3700   78.7680  298.7590 C.3   638  THR638      0.0378
@<TRIPOS>BOND
     1     1     2    1
     2     2     5    1
     3     2     3    1
     4    99    98    2
     5    94    92   ar
     6    94    95   ar
     7    92    89   ar
     8    95    93   ar
     9    98    97    1
    10     3     6   am
    11     3     4    2
    12     6     7    1
    13    89    91   ar
    14    89    87   ar
    15    93    91   ar
    16    86    87    1
    17    86    83    1
    18    91    90   ar
    19    87    88   ar
    20    13    12    2
    21     9     8    2
    22     7     8    1
    23    90    88   ar
    24    97    96    1
    25    97   100    1
    26    96    84   am
    27     8    10   am
    28    83    84    1
    29    83    82    1
    30    84    85    2
    31    12    11    1
    32    55    56    1
    33   100   102    1
    34   100   101    1
    35    10    11    1
    36    49    48    2
    37    50    48   am
    38    74    73    2
    39    56    57    1
    40    56    59    1
    41    48    47    1
    42    54    53    2
    43    11    14    1
    44    82    73   am
    45    16    17    1
    46    47    44    1
    47    57    58    2
    48    57    60   am
    49    73    72    1
    50    53    52    1
    51    17    18    1
    52    17    20    1
    53    60    61    1
    54    14    15    1
    55    18    19    2
    56    61    62    1
    57    63    62    2
    58    51    52    1
    59    51    45   am
    60    71    72    1
    61    62    64   am
    62    72    75    1
    63    44    45    1
    64    44    43    1
    65    20    21    1
    66    45    46    2
    67    38    37    2
    68    66    67    2
    69    66    65    1
    70    64    65    1
    71    43    37   am
    72    30    31    1
    73    33    32    2
    74    75    76    1
    75    37    36    1
    76    32    31    1
    77    21    22   ar
    78    21    23   ar
    79    65    68    1
    80    31    34    1
    81    22    24   ar
    82    35    36    1
    83    36    39    1
    84    23    26   ar
    85    23    25   ar
    86    76    77   ar
    87    76    78   ar
    88    26    28   ar
    89    24    25   ar
    90    68    70    1
    91    68    69    1
    92    77    79   ar
    93    78    80   ar
    94    25    27   ar
    95    39    40    1
    96    28    29   ar
    97    79    81   ar
    98    80    81   ar
    99    27    29   ar
   100    40    42    1
   101    40    41    1
