@<TRIPOS>MOLECULE
tmp/6fomA00.pdb
 80 72 0 0 0
SMALL
GASTEIGER

@<TRIPOS>ATOM
      1  N         74.5460   11.6870  220.6510 N.3   141  SER141     -0.1217
      2  CA        75.8750   11.7900  220.0630 C.3   141  SER141      0.1889
      3  C         76.9590   11.5830  221.1100 C.2   141  SER141      0.2288
      4  O         76.7670   11.8670  222.2900 O.2   141  SER141     -0.2866
      5  CB        76.0630   13.1600  219.4070 C.3   141  SER141      0.2089
      6  OG        74.8640   13.6350  218.8170 O.3   141  SER141     -0.2183
      7  N         82.4300   17.1730  221.0100 N.3   173  GLU173     -0.1231
      8  CA        83.2140   18.0070  220.1120 C.3   173  GLU173      0.1699
      9  C         82.5350   19.3490  219.9230 C.2   173  GLU173      0.2592
     10  O         81.3340   19.5000  220.1580 O.2   173  GLU173     -0.2718
     11  CB        83.4430   17.2750  218.7940 C.3   173  GLU173      0.0402
     12  CG        84.0620   15.9170  219.1210 C.3   173  GLU173      0.1161
     13  CD        83.6310   14.7790  218.2300 C.2   173  GLU173      0.3649
     14  OE1       82.8460   15.0060  217.2580 O.co2 173  GLU173     -0.2457
     15  OE2       84.0790   13.6430  218.5530 O.co2 173  GLU173     -0.2457
     16  N         83.3180   20.3350  219.5320 N.am  174  ASP174     -0.1974
     17  CA        82.7890   21.6800  219.4080 C.3   174  ASP174      0.1709
     18  C         82.2960   21.9200  217.9760 C.2   174  ASP174      0.2293
     19  O         82.1970   20.9980  217.1550 O.2   174  ASP174     -0.2864
     20  CB        83.8570   22.6690  219.8580 C.3   174  ASP174      0.1436
     21  CG        85.1070   22.5800  219.0260 C.2   174  ASP174      0.3671
     22  OD1       85.0800   21.8650  218.0040 O.co2 174  ASP174     -0.2456
     23  OD2       86.1340   23.1870  219.4140 O.co2 174  ASP174     -0.2456
     24  N         85.1700   20.9640  215.2220 N.3   177  GLY177     -0.1225
     25  CA        85.6410   19.6150  214.9590 C.3   177  GLY177      0.1811
     26  C         86.6090   19.0200  215.9630 C.2   177  GLY177      0.2280
     27  O         86.9930   17.8590  215.7940 O.2   177  GLY177     -0.2866
     28  N         66.2890   22.1130  217.0610 N.3   592  LEU592     -0.1245
     29  CA        65.0350   21.4630  216.7350 C.3   592  LEU592      0.1561
     30  C         64.7790   20.3440  217.7410 C.2   592  LEU592      0.2260
     31  O         65.7110   19.7910  218.3370 O.2   592  LEU592     -0.2867
     32  CB        65.0780   20.8950  215.3100 C.3   592  LEU592      0.0270
     33  CG        65.4210   21.8480  214.1630 C.3   592  LEU592      0.0019
     34  CD1       66.1220   21.0580  213.0700 C.3   592  LEU592      0.0001
     35  CD2       64.1840   22.5070  213.6130 C.3   592  LEU592      0.0001
     36  N         67.8000   17.8910  217.9380 N.3   608  VAL608     -0.1245
     37  CA        69.0870   18.3020  217.3990 C.3   608  VAL608      0.1561
     38  C         69.4690   19.5860  218.0990 C.2   608  VAL608      0.2260
     39  O         68.7660   20.5970  217.9610 O.2   608  VAL608     -0.2867
     40  CB        69.0400   18.5340  215.8810 C.3   608  VAL608      0.0252
     41  CG1       70.4380   18.8620  215.3600 C.3   608  VAL608      0.0019
     42  CG2       68.4970   17.3190  215.1850 C.3   608  VAL608      0.0019
     43  N         71.9820   22.9880  215.5460 N.3   611  LEU611     -0.1245
     44  CA        71.8410   22.4180  214.2040 C.3   611  LEU611      0.1561
     45  C         72.9610   22.8800  213.2810 C.2   611  LEU611      0.2260
     46  O         73.5250   22.0760  212.5250 O.2   611  LEU611     -0.2867
     47  CB        70.4820   22.7950  213.6160 C.3   611  LEU611      0.0270
     48  CG        70.1120   22.2950  212.2300 C.3   611  LEU611      0.0019
     49  CD1       69.9640   20.7960  212.2780 C.3   611  LEU611      0.0001
     50  CD2       68.8270   22.9360  211.7300 C.3   611  LEU611      0.0001
     51  N         75.9870   23.7400  213.8430 N.3   613  ASP613     -0.1239
     52  CA        77.3490   23.3730  214.2630 C.3   613  ASP613      0.1674
     53  C         78.1840   24.6140  214.5990 C.2   613  ASP613      0.2266
     54  O         79.3510   24.7390  214.2070 O.2   613  ASP613     -0.2867
     55  CB        78.0210   22.5320  213.1700 C.3   613  ASP613      0.1410
     56  CG        79.1950   21.6930  213.6760 C.2   613  ASP613      0.3668
     57  OD1       80.3140   21.9040  213.1310 O.co2 613  ASP613     -0.2456
     58  OD2       78.9970   20.8230  214.5690 O.co2 613  ASP613     -0.2456
     59  N         77.1200   20.4510  217.0970 N.3   641  ARG641     -0.1245
     60  CA        75.8590   19.7770  216.7930 C.3   641  ARG641      0.1563
     61  C         75.8010   18.4310  217.4920 C.2   641  ARG641      0.2260
     62  O         76.7640   17.6540  217.4630 O.2   641  ARG641     -0.2867
     63  CB        75.6710   19.5820  215.2910 C.3   641  ARG641      0.0307
     64  CG        74.3460   18.8600  214.9260 C.3   641  ARG641      0.0489
     65  CD        74.2270   18.4500  213.4300 C.3   641  ARG641      0.2205
     66  NE        74.8120   19.4670  212.5590 N.pl3 641  ARG641     -0.0865
     67  CZ        75.8460   19.2710  211.7460 C.cat 641  ARG641      0.5346
     68  NH1       76.4110   18.0690  211.6570 N.pl3 641  ARG641      0.1354
     69  NH2       76.3130   20.2820  211.0090 N.pl3 641  ARG641      0.1354
     70  N         72.8630   15.1390  218.5880 N.3   643  PHE643     -0.1241
     71  CA        71.5920   14.4460  218.4360 C.3   643  PHE643      0.1605
     72  C         71.3210   13.6140  219.6840 C.2   643  PHE643      0.2264
     73  O         72.2480   13.0590  220.2810 O.2   643  PHE643     -0.2867
     74  CB        71.5970   13.4860  217.2340 C.3   643  PHE643      0.0534
     75  CG        71.5760   14.1580  215.8970 C.ar  643  PHE643     -0.0203
     76  CD1       72.7510   14.6470  215.3350 C.ar  643  PHE643     -0.0042
     77  CD2       70.3850   14.2840  215.1870 C.ar  643  PHE643     -0.0042
     78  CE1       72.7350   15.2570  214.1020 C.ar  643  PHE643     -0.0003
     79  CE2       70.3600   14.8890  213.9350 C.ar  643  PHE643     -0.0003
     80  CZ        71.5230   15.3830  213.3960 C.ar  643  PHE643     -0.0000
@<TRIPOS>BOND
     1    69    67    1
     2    68    67    1
     3    50    48    1
     4    67    66    2
     5    48    49    1
     6    48    47    1
     7    46    45    2
     8    66    65    1
     9    34    33    1
    10    57    56   ar
    11    55    56    1
    12    55    52    1
    13    45    44    1
    14    80    79   ar
    15    80    78   ar
    16    65    64    1
    17    35    33    1
    18    47    44    1
    19    56    58   ar
    20    51    52    1
    21    79    77   ar
    22    78    76   ar
    23    33    32    1
    24    44    43    1
    25    54    53    2
    26    52    53    1
    27    64    63    1
    28    25    24    1
    29    25    26    1
    30    42    40    1
    31    77    75   ar
    32    63    60    1
    33    32    29    1
    34    76    75   ar
    35    41    40    1
    36    27    26    2
    37    40    37    1
    38    75    74    1
    39    29    28    1
    40    29    30    1
    41    60    59    1
    42    60    61    1
    43    19    18    2
    44    74    71    1
    45    14    13   ar
    46    37    36    1
    47    37    38    1
    48    62    61    2
    49    30    31    2
    50    39    38    2
    51    18    17    1
    52    22    21   ar
    53    13    15   ar
    54    13    12    1
    55    71    70    1
    56    71    72    1
    57    11    12    1
    58    11     8    1
    59     6     5    1
    60    21    23   ar
    61    21    20    1
    62     5     2    1
    63    17    16    1
    64    17    20    1
    65    16     9   am
    66    72    73    2
    67     9     8    1
    68     9    10    2
    69     2     1    1
    70     2     3    1
    71     8     7    1
    72     3     4    2
