@<TRIPOS>MOLECULE
tmp/6fomA01.pdb
 82 78 0 0 0
SMALL
GASTEIGER

@<TRIPOS>ATOM
      1  N         65.0830    6.1870  229.2170 N.3   137  LEU137     -0.1231
      2  CA        66.3090    5.7790  228.5650 C.3   137  LEU137      0.1693
      3  C         66.5850    6.8320  227.5010 C.2   137  LEU137      0.2592
      4  O         65.6670    7.2290  226.7760 O.2   137  LEU137     -0.2718
      5  CB        66.1510    4.3700  227.9790 C.3   137  LEU137      0.0284
      6  CG        66.1280    3.1750  228.9560 C.3   137  LEU137      0.0019
      7  CD1       64.7740    2.9860  229.6160 C.3   137  LEU137      0.0001
      8  CD2       66.4870    1.8780  228.2700 C.3   137  LEU137      0.0001
      9  N         67.8270    7.3180  227.4380 N.am  138  LEU138     -0.1966
     10  CA        68.2530    8.3340  226.4750 C.3   138  LEU138      0.1728
     11  C         69.5720    7.9260  225.8450 C.2   138  LEU138      0.2616
     12  O         70.4230    7.3190  226.4880 O.2   138  LEU138     -0.2715
     13  CB        68.4510    9.7110  227.1170 C.3   138  LEU138      0.0311
     14  CG        68.9930   10.8560  226.2430 C.3   138  LEU138      0.0022
     15  CD1       68.2550   12.1780  226.5320 C.3   138  LEU138      0.0001
     16  CD2       70.5300   11.0300  226.3180 C.3   138  LEU138      0.0001
     17  N         69.7350    8.2550  224.5770 N.am  139  ALA139     -0.1977
     18  CA        70.9990    8.0100  223.9060 C.3   139  ALA139      0.1597
     19  C         71.2230    9.1550  222.9300 C.2   139  ALA139      0.2287
     20  O         70.2680    9.7640  222.4400 O.2   139  ALA139     -0.2864
     21  CB        71.0090    6.6450  223.2170 C.3   139  ALA139      0.0319
     22  N         74.4040    8.2270  227.2160 N.3   145  PHE145     -0.1241
     23  CA        73.1670    7.5590  227.5590 C.3   145  PHE145      0.1605
     24  C         72.8020    7.9380  228.9870 C.2   145  PHE145      0.2264
     25  O         73.6830    8.0830  229.8370 O.2   145  PHE145     -0.2867
     26  CB        73.2570    6.0420  227.3680 C.3   145  PHE145      0.0534
     27  CG        74.2750    5.3580  228.2360 C.ar  145  PHE145     -0.0203
     28  CD1       75.4630    4.8760  227.6860 C.ar  145  PHE145     -0.0042
     29  CD2       74.0090    5.1130  229.5870 C.ar  145  PHE145     -0.0042
     30  CE1       76.3770    4.1980  228.4760 C.ar  145  PHE145     -0.0003
     31  CE2       74.9130    4.4580  230.3780 C.ar  145  PHE145     -0.0003
     32  CZ        76.0920    3.9890  229.8260 C.ar  145  PHE145     -0.0000
     33  N         70.0160    6.6300  231.9580 N.3   147  LYS147     -0.1245
     34  CA        69.0510    5.6450  232.4250 C.3   147  LYS147      0.1561
     35  C         68.6070    6.0710  233.8220 C.2   147  LYS147      0.2260
     36  O         69.4480    6.3890  234.6710 O.2   147  LYS147     -0.2867
     37  CB        69.6720    4.2490  232.4950 C.3   147  LYS147      0.0271
     38  CG        70.3040    3.6800  231.2270 C.3   147  LYS147      0.0035
     39  CD        70.4770    2.1580  231.3860 C.3   147  LYS147      0.0206
     40  CE        71.9500    1.6810  231.3460 C.3   147  LYS147      0.1093
     41  NZ        72.3650    0.7060  232.4770 N.3   147  LYS147     -0.1314
     42  N         71.7200    5.9460  236.0690 N.3   166  HIS166     -0.1241
     43  CA        73.0320    5.7410  235.4700 C.3   166  HIS166      0.1621
     44  C         73.1280    6.6460  234.2460 C.2   166  HIS166      0.2264
     45  O         72.1910    6.6940  233.4420 O.2   166  HIS166     -0.2867
     46  CB        73.2310    4.2720  235.0910 C.3   166  HIS166      0.0745
     47  CG        74.6250    3.9430  234.6680 C.ar  166  HIS166      0.0817
     48  ND1       74.9050    3.2510  233.5070 N.ar  166  HIS166     -0.2268
     49  CD2       75.8210    4.2260  235.2360 C.ar  166  HIS166      0.1154
     50  CE1       76.2140    3.1160  233.3830 C.ar  166  HIS166      0.1986
     51  NE2       76.7920    3.6970  234.4190 N.ar  166  HIS166     -0.2212
     52  N         57.8170    9.4700  223.4570 N.3   604  LEU604     -0.1245
     53  CA        59.0520    9.4760  222.6830 C.3   604  LEU604      0.1561
     54  C         59.4750   10.9060  222.3890 C.2   604  LEU604      0.2260
     55  O         58.6460   11.7400  222.0270 O.2   604  LEU604     -0.2867
     56  CB        58.8800    8.7060  221.3660 C.3   604  LEU604      0.0270
     57  CG        58.7380    7.1840  221.4000 C.3   604  LEU604      0.0019
     58  CD1       58.6140    6.6960  219.9890 C.3   604  LEU604      0.0001
     59  CD2       59.9260    6.5360  222.0420 C.3   604  LEU604      0.0001
     60  N         67.8660   11.0760  221.6080 N.3   645  THR645     -0.1203
     61  CA        66.5020   10.5690  221.6590 C.3   645  THR645      0.1994
     62  C         66.2930    9.8540  222.9910 C.2   645  THR645      0.2618
     63  O         67.2220    9.2790  223.5680 O.2   645  THR645     -0.2717
     64  CB        66.1930    9.6320  220.4730 C.3   645  THR645      0.1784
     65  OG1       64.8380    9.1670  220.5610 O.3   645  THR645     -0.2211
     66  CG2       67.1440    8.4380  220.4650 C.3   645  THR645      0.0376
     67  N         65.0510    9.9190  223.4910 N.am  646  LYS646     -0.1965
     68  CA        64.7050    9.4560  224.8340 C.3   646  LYS646      0.1728
     69  C         63.2840    8.8940  224.8810 C.2   646  LYS646      0.2616
     70  O         62.3320    9.5250  224.4080 O.2   646  LYS646     -0.2715
     71  CB        64.8750   10.6020  225.8680 C.3   646  LYS646      0.0311
     72  CG        64.0930   10.4400  227.1940 C.3   646  LYS646      0.0038
     73  CD        64.6490   11.2410  228.4030 C.3   646  LYS646      0.0206
     74  CE        65.8030   10.4770  229.1460 C.3   646  LYS646      0.1093
     75  NZ        66.4000   11.0440  230.4460 N.3   646  LYS646     -0.1314
     76  N         63.1470    7.7000  225.4490 N.am  647  VAL647     -0.1977
     77  CA        61.8580    7.0530  225.6590 C.3   647  VAL647      0.1596
     78  C         61.5260    7.1450  227.1400 C.2   647  VAL647      0.2287
     79  O         62.4130    7.0060  227.9930 O.2   647  VAL647     -0.2864
     80  CB        61.8710    5.5820  225.1870 C.3   647  VAL647      0.0276
     81  CG1       62.8250    4.7450  226.0350 C.3   647  VAL647      0.0022
     82  CG2       60.4970    4.9630  225.2810 C.3   647  VAL647      0.0022
@<TRIPOS>BOND
     1    58    57    1
     2    66    64    1
     3    64    65    1
     4    64    61    1
     5    56    57    1
     6    56    53    1
     7    57    59    1
     8    60    61    1
     9    61    62    1
    10    55    54    2
    11    54    53    1
    12    20    19    2
    13    53    52    1
    14    19    18    1
    15    62    67   am
    16    62    63    2
    17    21    18    1
    18    67    68    1
    19    18    17    1
    20    70    69    2
    21    17    11   am
    22    68    69    1
    23    68    71    1
    24    69    76   am
    25    80    82    1
    26    80    77    1
    27    80    81    1
    28    76    77    1
    29    77    78    1
    30    11    10    1
    31    11    12    2
    32    71    72    1
    33    14    16    1
    34    14    15    1
    35    14    13    1
    36    10    13    1
    37    10     9    1
    38     4     3    2
    39    78    79    2
    40    72    73    1
    41    22    23    1
    42    26    23    1
    43    26    27    1
    44     9     3   am
    45     3     2    1
    46    23    24    1
    47    28    27   ar
    48    28    30   ar
    49     5     2    1
    50     5     6    1
    51    27    29   ar
    52     8     6    1
    53    73    74    1
    54    30    32   ar
    55     2     1    1
    56     6     7    1
    57    24    25    2
    58    74    75    1
    59    29    31   ar
    60    32    31   ar
    61    38    39    1
    62    38    37    1
    63    40    39    1
    64    40    41    1
    65    33    34    1
    66    34    37    1
    67    34    35    1
    68    50    48   ar
    69    50    51   ar
    70    45    44    2
    71    48    47   ar
    72    35    36    2
    73    44    43    1
    74    51    49   ar
    75    47    46    1
    76    47    49   ar
    77    46    43    1
    78    43    42    1
