@<TRIPOS>MOLECULE
tmp/6fopA03.pdb
 95 93 0 0 0
SMALL
GASTEIGER

@<TRIPOS>ATOM
      1  N         -8.2350  -21.9070   30.1080 N.3   307  PRO307     -0.2102
      2  CA        -8.1170  -22.1740   28.6620 C.3   307  PRO307      0.1504
      3  C         -9.2410  -23.0510   28.1160 C.2   307  PRO307      0.2575
      4  O         -9.3710  -23.1800   26.9100 O.2   307  PRO307     -0.2718
      5  CB        -6.7660  -22.8890   28.5510 C.3   307  PRO307      0.0282
      6  CG        -6.5890  -23.5310   29.8760 C.3   307  PRO307      0.0208
      7  CD        -7.1860  -22.5920   30.8780 C.3   307  PRO307      0.0893
      8  N        -10.0120  -23.6400   29.0150 N.am  308  ASN308     -0.1975
      9  CA       -11.1290  -24.5380   28.7150 C.3   308  ASN308      0.1688
     10  C        -11.7180  -24.9770   30.0410 C.2   308  ASN308      0.2292
     11  O        -11.0560  -24.9330   31.0660 O.2   308  ASN308     -0.2864
     12  CB       -10.6790  -25.7790   27.9200 C.3   308  ASN308      0.1181
     13  CG        -9.5410  -26.5440   28.5980 C.2   308  ASN308      0.2629
     14  OD1       -8.3620  -26.2250   28.4230 O.2   308  ASN308     -0.2716
     15  ND2       -9.8890  -27.5790   29.3460 N.am  308  ASN308     -0.0877
     16  N         -9.7140  -28.9670   23.1870 N.3   354  PRO354     -0.2116
     17  CA        -9.4850  -29.6070   24.4880 C.3   354  PRO354      0.1372
     18  C        -10.4970  -30.7120   24.8060 C.2   354  PRO354      0.2244
     19  O        -10.1750  -31.6360   25.5810 O.2   354  PRO354     -0.2868
     20  CB        -9.6030  -28.4540   25.4850 C.3   354  PRO354      0.0268
     21  CG       -10.3350  -27.4010   24.7590 C.3   354  PRO354      0.0207
     22  CD        -9.9530  -27.5270   23.3260 C.3   354  PRO354      0.0892
     23  N         -9.2700  -33.8250   23.2610 N.3   357  GLU357     -0.1231
     24  CA        -8.1570  -34.3300   24.0560 C.3   357  GLU357      0.1699
     25  C         -8.6530  -35.0300   25.3190 C.2   357  GLU357      0.2592
     26  O         -8.1960  -36.1440   25.6560 O.2   357  GLU357     -0.2718
     27  CB        -7.2080  -33.1960   24.4420 C.3   357  GLU357      0.0402
     28  CG        -6.4630  -32.6230   23.2510 C.3   357  GLU357      0.1161
     29  CD        -5.7430  -31.3420   23.5190 C.2   357  GLU357      0.3649
     30  OE1       -6.1480  -30.6330   24.4570 O.co2 357  GLU357     -0.2457
     31  OE2       -4.8050  -31.0410   22.7410 O.co2 357  GLU357     -0.2457
     32  N         -9.6310  -34.4380   25.9900 N.am  358  GLN358     -0.1979
     33  CA       -10.2130  -35.0420   27.2210 C.3   358  GLN358      0.1601
     34  C        -10.8230  -36.4150   26.9460 C.2   358  GLN358      0.2287
     35  O        -10.7700  -37.3040   27.8030 O.2   358  GLN358     -0.2864
     36  CB       -11.2810  -34.1310   27.8200 C.3   358  GLN358      0.0394
     37  CG       -10.7000  -32.8650   28.4320 C.3   358  GLN358      0.0908
     38  CD       -11.7480  -31.8290   28.7820 C.2   358  GLN358      0.2608
     39  OE1      -12.9450  -32.0050   28.5760 O.2   358  GLN358     -0.2717
     40  NE2      -11.2840  -30.7150   29.2970 N.am  358  GLN358     -0.0878
     41  N         -0.0870  -23.1920   24.2100 N.3   432  LEU432     -0.1231
     42  CA        -0.2260  -23.9720   25.4460 C.3   432  LEU432      0.1693
     43  C          0.2490  -25.4190   25.2440 C.2   432  LEU432      0.2591
     44  O          0.6170  -26.0820   26.2070 O.2   432  LEU432     -0.2718
     45  CB        -1.6870  -23.9690   25.9210 C.3   432  LEU432      0.0284
     46  CG        -2.1520  -22.6300   26.4740 C.3   432  LEU432      0.0019
     47  CD1       -3.6800  -22.5800   26.5430 C.3   432  LEU432      0.0001
     48  CD2       -1.5330  -22.3690   27.8410 C.3   432  LEU432      0.0001
     49  N          0.2530  -25.8740   23.9950 N.am  433  ARG433     -0.1980
     50  CA         0.6030  -27.2430   23.6300 C.3   433  ARG433      0.1597
     51  C          1.9500  -27.3840   22.9500 C.2   433  ARG433      0.2287
     52  O          2.5050  -28.4760   22.9040 O.2   433  ARG433     -0.2864
     53  CB        -0.4820  -27.8000   22.7120 C.3   433  ARG433      0.0334
     54  CG        -1.8300  -27.9330   23.3990 C.3   433  ARG433      0.0492
     55  CD        -2.9430  -28.0320   22.3940 C.3   433  ARG433      0.2205
     56  NE        -4.2080  -28.3350   23.0480 N.pl3 433  ARG433     -0.0865
     57  CZ        -5.0070  -27.4460   23.6520 C.cat 433  ARG433      0.5346
     58  NH1       -4.7070  -26.1630   23.6520 N.pl3 433  ARG433      0.1354
     59  NH2       -6.1270  -27.8220   24.2240 N.pl3 433  ARG433      0.1354
     60  N         -5.2380  -23.9930   35.8580 N.3   687  TYR687     -0.1241
     61  CA        -4.3600  -24.4200   34.7950 C.3   687  TYR687      0.1605
     62  C         -2.9780  -23.8500   35.0590 C.2   687  TYR687      0.2264
     63  O         -2.8210  -22.6370   35.2680 O.2   687  TYR687     -0.2867
     64  CB        -4.8410  -24.0200   33.3900 C.3   687  TYR687      0.0534
     65  CG        -3.9730  -24.7020   32.3540 C.ar  687  TYR687     -0.0201
     66  CD1       -4.1420  -26.0520   32.0730 C.ar  687  TYR687     -0.0009
     67  CD2       -2.9100  -24.0640   31.7490 C.ar  687  TYR687     -0.0009
     68  CE1       -3.3070  -26.7140   31.2050 C.ar  687  TYR687      0.0417
     69  CE2       -2.0670  -24.7370   30.8670 C.ar  687  TYR687      0.0417
     70  CZ        -2.2780  -26.0670   30.5950 C.ar  687  TYR687      0.1957
     71  OH        -1.4490  -26.7550   29.7360 O.3   687  TYR687     -0.2866
     72  N          2.2820  -27.6330   33.0340 N.3   709  HIS709     -0.1226
     73  CA         1.5000  -27.8510   31.8110 C.3   709  HIS709      0.1752
     74  C          0.3260  -28.7870   32.0590 C.2   709  HIS709      0.2597
     75  O          0.1340  -29.7510   31.3330 O.2   709  HIS709     -0.2718
     76  CB         2.3860  -28.3410   30.6710 C.3   709  HIS709      0.0759
     77  CG         3.5370  -27.4360   30.4010 C.ar  709  HIS709      0.0818
     78  ND1        3.3740  -26.1530   29.9290 N.ar  709  HIS709     -0.2268
     79  CD2        4.8670  -27.5980   30.5950 C.ar  709  HIS709      0.1154
     80  CE1        4.5540  -25.5780   29.8040 C.ar  709  HIS709      0.1986
     81  NE2        5.4780  -26.4270   30.2090 N.ar  709  HIS709     -0.2212
     82  N         -0.4750  -28.4670   33.0670 N.am  710  SER710     -0.1938
     83  CA        -1.6370  -29.2690   33.3510 C.3   710  SER710      0.2055
     84  C         -2.7530  -28.5290   34.0210 C.2   710  SER710      0.2642
     85  O         -2.5540  -27.4730   34.6640 O.2   710  SER710     -0.2714
     86  CB        -1.2520  -30.4340   34.2320 C.3   710  SER710      0.2130
     87  OG        -1.0450  -29.9990   35.5560 O.3   710  SER710     -0.2179
     88  N         -3.9300  -29.1180   33.8600 N.am  711  MET711     -0.1976
     89  CA        -5.1380  -28.7010   34.5690 C.3   711  MET711      0.1605
     90  C         -5.3380  -29.5800   35.7900 C.2   711  MET711      0.2287
     91  O         -5.1200  -30.7970   35.7470 O.2   711  MET711     -0.2864
     92  CB        -6.3940  -28.7800   33.6800 C.3   711  MET711      0.0413
     93  CG        -7.6500  -28.1530   34.2860 C.3   711  MET711      0.0598
     94  SD        -8.9890  -27.7520   33.1240 S.3   711  MET711     -0.1393
     95  CE        -8.3470  -26.2380   32.4430 C.3   711  MET711      0.0692
@<TRIPOS>BOND
     1    55    56    1
     2    55    54    1
     3    53    54    1
     4    53    50    1
     5    31    29   ar
     6    52    51    2
     7    51    50    1
     8    56    57    2
     9    16    22    1
    10    16    17    1
    11    28    29    1
    12    28    27    1
    13    23    24    1
    14    22    21    1
    15    29    30   ar
    16    50    49    1
    17    58    57    1
    18    57    59    1
    19    49    43   am
    20    24    27    1
    21    24    25    1
    22    41    42    1
    23    17    18    1
    24    17    20    1
    25    21    20    1
    26    18    19    2
    27    43    42    1
    28    43    44    2
    29    25    26    2
    30    25    32   am
    31    42    45    1
    32    45    46    1
    33    32    33    1
    34    46    47    1
    35    46    48    1
    36     4     3    2
    37    34    33    1
    38    34    35    2
    39    33    36    1
    40    36    37    1
    41    12    13    1
    42    12     9    1
    43     3     2    1
    44     3     8   am
    45    14    13    2
    46    37    38    1
    47     5     2    1
    48     5     6    1
    49    39    38    2
    50    13    15   am
    51     2     1    1
    52     9     8    1
    53     9    10    1
    54    38    40   am
    55    71    70    1
    56    80    78   ar
    57    80    81   ar
    58     6     7    1
    59    78    77   ar
    60    10    11    2
    61     1     7    1
    62    81    79   ar
    63    77    79   ar
    64    77    76    1
    65    70    69   ar
    66    70    68   ar
    67    76    73    1
    68    69    67   ar
    69    68    66   ar
    70    75    74    2
    71    67    65   ar
    72    73    74    1
    73    73    72    1
    74    74    82   am
    75    66    65   ar
    76    65    64    1
    77    95    94    1
    78    82    83    1
    79    94    93    1
    80    83    84    1
    81    83    86    1
    82    64    61    1
    83    92    93    1
    84    92    89    1
    85    88    84   am
    86    88    89    1
    87    84    85    2
    88    86    87    1
    89    89    90    1
    90    61    62    1
    91    61    60    1
    92    62    63    2
    93    91    90    2
