@<TRIPOS>MOLECULE
tmp/6fopA01.pdb
 115 113 0 0 0
SMALL
GASTEIGER

@<TRIPOS>ATOM
      1  N        -12.9100  -12.3300    9.1910 N.3   340  TYR340     -0.1227
      2  CA       -13.8890  -12.4860   10.2450 C.3   340  TYR340      0.1736
      3  C        -14.4420  -13.9320   10.3300 C.2   340  TYR340      0.2595
      4  O        -14.4090  -14.5710   11.3850 O.2   340  TYR340     -0.2718
      5  CB       -15.0390  -11.4840   10.1250 C.3   340  TYR340      0.0548
      6  CG       -16.0100  -11.6370   11.2670 C.ar  340  TYR340     -0.0200
      7  CD1      -15.6640  -11.2850   12.5580 C.ar  340  TYR340     -0.0009
      8  CD2      -17.2340  -12.2390   11.0630 C.ar  340  TYR340     -0.0009
      9  CE1      -16.5210  -11.4940   13.6100 C.ar  340  TYR340      0.0417
     10  CE2      -18.0930  -12.4600   12.1010 C.ar  340  TYR340      0.0417
     11  CZ       -17.7410  -12.0850   13.3720 C.ar  340  TYR340      0.1957
     12  OH       -18.5880  -12.2890   14.3930 O.3   340  TYR340     -0.2866
     13  N        -14.9460  -14.4180    9.2080 N.am  341  TRP341     -0.1976
     14  CA       -15.5680  -15.7390    9.2040 C.3   341  TRP341      0.1640
     15  C        -14.4920  -16.8200    9.3700 C.2   341  TRP341      0.2290
     16  O        -14.7590  -17.8410    9.9930 O.2   341  TRP341     -0.2864
     17  CB       -16.4510  -15.9000    7.9450 C.3   341  TRP341      0.0576
     18  CG       -17.7120  -15.1090    8.0860 C.ar  341  TRP341      0.0006
     19  CD1      -17.9740  -13.8730    7.5690 C.ar  341  TRP341      0.0946
     20  CD2      -18.8440  -15.4630    8.8740 C.ar  341  TRP341      0.0152
     21  NE1      -19.1840  -13.4300    8.0000 N.ar  341  TRP341     -0.2442
     22  CE2      -19.7630  -14.3960    8.7800 C.ar  341  TRP341      0.0810
     23  CE3      -19.1870  -16.5890    9.6260 C.ar  341  TRP341      0.0012
     24  CZ2      -20.9850  -14.4080    9.4320 C.ar  341  TRP341      0.0191
     25  CZ3      -20.4020  -16.6120   10.2370 C.ar  341  TRP341      0.0001
     26  CH2      -21.2910  -15.5180   10.1530 C.ar  341  TRP341      0.0015
     27  N        -14.0230  -16.8680   13.0580 N.3   344  LYS344     -0.1245
     28  CA       -15.0940  -17.6040   13.7420 C.3   344  LYS344      0.1561
     29  C        -14.8410  -19.1190   13.7080 C.2   344  LYS344      0.2260
     30  O        -15.0420  -19.8020   14.7020 O.2   344  LYS344     -0.2867
     31  CB       -16.4870  -17.3080   13.1650 C.3   344  LYS344      0.0271
     32  CG       -17.0650  -15.9550   13.6000 C.3   344  LYS344      0.0035
     33  CD       -18.4660  -15.7020   13.1180 C.3   344  LYS344      0.0206
     34  CE       -19.5470  -16.5670   13.7290 C.3   344  LYS344      0.1093
     35  NZ       -19.9950  -16.2120   15.1080 N.3   344  LYS344     -0.1314
     36  N        -16.6300   -6.4340    6.2870 N.3   407  TYR407     -0.1241
     37  CA       -17.3340   -5.4690    7.1280 C.3   407  TYR407      0.1605
     38  C        -16.5040   -4.1960    7.3950 C.2   407  TYR407      0.2264
     39  O        -16.5750   -3.6250    8.4710 O.2   407  TYR407     -0.2867
     40  CB       -17.7640   -6.1490    8.4320 C.3   407  TYR407      0.0534
     41  CG       -18.5490   -7.4400    8.2170 C.ar  407  TYR407     -0.0201
     42  CD1      -19.8810   -7.4180    7.8230 C.ar  407  TYR407     -0.0009
     43  CD2      -17.9450   -8.6800    8.3790 C.ar  407  TYR407     -0.0009
     44  CE1      -20.6170   -8.5790    7.6280 C.ar  407  TYR407      0.0417
     45  CE2      -18.6590   -9.8460    8.1810 C.ar  407  TYR407      0.0417
     46  CZ       -19.9850   -9.7970    7.8020 C.ar  407  TYR407      0.1957
     47  OH       -20.6690  -10.9570    7.6080 O.3   407  TYR407     -0.2866
     48  N        -20.8780   -5.9140   19.9590 N.3   493  SER493     -0.1217
     49  CA       -20.4320   -7.0960   20.6780 C.3   493  SER493      0.1889
     50  C        -19.2500   -6.8380   21.6170 C.2   493  SER493      0.2288
     51  O        -18.0690   -6.9360   21.2250 O.2   493  SER493     -0.2866
     52  CB       -20.0610   -8.2170   19.7160 C.3   493  SER493      0.2089
     53  OG       -19.6680   -9.3830   20.4800 O.3   493  SER493     -0.2183
     54  N        -17.0990  -10.1220   21.7670 N.3   496  GLU496     -0.1245
     55  CA       -15.9940  -10.3010   20.8130 C.3   496  GLU496      0.1567
     56  C        -14.7340   -9.4760   21.1460 C.2   496  GLU496      0.2260
     57  O        -13.6220   -9.8910   20.8260 O.2   496  GLU496     -0.2867
     58  CB       -16.4150  -10.0800   19.3580 C.3   496  GLU496      0.0388
     59  CG       -17.1590  -11.2710   18.7910 C.3   496  GLU496      0.1160
     60  CD       -17.4270  -11.2180   17.3120 C.2   496  GLU496      0.3649
     61  OE1      -17.4510  -10.1000   16.7520 O.co2 496  GLU496     -0.2457
     62  OE2      -17.6700  -12.3010   16.7220 O.co2 496  GLU496     -0.2457
     63  N        -28.4990   -6.0280   11.8530 N.3   566  TRP566     -0.1241
     64  CA       -29.3810   -6.7430   10.9350 C.3   566  TRP566      0.1605
     65  C        -30.7340   -6.9710   11.5860 C.2   566  TRP566      0.2264
     66  O        -30.9030   -6.7690   12.7900 O.2   566  TRP566     -0.2867
     67  CB       -28.7190   -8.0360   10.4640 C.3   566  TRP566      0.0550
     68  CG       -28.6400   -9.1440   11.4770 C.ar  566  TRP566      0.0003
     69  CD1      -29.5140  -10.1670   11.6260 C.ar  566  TRP566      0.0946
     70  CD2      -27.6260   -9.3430   12.4660 C.ar  566  TRP566      0.0152
     71  NE1      -29.1130  -11.0080   12.6400 N.ar  566  TRP566     -0.2442
     72  CE2      -27.9490  -10.5330   13.1670 C.ar  566  TRP566      0.0810
     73  CE3      -26.4400   -8.6680   12.7980 C.ar  566  TRP566      0.0012
     74  CZ2      -27.1640  -11.0320   14.2010 C.ar  566  TRP566      0.0191
     75  CZ3      -25.6500   -9.1780   13.8430 C.ar  566  TRP566      0.0001
     76  CH2      -26.0120  -10.3570   14.5080 C.ar  566  TRP566      0.0015
     77  N        -25.5660  -11.4130   20.8290 N.3   576  ILE576     -0.1245
     78  CA       -24.3360  -10.7980   20.3400 C.3   576  ILE576      0.1561
     79  C        -23.4390  -10.2990   21.4580 C.2   576  ILE576      0.2260
     80  O        -22.2930   -9.9870   21.1820 O.2   576  ILE576     -0.2867
     81  CB       -24.5570   -9.6490   19.3230 C.3   576  ILE576      0.0252
     82  CG1      -25.3250   -8.4510   19.9360 C.3   576  ILE576      0.0019
     83  CG2      -25.2360  -10.1560   18.0440 C.3   576  ILE576      0.0019
     84  CD1      -24.8250   -7.1160   19.4380 C.3   576  ILE576      0.0001
     85  N        -21.7070  -14.1870   22.7180 N.3   579  LEU579     -0.1245
     86  CA       -20.8030  -14.9920   21.8950 C.3   579  LEU579      0.1561
     87  C        -19.5370  -14.2040   21.5180 C.2   579  LEU579      0.2260
     88  O        -19.5770  -12.9650   21.3520 O.2   579  LEU579     -0.2867
     89  CB       -21.5460  -15.5520   20.6860 C.3   579  LEU579      0.0270
     90  CG       -21.8120  -14.6280   19.5090 C.3   579  LEU579      0.0019
     91  CD1      -20.5960  -14.5230   18.5730 C.3   579  LEU579      0.0001
     92  CD2      -23.0220  -15.1450   18.7340 C.3   579  LEU579      0.0001
     93  N        -30.7830  -19.2350   17.8970 N.3   614  TRP614     -0.1241
     94  CA       -29.5850  -19.2030   18.7590 C.3   614  TRP614      0.1605
     95  C        -29.8310  -19.8550   20.1130 C.2   614  TRP614      0.2264
     96  O        -29.3660  -19.3960   21.1580 O.2   614  TRP614     -0.2867
     97  CB       -29.0250  -17.7810   18.9070 C.3   614  TRP614      0.0550
     98  CG       -28.3380  -17.2680   17.6940 C.ar  614  TRP614      0.0003
     99  CD1      -28.3170  -17.8140   16.4380 C.ar  614  TRP614      0.0946
    100  CD2      -27.5460  -16.0590   17.6080 C.ar  614  TRP614      0.0152
    101  NE1      -27.5660  -17.0350   15.5950 N.ar  614  TRP614     -0.2442
    102  CE2      -27.1070  -15.9420   16.2750 C.ar  614  TRP614      0.0810
    103  CE3      -27.1850  -15.0810   18.5250 C.ar  614  TRP614      0.0012
    104  CZ2      -26.3150  -14.8730   15.8330 C.ar  614  TRP614      0.0191
    105  CZ3      -26.3960  -14.0220   18.0940 C.ar  614  TRP614      0.0001
    106  CH2      -25.9800  -13.9260   16.7550 C.ar  614  TRP614      0.0015
    107  N        -25.0810  -22.1630   16.0900 N.3   641  GLU641     -0.1245
    108  CA       -24.5770  -20.8990   15.6050 C.3   641  GLU641      0.1567
    109  C        -23.2110  -21.1480   14.9270 C.2   641  GLU641      0.2260
    110  O        -22.4620  -22.0520   15.3180 O.2   641  GLU641     -0.2867
    111  CB       -24.5200  -19.8740   16.7390 C.3   641  GLU641      0.0388
    112  CG       -24.2570  -18.4480   16.2720 C.3   641  GLU641      0.1160
    113  CD       -22.8100  -18.1150   15.9920 C.2   641  GLU641      0.3649
    114  OE1      -21.9310  -18.7370   16.6120 O.co2 641  GLU641     -0.2457
    115  OE2      -22.5620  -17.2400   15.1180 O.co2 641  GLU641     -0.2457
@<TRIPOS>BOND
     1    36    37    1
     2    37    38    1
     3    37    40    1
     4    38    39    2
     5    19    21   ar
     6    19    18   ar
     7    47    46    1
     8    44    46   ar
     9    44    42   ar
    10    46    45   ar
    11    42    41   ar
    12    17    18    1
    13    17    14    1
    14    21    22   ar
    15    18    20   ar
    16    45    43   ar
    17    41    43   ar
    18    41    40    1
    19    22    20   ar
    20    22    24   ar
    21    20    23   ar
    22     1     2    1
    23    14    13    1
    24    14    15    1
    25    13     3   am
    26    15    16    2
    27    24    26   ar
    28    23    25   ar
    29     5     2    1
    30     5     6    1
    31    26    25   ar
    32     2     3    1
    33     3     4    2
    34    67    64    1
    35    67    68    1
    36    64    65    1
    37    64    63    1
    38     8     6   ar
    39     8    10   ar
    40     6     7   ar
    41    68    69   ar
    42    68    70   ar
    43    65    66    2
    44    69    71   ar
    45    10    11   ar
    46    70    73   ar
    47    70    72   ar
    48     7     9   ar
    49    71    72   ar
    50    73    75   ar
    51    27    28    1
    52    33    32    1
    53    33    34    1
    54    31    32    1
    55    31    28    1
    56    72    74   ar
    57    11     9   ar
    58    11    12    1
    59    29    28    1
    60    29    30    2
    61    34    35    1
    62    75    76   ar
    63    74    76   ar
    64   109   110    2
    65   109   108    1
    66   115   113   ar
    67   101   102   ar
    68   101    99   ar
    69   108   107    1
    70   108   111    1
    71   104   102   ar
    72   104   106   ar
    73   113   112    1
    74   113   114   ar
    75   112   111    1
    76   102   100   ar
    77    99    98   ar
    78    62    60   ar
    79    61    60   ar
    80   106   105   ar
    81    60    59    1
    82   100    98   ar
    83   100   103   ar
    84    98    97    1
    85    93    94    1
    86    83    81    1
    87   105   103   ar
    88    91    90    1
    89    92    90    1
    90    94    97    1
    91    94    95    1
    92    59    58    1
    93    81    82    1
    94    81    78    1
    95    58    55    1
    96    84    82    1
    97    90    89    1
    98    52    53    1
    99    52    49    1
   100    48    49    1
   101    95    96    2
   102    78    77    1
   103    78    79    1
   104    49    50    1
   105    89    86    1
   106    55    56    1
   107    55    54    1
   108    57    56    2
   109    80    79    2
   110    51    50    2
   111    88    87    2
   112    87    86    1
   113    86    85    1
