@<TRIPOS>MOLECULE
tmp/6fopA09.pdb
 77 74 0 0 0
SMALL
GASTEIGER

@<TRIPOS>ATOM
      1  N         -0.2530  -11.9580   43.5130 N.3   237  THR237     -0.1203
      2  CA        -0.4960  -12.3870   44.8680 C.3   237  THR237      0.1994
      3  C         -1.9060  -12.0190   45.3180 C.2   237  THR237      0.2618
      4  O         -2.6170  -12.8620   45.8610 O.2   237  THR237     -0.2717
      5  CB         0.5630  -11.7940   45.8190 C.3   237  THR237      0.1784
      6  OG1        1.8690  -12.2340   45.3970 O.3   237  THR237     -0.2211
      7  CG2        0.3080  -12.2280   47.2550 C.3   237  THR237      0.0376
      8  N         -2.3300  -10.7900   45.0050 N.am  238  GLU238     -0.1965
      9  CA        -3.6340  -10.2640   45.4470 C.3   238  GLU238      0.1733
     10  C         -4.7820  -10.4670   44.4530 C.2   238  GLU238      0.2617
     11  O         -5.9350  -10.1990   44.7820 O.2   238  GLU238     -0.2715
     12  CB        -3.4850   -8.7760   45.8410 C.3   238  GLU238      0.0429
     13  CG        -2.5450   -8.6050   47.0370 C.3   238  GLU238      0.1163
     14  CD        -2.5490   -7.2230   47.7010 C.2   238  GLU238      0.3649
     15  OE1       -3.3920   -6.3520   47.3860 O.co2 238  GLU238     -0.2457
     16  OE2       -1.6830   -7.0180   48.5760 O.co2 238  GLU238     -0.2457
     17  N         -4.4730  -10.9390   43.2440 N.am  239  SER239     -0.1950
     18  CA        -5.4710  -11.1000   42.1870 C.3   239  SER239      0.1924
     19  C         -6.2250   -9.7980   41.9060 C.2   239  SER239      0.2314
     20  O         -7.4350   -9.7910   41.7510 O.2   239  SER239     -0.2863
     21  CB        -6.4330  -12.2700   42.4880 C.3   239  SER239      0.2116
     22  OG        -7.0570  -12.7380   41.3000 O.3   239  SER239     -0.2180
     23  N        -10.8850   -6.5100   41.2000 N.3   301  ARG301     -0.1245
     24  CA       -10.5150   -7.9050   41.4410 C.3   301  ARG301      0.1563
     25  C        -10.6280   -8.6800   40.1210 C.2   301  ARG301      0.2260
     26  O        -11.6400   -8.6310   39.4230 O.2   301  ARG301     -0.2867
     27  CB       -11.4030   -8.5130   42.5130 C.3   301  ARG301      0.0307
     28  CG       -11.1520   -7.9290   43.8810 C.3   301  ARG301      0.0489
     29  CD       -11.6990   -8.7970   45.0060 C.3   301  ARG301      0.2205
     30  NE       -11.8010   -8.0560   46.2610 N.pl3 301  ARG301     -0.0865
     31  CZ       -10.7800   -7.7820   47.0710 C.cat 301  ARG301      0.5346
     32  NH1       -9.5410   -8.1780   46.7760 N.pl3 301  ARG301      0.1354
     33  NH2      -10.9980   -7.0910   48.1920 N.pl3 301  ARG301      0.1354
     34  N        -10.7840  -15.5360   45.3170 N.3   667  THR667     -0.1203
     35  CA        -9.7110  -15.3350   44.3540 C.3   667  THR667      0.1994
     36  C         -8.5270  -16.2480   44.6510 C.2   667  THR667      0.2618
     37  O         -8.5120  -16.9420   45.6710 O.2   667  THR667     -0.2717
     38  CB        -9.3070  -13.8620   44.2800 C.3   667  THR667      0.1784
     39  OG1       -8.9330  -13.4070   45.5840 O.3   667  THR667     -0.2211
     40  CG2      -10.4780  -13.0150   43.7640 C.3   667  THR667      0.0376
     41  N         -7.5300  -16.2100   43.7780 N.am  668  ALA668     -0.1965
     42  CA        -6.3560  -17.0690   43.8940 C.3   668  ALA668      0.1728
     43  C         -5.1270  -16.3500   43.4050 C.2   668  ALA668      0.2616
     44  O         -5.2160  -15.4320   42.5670 O.2   668  ALA668     -0.2715
     45  CB        -6.5400  -18.3720   43.1160 C.3   668  ALA668      0.0334
     46  N         -3.9760  -16.8150   43.8880 N.am  669  ASP669     -0.1971
     47  CA        -2.6690  -16.2330   43.5630 C.3   669  ASP669      0.1709
     48  C         -2.0190  -16.8050   42.2890 C.2   669  ASP669      0.2293
     49  O         -0.8210  -17.1100   42.2430 O.2   669  ASP669     -0.2864
     50  CB        -1.7210  -16.3030   44.7650 C.3   669  ASP669      0.1436
     51  CG        -1.3590  -17.7190   45.1880 C.2   669  ASP669      0.3671
     52  OD1       -1.8870  -18.7060   44.6190 O.co2 669  ASP669     -0.2456
     53  OD2       -0.5620  -17.8100   46.1450 O.co2 669  ASP669     -0.2456
     54  N         -2.9490  -20.8840   46.1260 N.3   697  THR697     -0.1203
     55  CA        -3.6950  -20.6430   47.3420 C.3   697  THR697      0.1994
     56  C         -4.8640  -19.7340   47.0490 C.2   697  THR697      0.2618
     57  O         -4.6900  -18.6930   46.4170 O.2   697  THR697     -0.2717
     58  CB        -2.7920  -20.0290   48.4360 C.3   697  THR697      0.1784
     59  OG1       -1.6600  -20.8900   48.6510 O.3   697  THR697     -0.2211
     60  CG2       -3.5410  -19.8530   49.7410 C.3   697  THR697      0.0376
     61  N         -6.0510  -20.1350   47.4990 N.am  698  PHE698     -0.1961
     62  CA        -7.2910  -19.3750   47.3260 C.3   698  PHE698      0.1771
     63  C         -7.5960  -18.5870   48.5900 C.2   698  PHE698      0.2620
     64  O         -7.1450  -18.9280   49.6890 O.2   698  PHE698     -0.2715
     65  CB        -8.4630  -20.3050   46.9770 C.3   698  PHE698      0.0574
     66  CG        -8.3110  -20.9880   45.6320 C.ar  698  PHE698     -0.0200
     67  CD1       -7.5030  -22.1300   45.4920 C.ar  698  PHE698     -0.0042
     68  CD2       -8.9790  -20.5270   44.5190 C.ar  698  PHE698     -0.0042
     69  CE1       -7.3440  -22.7360   44.2630 C.ar  698  PHE698     -0.0003
     70  CE2       -8.8460  -21.1430   43.2940 C.ar  698  PHE698     -0.0003
     71  CZ        -8.0060  -22.2510   43.1720 C.ar  698  PHE698     -0.0000
     72  N         -8.4280  -17.5570   48.4330 N.am  699  SER699     -0.1950
     73  CA        -8.7150  -16.6430   49.5450 C.3   699  SER699      0.1924
     74  C         -9.5360  -17.2700   50.6730 C.2   699  SER699      0.2314
     75  O         -9.5980  -16.7320   51.7900 O.2   699  SER699     -0.2863
     76  CB        -9.4250  -15.3740   49.0390 C.3   699  SER699      0.2116
     77  OG       -10.6640  -15.6680   48.4140 O.3   699  SER699     -0.2180
@<TRIPOS>BOND
     1    26    25    2
     2    25    24    1
     3    23    24    1
     4    22    21    1
     5    24    27    1
     6    20    19    2
     7    19    18    1
     8    18    21    1
     9    18    17    1
    10    49    48    2
    11    48    47    1
    12    27    28    1
    13    44    43    2
    14    45    42    1
    15    71    70   ar
    16    71    69   ar
    17    17    10   am
    18    70    68   ar
    19    43    46   am
    20    43    42    1
    21     1     2    1
    22    47    46    1
    23    47    50    1
    24    40    38    1
    25    41    42    1
    26    41    36   am
    27    28    29    1
    28    69    67   ar
    29    38    35    1
    30    38    39    1
    31    35    36    1
    32    35    34    1
    33    10    11    2
    34    10     9    1
    35    68    66   ar
    36    52    51   ar
    37    36    37    2
    38    50    51    1
    39     2     3    1
    40     2     5    1
    41     8     3   am
    42     8     9    1
    43    29    30    1
    44    51    53   ar
    45     3     4    2
    46     6     5    1
    47     9    12    1
    48    67    66   ar
    49    66    65    1
    50     5     7    1
    51    12    13    1
    52    54    55    1
    53    30    31    2
    54    57    56    2
    55    32    31    1
    56    65    62    1
    57    13    14    1
    58    56    55    1
    59    56    61   am
    60    31    33    1
    61    62    61    1
    62    62    63    1
    63    55    58    1
    64    15    14   ar
    65    14    16   ar
    66    77    76    1
    67    72    63   am
    68    72    73    1
    69    58    59    1
    70    58    60    1
    71    63    64    2
    72    76    73    1
    73    73    74    1
    74    74    75    2
