@<TRIPOS>MOLECULE
tmp/6fosE24.pdb
 120 120 0 0 0
SMALL
GASTEIGER

@<TRIPOS>ATOM
      1  N        -21.1230  -35.4260   61.4640 N.3   416  VAL416     -0.1245
      2  CA       -21.2580  -36.5310   60.5200 C.3   416  VAL416      0.1561
      3  C        -22.5020  -36.3490   59.6590 C.2   416  VAL416      0.2260
      4  O        -22.4750  -36.5900   58.4460 O.2   416  VAL416     -0.2867
      5  CB       -21.2810  -37.8750   61.2710 C.3   416  VAL416      0.0252
      6  CG1      -21.5400  -39.0220   60.3060 C.3   416  VAL416      0.0019
      7  CG2      -19.9740  -38.0900   62.0160 C.3   416  VAL416      0.0019
      8  N        -21.6490  -33.8000   57.0620 N.3   419  PHE419     -0.1227
      9  CA       -20.6240  -34.2240   56.1120 C.3   419  PHE419      0.1736
     10  C        -21.1960  -35.1650   55.0600 C.2   419  PHE419      0.2595
     11  O        -21.0260  -34.9440   53.8550 O.2   419  PHE419     -0.2718
     12  CB       -19.4630  -34.8890   56.8510 C.3   419  PHE419      0.0547
     13  CG       -18.4760  -35.5620   55.9410 C.ar  419  PHE419     -0.0202
     14  CD1      -17.6170  -34.8140   55.1530 C.ar  419  PHE419     -0.0042
     15  CD2      -18.4080  -36.9430   55.8730 C.ar  419  PHE419     -0.0042
     16  CE1      -16.7090  -35.4310   54.3130 C.ar  419  PHE419     -0.0003
     17  CE2      -17.5030  -37.5670   55.0360 C.ar  419  PHE419     -0.0003
     18  CZ       -16.6510  -36.8100   54.2550 C.ar  419  PHE419     -0.0000
     19  N        -21.8800  -36.2220   55.4970 N.am  420  LEU420     -0.1980
     20  CA       -22.4380  -37.1860   54.5580 C.3   420  LEU420      0.1596
     21  C        -23.5560  -36.6030   53.7050 C.2   420  LEU420      0.2287
     22  O        -24.0070  -37.2710   52.7700 O.2   420  LEU420     -0.2864
     23  CB       -22.9390  -38.4160   55.3150 C.3   420  LEU420      0.0297
     24  CG       -21.8420  -39.1680   56.0690 C.3   420  LEU420      0.0022
     25  CD1      -22.3920  -40.3990   56.7720 C.3   420  LEU420      0.0001
     26  CD2      -20.7220  -39.5460   55.1160 C.3   420  LEU420      0.0001
     27  N        -17.9410  -42.5570   40.6450 N.3   446  ILE446     -0.1231
     28  CA       -17.4040  -43.0560   41.9010 C.3   446  ILE446      0.1692
     29  C        -17.3700  -44.5750   41.8410 C.2   446  ILE446      0.2592
     30  O        -18.2450  -45.2050   41.2370 O.2   446  ILE446     -0.2718
     31  CB       -18.2330  -42.5490   43.0980 C.3   446  ILE446      0.0266
     32  CG1      -17.5180  -42.8660   44.4120 C.3   446  ILE446      0.0019
     33  CG2      -19.6560  -43.1000   43.0420 C.3   446  ILE446      0.0020
     34  CD1      -16.1810  -42.1750   44.5520 C.3   446  ILE446      0.0001
     35  N        -16.3460  -45.1620   42.4460 N.am  447  GLU447     -0.1966
     36  CA       -16.1790  -46.6120   42.4560 C.3   447  GLU447      0.1718
     37  C        -15.8750  -47.0710   43.8730 C.2   447  GLU447      0.2458
     38  O        -14.8100  -46.7160   44.4210 O.2   447  GLU447     -0.2730
     39  CB       -15.0830  -47.0420   41.4840 C.3   447  GLU447      0.0428
     40  CG       -15.2190  -48.4730   40.9730 C.3   447  GLU447      0.1163
     41  CD       -16.3530  -48.6590   39.9670 C.2   447  GLU447      0.3649
     42  OE1      -17.3480  -47.9050   40.0080 O.co2 447  GLU447     -0.2457
     43  OE2      -16.2440  -49.5700   39.1200 O.co2 447  GLU447     -0.2457
     44  N        -16.7650  -47.8370   44.5000 N.am  448  PRO448     -0.2716
     45  CA       -16.5410  -48.3490   45.8650 C.3   448  PRO448      0.1536
     46  C        -15.6100  -49.5570   45.8610 C.2   448  PRO448      0.2598
     47  O        -16.0170  -50.7150   45.9610 O.2   448  PRO448     -0.2715
     48  CB       -17.9540  -48.7170   46.3160 C.3   448  PRO448      0.0310
     49  CG       -18.6100  -49.1730   45.0470 C.3   448  PRO448      0.0237
     50  CD       -18.0570  -48.2850   43.9530 C.3   448  PRO448      0.0939
     51  N        -14.3100  -49.2770   45.7350 N.am  449  ILE449     -0.1964
     52  CA       -13.3200  -50.3480   45.6710 C.3   449  ILE449      0.1727
     53  C        -13.3670  -51.2030   46.9290 C.2   449  ILE449      0.2616
     54  O        -13.0310  -52.3930   46.8940 O.2   449  ILE449     -0.2715
     55  CB       -11.9160  -49.7600   45.4390 C.3   449  ILE449      0.0290
     56  CG1      -11.9930  -48.5720   44.4790 C.3   449  ILE449      0.0022
     57  CG2      -10.9810  -50.8230   44.8830 C.3   449  ILE449      0.0023
     58  CD1      -11.2610  -47.3480   44.9730 C.3   449  ILE449      0.0001
     59  N        -13.7850  -50.6190   48.0550 N.am  450  PHE450     -0.1960
     60  CA       -14.0000  -51.4050   49.2660 C.3   450  PHE450      0.1771
     61  C        -15.0700  -52.4650   49.0390 C.2   450  PHE450      0.2619
     62  O        -14.8920  -53.6340   49.4000 O.2   450  PHE450     -0.2715
     63  CB       -14.3930  -50.4870   50.4240 C.3   450  PHE450      0.0574
     64  CG       -13.4230  -49.3680   50.6700 C.ar  450  PHE450     -0.0200
     65  CD1      -12.3340  -49.5470   51.5060 C.ar  450  PHE450     -0.0042
     66  CD2      -13.6040  -48.1330   50.0700 C.ar  450  PHE450     -0.0042
     67  CE1      -11.4410  -48.5180   51.7350 C.ar  450  PHE450     -0.0003
     68  CE2      -12.7150  -47.0990   50.2950 C.ar  450  PHE450     -0.0003
     69  CZ       -11.6320  -47.2910   51.1290 C.ar  450  PHE450     -0.0000
     70  N        -16.1940  -52.0710   48.4360 N.am  451  ALA451     -0.1977
     71  CA       -17.2540  -53.0240   48.1380 C.3   451  ALA451      0.1597
     72  C        -16.8980  -53.9380   46.9730 C.2   451  ALA451      0.2287
     73  O        -17.4770  -55.0230   46.8540 O.2   451  ALA451     -0.2864
     74  CB       -18.5570  -52.2810   47.8510 C.3   451  ALA451      0.0319
     75  N        -22.6760  -47.6190   45.0430 N.3   508  PHE508     -0.1241
     76  CA       -21.9980  -46.9380   46.1440 C.3   508  PHE508      0.1605
     77  C        -22.8180  -45.7680   46.6640 C.2   508  PHE508      0.2264
     78  O        -23.1130  -45.6830   47.8610 O.2   508  PHE508     -0.2867
     79  CB       -20.6220  -46.4320   45.7140 C.3   508  PHE508      0.0534
     80  CG       -20.0870  -45.3410   46.6060 C.ar  508  PHE508     -0.0203
     81  CD1      -19.5310  -45.6440   47.8350 C.ar  508  PHE508     -0.0042
     82  CD2      -20.1690  -44.0110   46.2290 C.ar  508  PHE508     -0.0042
     83  CE1      -19.0550  -44.6410   48.6580 C.ar  508  PHE508     -0.0003
     84  CE2      -19.6930  -43.0070   47.0500 C.ar  508  PHE508     -0.0003
     85  CZ       -19.1340  -43.3240   48.2630 C.ar  508  PHE508     -0.0000
     86  N        -25.3580  -46.3770   49.1090 N.3   511  HIS511     -0.1226
     87  CA       -24.8190  -46.7600   50.4110 C.3   511  HIS511      0.1752
     88  C        -24.2710  -45.5480   51.1520 C.2   511  HIS511      0.2596
     89  O        -24.3670  -45.4680   52.3820 O.2   511  HIS511     -0.2718
     90  CB       -23.7380  -47.8270   50.2480 C.3   511  HIS511      0.0759
     91  CG       -24.2770  -49.1970   49.9790 C.ar  511  HIS511      0.0818
     92  ND1      -24.3810  -49.7210   48.7090 N.ar  511  HIS511     -0.2268
     93  CD2      -24.7490  -50.1500   50.8190 C.ar  511  HIS511      0.1154
     94  CE1      -24.8890  -50.9390   48.7780 C.ar  511  HIS511      0.1986
     95  NE2      -25.1220  -51.2220   50.0470 N.ar  511  HIS511     -0.2212
     96  N        -23.6860  -44.5990   50.4170 N.am  512  HIS512     -0.1975
     97  CA       -23.3090  -43.3240   51.0160 C.3   512  HIS512      0.1656
     98  C        -24.5360  -42.5970   51.5530 C.2   512  HIS512      0.2291
     99  O        -24.4980  -42.0180   52.6450 O.2   512  HIS512     -0.2864
    100  CB       -22.5790  -42.4650   49.9810 C.3   512  HIS512      0.0771
    101  CG       -21.6260  -41.4730   50.5720 C.ar  512  HIS512      0.0820
    102  ND1      -20.8890  -40.6030   49.7980 N.ar  512  HIS512     -0.2267
    103  CD2      -21.2840  -41.2170   51.8560 C.ar  512  HIS512      0.1154
    104  CE1      -20.1350  -39.8510   50.5800 C.ar  512  HIS512      0.1986
    105  NE2      -20.3560  -40.2030   51.8340 N.ar  512  HIS512     -0.2212
    106  N        -25.8100  -44.3990   54.7030 N.3   515  ALA515     -0.1245
    107  CA       -25.0010  -43.9880   55.8460 C.3   515  ALA515      0.1562
    108  C        -25.4030  -42.6010   56.3280 C.2   515  ALA515      0.2260
    109  O        -25.4950  -42.3580   57.5370 O.2   515  ALA515     -0.2867
    110  CB       -23.5170  -44.0220   55.4800 C.3   515  ALA515      0.0290
    111  N        -27.0130  -42.3340   60.0650 N.3   519  HIS519     -0.1241
    112  CA       -26.2760  -41.5950   61.0860 C.3   519  HIS519      0.1621
    113  C        -27.0890  -40.4140   61.6030 C.2   519  HIS519      0.2264
    114  O        -27.0890  -40.1340   62.8080 O.2   519  HIS519     -0.2867
    115  CB       -24.9330  -41.1180   60.5340 C.3   519  HIS519      0.0745
    116  CG       -23.9680  -42.2260   60.2490 C.ar  519  HIS519      0.0817
    117  ND1      -23.9740  -42.9330   59.0660 N.ar  519  HIS519     -0.2268
    118  CD2      -22.9660  -42.7510   60.9940 C.ar  519  HIS519      0.1154
    119  CE1      -23.0180  -43.8440   59.0940 C.ar  519  HIS519      0.1986
    120  NE2      -22.3920  -43.7540   60.2530 N.ar  519  HIS519     -0.2212
@<TRIPOS>BOND
     1    43    41   ar
     2    41    42   ar
     3    41    40    1
     4    27    28    1
     5    40    39    1
     6    30    29    2
     7    39    36    1
     8    29    28    1
     9    29    35   am
    10    28    31    1
    11    35    36    1
    12    36    37    1
    13    33    31    1
    14    31    32    1
    15    37    38    2
    16    37    44   am
    17    50    44    1
    18    50    49    1
    19    32    34    1
    20    56    58    1
    21    56    55    1
    22    44    45    1
    23    57    55    1
    24    75    76    1
    25    49    48    1
    26    55    52    1
    27    52    51    1
    28    52    53    1
    29    79    76    1
    30    79    80    1
    31    51    46   am
    32    46    45    1
    33    46    47    2
    34    45    48    1
    35    76    77    1
    36    82    80   ar
    37    82    84   ar
    38    80    81   ar
    39    77    78    2
    40    73    72    2
    41    54    53    2
    42    53    59   am
    43    72    71    1
    44    84    85   ar
    45    81    83   ar
    46    74    71    1
    47    59    60    1
    48    71    70    1
    49    85    83   ar
    50    70    61   am
    51    92    94   ar
    52    92    91   ar
    53    94    95   ar
    54    61    60    1
    55    61    62    2
    56    86    87    1
    57    60    63    1
    58   102   101   ar
    59   102   104   ar
    60    91    90    1
    61    91    93   ar
    62   100   101    1
    63   100    97    1
    64    95    93   ar
    65    66    68   ar
    66    66    64   ar
    67    90    87    1
    68    68    69   ar
    69    87    88    1
    70    96    97    1
    71    96    88   am
    72    63    64    1
    73   101   103   ar
    74   104   105   ar
    75    64    65   ar
    76    97    98    1
    77    69    67   ar
    78    88    89    2
    79    65    67   ar
    80    98    99    2
    81   105   103   ar
    82    22    21    2
    83    21    20    1
    84    11    10    2
    85    18    16   ar
    86    18    17   ar
    87    16    14   ar
    88    20    23    1
    89    20    19    1
    90   106   107    1
    91    17    15   ar
    92    10    19   am
    93    10     9    1
    94    26    24    1
    95    14    13   ar
    96    23    24    1
    97   110   107    1
    98   107   108    1
    99    15    13   ar
   100    13    12    1
   101    24    25    1
   102     9    12    1
   103     9     8    1
   104   108   109    2
   105     4     3    2
   106   117   119   ar
   107   117   116   ar
   108   119   120   ar
   109     3     2    1
   110   111   112    1
   111   116   115    1
   112   116   118   ar
   113   120   118   ar
   114     6     5    1
   115     2     5    1
   116     2     1    1
   117   115   112    1
   118   112   113    1
   119     5     7    1
   120   113   114    2
