@<TRIPOS>MOLECULE
tmp/6fosE00.pdb
 111 108 0 0 0
SMALL
GASTEIGER

@<TRIPOS>ATOM
      1  N        -52.7760  -48.7120   77.5600 N.3    22  HIS22      -0.1241
      2  CA       -51.6170  -49.5710   77.7560 C.3    22  HIS22       0.1621
      3  C        -50.5150  -48.8920   78.5590 C.2    22  HIS22       0.2264
      4  O        -49.5050  -49.5340   78.8640 O.2    22  HIS22      -0.2867
      5  CB       -51.0570  -50.0260   76.4040 C.3    22  HIS22       0.0745
      6  CG       -52.0630  -50.7040   75.5270 C.ar   22  HIS22       0.0817
      7  ND1      -53.0010  -50.0080   74.7950 N.ar   22  HIS22      -0.2268
      8  CD2      -52.2750  -52.0140   75.2620 C.ar   22  HIS22       0.1154
      9  CE1      -53.7480  -50.8610   74.1170 C.ar   22  HIS22       0.1986
     10  NE2      -53.3280  -52.0850   74.3830 N.ar   22  HIS22      -0.2212
     11  N        -49.5250  -48.3690   81.5930 N.3    24  PHE24      -0.1241
     12  CA       -49.9070  -48.8820   82.9040 C.3    24  PHE24       0.1605
     13  C        -49.2070  -48.1460   84.0390 C.2    24  PHE24       0.2264
     14  O        -49.7560  -48.0550   85.1410 O.2    24  PHE24      -0.2867
     15  CB       -49.6210  -50.3820   82.9820 C.3    24  PHE24       0.0534
     16  CG       -50.3560  -51.1910   81.9510 C.ar   24  PHE24      -0.0203
     17  CD1      -51.7340  -51.3260   82.0120 C.ar   24  PHE24      -0.0042
     18  CD2      -49.6720  -51.8200   80.9250 C.ar   24  PHE24      -0.0042
     19  CE1      -52.4150  -52.0680   81.0650 C.ar   24  PHE24      -0.0003
     20  CE2      -50.3470  -52.5640   79.9750 C.ar   24  PHE24      -0.0003
     21  CZ       -51.7210  -52.6880   80.0460 C.ar   24  PHE24      -0.0000
     22  N        -48.8470  -56.3600   83.1830 N.3    39  ILE39      -0.1245
     23  CA       -48.0120  -56.4230   81.9880 C.3    39  ILE39       0.1561
     24  C        -47.7000  -57.8730   81.6330 C.2    39  ILE39       0.2260
     25  O        -47.6360  -58.2400   80.4520 O.2    39  ILE39      -0.2867
     26  CB       -46.7400  -55.5830   82.2020 C.3    39  ILE39       0.0252
     27  CG1      -47.0760  -54.0940   82.0800 C.3    39  ILE39       0.0019
     28  CG2      -45.6440  -55.9810   81.2330 C.3    39  ILE39       0.0019
     29  CD1      -45.9750  -53.1750   82.5360 C.3    39  ILE39       0.0001
     30  N        -50.6830  -59.0510   79.9290 N.3    42  SER42      -0.1202
     31  CA       -50.7410  -58.5600   78.5570 C.3    42  SER42       0.2020
     32  C        -49.7800  -59.3210   77.6530 C.2    42  SER42       0.2618
     33  O        -50.0680  -59.5060   76.4650 O.2    42  SER42      -0.2717
     34  CB       -50.4450  -57.0610   78.5200 C.3    42  SER42       0.2103
     35  OG       -50.8430  -56.4960   77.2830 O.3    42  SER42      -0.2182
     36  N        -48.6360  -59.7580   78.1900 N.am   43  HIS43      -0.1975
     37  CA       -47.7760  -60.6860   77.4620 C.3    43  HIS43       0.1656
     38  C        -48.5570  -61.9210   77.0380 C.2    43  HIS43       0.2291
     39  O        -48.4900  -62.3530   75.8820 O.2    43  HIS43      -0.2864
     40  CB       -46.5840  -61.1030   78.3270 C.3    43  HIS43       0.0771
     41  CG       -45.4870  -60.0880   78.3960 C.ar   43  HIS43       0.0820
     42  ND1      -45.5210  -59.0110   79.2550 N.ar   43  HIS43      -0.2267
     43  CD2      -44.3120  -60.0010   77.7290 C.ar   43  HIS43       0.1154
     44  CE1      -44.4190  -58.2990   79.1080 C.ar   43  HIS43       0.1986
     45  NE2      -43.6680  -58.8780   78.1880 N.ar   43  HIS43      -0.2212
     46  N        -51.0500  -61.3100   74.4190 N.3    46  HIS46      -0.1226
     47  CA       -50.4330  -60.9440   73.1510 C.3    46  HIS46       0.1752
     48  C        -49.9740  -62.1610   72.3580 C.2    46  HIS46       0.2595
     49  O        -50.2480  -62.2590   71.1590 O.2    46  HIS46      -0.2718
     50  CB       -49.2500  -60.0030   73.4040 C.3    46  HIS46       0.0759
     51  CG       -48.4650  -59.6730   72.1750 C.ar   46  HIS46       0.0818
     52  ND1      -47.4020  -60.4360   71.7440 N.ar   46  HIS46      -0.2268
     53  CD2      -48.5850  -58.6580   71.2880 C.ar   46  HIS46       0.1154
     54  CE1      -46.9010  -59.9060   70.6430 C.ar   46  HIS46       0.1986
     55  NE2      -47.6000  -58.8270   70.3450 N.ar   46  HIS46      -0.2212
     56  N        -49.2720  -63.0930   73.0100 N.am   47  LEU47      -0.1980
     57  CA       -48.9120  -64.3420   72.3470 C.3    47  LEU47       0.1596
     58  C        -50.1480  -65.1430   71.9650 C.2    47  LEU47       0.2287
     59  O        -50.1200  -65.9020   70.9890 O.2    47  LEU47      -0.2864
     60  CB       -47.9990  -65.1750   73.2470 C.3    47  LEU47       0.0297
     61  CG       -46.6080  -64.6070   73.5300 C.3    47  LEU47       0.0022
     62  CD1      -45.8360  -65.5260   74.4640 C.3    47  LEU47       0.0001
     63  CD2      -45.8470  -64.3960   72.2320 C.3    47  LEU47       0.0001
     64  N        -38.6860  -51.3580   83.6680 N.3   321  LEU321     -0.1231
     65  CA       -39.1630  -52.1160   82.5180 C.3   321  LEU321      0.1693
     66  C        -38.8470  -51.4320   81.1980 C.2   321  LEU321      0.2592
     67  O        -38.7370  -52.1080   80.1690 O.2   321  LEU321     -0.2718
     68  CB       -40.6720  -52.3440   82.6230 C.3   321  LEU321      0.0284
     69  CG       -41.0980  -53.4680   83.5650 C.3   321  LEU321      0.0019
     70  CD1      -42.6060  -53.4940   83.7180 C.3   321  LEU321      0.0001
     71  CD2      -40.5890  -54.8000   83.0400 C.3   321  LEU321      0.0001
     72  N        -38.7000  -50.1070   81.2070 N.am  322  HIS322     -0.1976
     73  CA       -38.3880  -49.3890   79.9780 C.3   322  HIS322      0.1656
     74  C        -36.9660  -49.6700   79.5080 C.2   322  HIS322      0.2291
     75  O        -36.7090  -49.6920   78.2990 O.2   322  HIS322     -0.2864
     76  CB       -38.6040  -47.8910   80.1850 C.3   322  HIS322      0.0771
     77  CG       -40.0320  -47.5160   80.4270 C.ar  322  HIS322      0.0820
     78  ND1      -40.9580  -47.4180   79.4110 N.ar  322  HIS322     -0.2267
     79  CD2      -40.6950  -47.2170   81.5690 C.ar  322  HIS322      0.1154
     80  CE1      -42.1290  -47.0760   79.9160 C.ar  322  HIS322      0.1986
     81  NE2      -41.9970  -46.9470   81.2240 N.ar  322  HIS322     -0.2212
     82  N        -35.3340  -52.6170   80.1300 N.3   324  GLN324     -0.1231
     83  CA       -35.3850  -53.9830   79.6190 C.3   324  GLN324      0.1698
     84  C        -36.0650  -54.0350   78.2580 C.2   324  GLN324      0.2592
     85  O        -35.6730  -54.8210   77.3870 O.2   324  GLN324     -0.2718
     86  CB       -36.1070  -54.8910   80.6150 C.3   324  GLN324      0.0381
     87  CG       -35.4020  -55.0310   81.9520 C.3   324  GLN324      0.0905
     88  CD       -36.1370  -55.9550   82.9020 C.2   324  GLN324      0.2608
     89  OE1      -37.2340  -56.4270   82.6030 O.2   324  GLN324     -0.2717
     90  NE2      -35.5340  -56.2200   84.0550 N.am  324  GLN324     -0.0878
     91  N        -37.0920  -53.2060   78.0580 N.am  325  LEU325     -0.1980
     92  CA       -37.7140  -53.1070   76.7430 C.3   325  LEU325      0.1596
     93  C        -36.7690  -52.4490   75.7440 C.2   325  LEU325      0.2287
     94  O        -36.7330  -52.8330   74.5680 O.2   325  LEU325     -0.2864
     95  CB       -39.0270  -52.3300   76.8490 C.3   325  LEU325      0.0297
     96  CG       -39.9810  -52.3480   75.6560 C.3   325  LEU325      0.0022
     97  CD1      -40.1280  -53.7540   75.1130 C.3   325  LEU325      0.0001
     98  CD2      -41.3350  -51.8080   76.0750 C.3   325  LEU325      0.0001
     99  N        -34.4830  -55.3890   74.8400 N.3   328  ALA328     -0.1231
    100  CA       -35.1330  -56.5080   74.1660 C.3   328  ALA328      0.1694
    101  C        -35.5210  -56.1420   72.7400 C.2   328  ALA328      0.2591
    102  O        -35.4200  -56.9730   71.8310 O.2   328  ALA328     -0.2718
    103  CB       -36.3560  -56.9620   74.9610 C.3   328  ALA328      0.0304
    104  N        -35.9700  -54.9060   72.5240 N.am  329  LEU329     -0.1980
    105  CA       -36.2570  -54.4250   71.1800 C.3   329  LEU329      0.1596
    106  C        -35.0100  -53.9560   70.4450 C.2   329  LEU329      0.2287
    107  O        -35.1170  -53.5120   69.2970 O.2   329  LEU329     -0.2864
    108  CB       -37.2780  -53.2850   71.2290 C.3   329  LEU329      0.0297
    109  CG       -38.6390  -53.5930   71.8530 C.3   329  LEU329      0.0022
    110  CD1      -39.5810  -52.4080   71.6910 C.3   329  LEU329      0.0001
    111  CD2      -39.2420  -54.8540   71.2540 C.3   329  LEU329      0.0001
@<TRIPOS>BOND
     1   107   106    2
     2    55    54   ar
     3    55    53   ar
     4   106   105    1
     5    54    52   ar
     6    59    58    2
     7    49    48    2
     8   105   108    1
     9   105   104    1
    10   108   109    1
    11   111   109    1
    12    53    51   ar
    13   110   109    1
    14    52    51   ar
    15   102   101    2
    16    58    57    1
    17    51    50    1
    18    63    61    1
    19    57    56    1
    20    57    60    1
    21    48    56   am
    22    48    47    1
    23   104   101   am
    24   101   100    1
    25    47    50    1
    26    47    46    1
    27    60    61    1
    28    61    62    1
    29     9    10   ar
    30     9     7   ar
    31   100    99    1
    32   100   103    1
    33    10     8   ar
    34    94    93    2
    35     7     6   ar
    36    97    96    1
    37     8     6   ar
    38     6     5    1
    39    96    98    1
    40    96    95    1
    41    93    92    1
    42    39    38    2
    43     5     2    1
    44    33    32    2
    45    92    95    1
    46    92    91    1
    47    38    37    1
    48    35    34    1
    49    85    84    2
    50    37    36    1
    51    37    40    1
    52     1     2    1
    53    32    36   am
    54    32    31    1
    55    43    45   ar
    56    43    41   ar
    57     2     3    1
    58    91    84   am
    59    45    44   ar
    60    84    83    1
    61    75    74    2
    62    40    41    1
    63    41    42   ar
    64    34    31    1
    65    31    30    1
    66     3     4    2
    67    44    42   ar
    68    78    80   ar
    69    78    77   ar
    70    74    73    1
    71    83    82    1
    72    83    86    1
    73    80    81   ar
    74    20    21   ar
    75    20    18   ar
    76    73    76    1
    77    73    72    1
    78    21    19   ar
    79    67    66    2
    80    76    77    1
    81    77    79   ar
    82    25    24    2
    83    86    87    1
    84    18    16   ar
    85    19    17   ar
    86    66    72   am
    87    66    65    1
    88    81    79   ar
    89    28    26    1
    90    11    12    1
    91    24    23    1
    92    16    17   ar
    93    16    15    1
    94    87    88    1
    95    23    26    1
    96    23    22    1
    97    27    26    1
    98    27    29    1
    99    65    68    1
   100    65    64    1
   101    89    88    2
   102    68    69    1
   103    88    90   am
   104    12    15    1
   105    12    13    1
   106    71    69    1
   107    69    70    1
   108    13    14    2
