@<TRIPOS>MOLECULE
tmp/6fosE27.pdb
 132 130 0 0 0
SMALL
GASTEIGER

@<TRIPOS>ATOM
      1  N        -64.3830  -34.6750   75.3370 N.3    11  THR11      -0.1218
      2  CA       -64.1930  -35.8980   74.5650 C.3    11  THR11       0.1862
      3  C        -62.7550  -36.3960   74.6170 C.2    11  THR11       0.2287
      4  O        -62.5110  -37.5770   74.3470 O.2    11  THR11      -0.2866
      5  CB       -64.5980  -35.6770   73.1070 C.3    11  THR11       0.1770
      6  OG1      -63.7790  -34.6490   72.5340 O.3    11  THR11      -0.2211
      7  CG2      -66.0590  -35.2640   73.0160 C.3    11  THR11       0.0375
      8  N        -61.5610  -39.8560   76.1920 N.3    14  ILE14      -0.1231
      9  CA       -61.6030  -41.1480   75.5130 C.3    14  ILE14       0.1692
     10  C        -60.2780  -41.4360   74.8180 C.2    14  ILE14       0.2592
     11  O        -59.7820  -42.5690   74.8450 O.2    14  ILE14      -0.2718
     12  CB       -62.7820  -41.1970   74.5220 C.3    14  ILE14       0.0266
     13  CG1      -64.1210  -41.1580   75.2640 C.3    14  ILE14       0.0019
     14  CG2      -62.6970  -42.4360   73.6420 C.3    14  ILE14       0.0020
     15  CD1      -64.7110  -39.7720   75.4020 C.3    14  ILE14       0.0001
     16  N        -59.6810  -40.4180   74.1930 N.am   15  TRP15      -0.1976
     17  CA       -58.4670  -40.6250   73.4070 C.3    15  TRP15       0.1640
     18  C        -57.3390  -41.1770   74.2710 C.2    15  TRP15       0.2290
     19  O        -56.7910  -42.2490   73.9880 O.2    15  TRP15      -0.2864
     20  CB       -58.0560  -39.3170   72.7310 C.3    15  TRP15       0.0576
     21  CG       -59.0740  -38.8260   71.7480 C.ar   15  TRP15       0.0006
     22  CD1      -59.9790  -37.8210   71.9350 C.ar   15  TRP15       0.0946
     23  CD2      -59.3050  -39.3320   70.4280 C.ar   15  TRP15       0.0152
     24  NE1      -60.7520  -37.6650   70.8100 N.ar   15  TRP15      -0.2442
     25  CE2      -60.3590  -38.5810   69.8700 C.ar   15  TRP15       0.0810
     26  CE3      -58.7200  -40.3450   69.6620 C.ar   15  TRP15       0.0012
     27  CZ2      -60.8400  -38.8110   68.5820 C.ar   15  TRP15       0.0191
     28  CZ3      -59.1990  -40.5720   68.3830 C.ar   15  TRP15       0.0001
     29  CH2      -60.2490  -39.8080   67.8570 C.ar   15  TRP15       0.0015
     30  N        -64.6440  -25.2620   66.1330 N.3   666  ILE666     -0.1245
     31  CA       -65.5720  -26.1520   66.8250 C.3   666  ILE666      0.1561
     32  C        -66.5170  -25.3560   67.7160 C.2   666  ILE666      0.2260
     33  O        -67.6760  -25.7450   67.9120 O.2   666  ILE666     -0.2867
     34  CB       -64.7860  -27.2190   67.6190 C.3   666  ILE666      0.0252
     35  CG1      -64.1010  -28.1960   66.6590 C.3   666  ILE666      0.0019
     36  CG2      -65.6940  -27.9790   68.5740 C.3   666  ILE666      0.0019
     37  CD1      -63.1430  -29.1510   67.3390 C.3   666  ILE666      0.0001
     38  N        -69.2720  -24.3580   65.5510 N.3   669  LEU669     -0.1231
     39  CA       -70.1290  -25.5170   65.3220 C.3   669  LEU669      0.1693
     40  C        -71.0410  -25.7730   66.5150 C.2   669  LEU669      0.2591
     41  O        -72.2310  -26.0640   66.3450 O.2   669  LEU669     -0.2718
     42  CB       -69.2750  -26.7520   65.0300 C.3   669  LEU669      0.0284
     43  CG       -68.2940  -26.6610   63.8600 C.3   669  LEU669      0.0019
     44  CD1      -67.5300  -27.9670   63.6990 C.3   669  LEU669      0.0001
     45  CD2      -69.0220  -26.3010   62.5770 C.3   669  LEU669      0.0001
     46  N        -70.4990  -25.6680   67.7320 N.am  670  ALA670     -0.1980
     47  CA       -71.3140  -25.8700   68.9260 C.3   670  ALA670      0.1597
     48  C        -72.3660  -24.7770   69.0680 C.2   670  ALA670      0.2287
     49  O        -73.4930  -25.0460   69.4990 O.2   670  ALA670     -0.2864
     50  CB       -70.4240  -25.9260   70.1670 C.3   670  ALA670      0.0319
     51  N        -75.1450  -25.5810   66.9670 N.3   673  HIS673     -0.1241
     52  CA       -75.8610  -26.7640   67.4340 C.3   673  HIS673      0.1621
     53  C        -77.1010  -26.3760   68.2320 C.2   673  HIS673      0.2264
     54  O        -78.2220  -26.7740   67.8960 O.2   673  HIS673     -0.2867
     55  CB       -74.9270  -27.6430   68.2700 C.3   673  HIS673      0.0745
     56  CG       -75.4960  -28.9870   68.6010 C.ar  673  HIS673      0.0817
     57  ND1      -75.7250  -29.9540   67.6450 N.ar  673  HIS673     -0.2268
     58  CD2      -75.8800  -29.5280   69.7810 C.ar  673  HIS673      0.1154
     59  CE1      -76.2260  -31.0310   68.2220 C.ar  673  HIS673      0.1986
     60  NE2      -76.3300  -30.7990   69.5180 N.ar  673  HIS673     -0.2212
     61  N        -81.2750  -32.1090   70.7380 N.3   682  ILE682     -0.1231
     62  CA       -80.2260  -33.1180   70.8270 C.3   682  ILE682      0.1692
     63  C        -79.0340  -32.5270   71.5680 C.2   682  ILE682      0.2592
     64  O        -78.5480  -31.4430   71.2210 O.2   682  ILE682     -0.2718
     65  CB       -79.8210  -33.6120   69.4290 C.3   682  ILE682      0.0266
     66  CG1      -81.0370  -34.1970   68.7060 C.3   682  ILE682      0.0019
     67  CG2      -78.7050  -34.6410   69.5290 C.3   682  ILE682      0.0020
     68  CD1      -80.7540  -34.6560   67.2950 C.3   682  ILE682      0.0001
     69  N        -78.5650  -33.2370   72.5920 N.am  683  ARG683     -0.1966
     70  CA       -77.4590  -32.7890   73.4240 C.3   683  ARG683      0.1729
     71  C        -76.4420  -33.9110   73.5670 C.2   683  ARG683      0.2616
     72  O        -76.7970  -35.0920   73.6100 O.2   683  ARG683     -0.2715
     73  CB       -77.9510  -32.3440   74.8090 C.3   683  ARG683      0.0348
     74  CG       -79.0490  -31.2930   74.7630 C.3   683  ARG683      0.0492
     75  CD       -78.4880  -29.9090   74.4690 C.3   683  ARG683      0.2205
     76  NE       -79.5220  -28.9740   74.0310 N.pl3 683  ARG683     -0.0865
     77  CZ       -80.4320  -28.4280   74.8320 C.cat 683  ARG683      0.5346
     78  NH1      -80.4530  -28.7290   76.1230 N.pl3 683  ARG683      0.1354
     79  NH2      -81.3290  -27.5850   74.3400 N.pl3 683  ARG683      0.1354
     80  N        -75.1700  -33.5320   73.6450 N.am  684  TRP684     -0.1960
     81  CA       -74.0810  -34.4940   73.7110 C.3   684  TRP684      0.1771
     82  C        -73.8250  -34.8990   75.1630 C.2   684  TRP684      0.2620
     83  O        -74.6280  -34.6310   76.0610 O.2   684  TRP684     -0.2715
     84  CB       -72.8250  -33.9130   73.0650 C.3   684  TRP684      0.0590
     85  CG       -72.2640  -32.7370   73.8070 C.ar  684  TRP684      0.0006
     86  CD1      -71.4390  -32.7710   74.8930 C.ar  684  TRP684      0.0946
     87  CD2      -72.4880  -31.3530   73.5170 C.ar  684  TRP684      0.0152
     88  NE1      -71.1360  -31.4960   75.2990 N.ar  684  TRP684     -0.2442
     89  CE2      -71.7670  -30.6060   74.4700 C.ar  684  TRP684      0.0810
     90  CE3      -73.2260  -30.6730   72.5450 C.ar  684  TRP684      0.0012
     91  CZ2      -71.7630  -29.2150   74.4790 C.ar  684  TRP684      0.0191
     92  CZ3      -73.2210  -29.2920   72.5560 C.ar  684  TRP684      0.0001
     93  CH2      -72.4930  -28.5770   73.5170 C.ar  684  TRP684      0.0015
     94  N        -72.6870  -35.5550   75.4030 N.am  685  LYS685     -0.1963
     95  CA       -72.2670  -35.9170   76.7540 C.3   685  LYS685      0.1728
     96  C        -70.9360  -35.2570   77.0930 C.2   685  LYS685      0.2616
     97  O        -70.9000  -34.3640   77.9420 O.2   685  LYS685     -0.2715
     98  CB       -72.1920  -37.4380   76.8970 C.3   685  LYS685      0.0311
     99  CG       -71.7400  -37.9120   78.2700 C.3   685  LYS685      0.0038
    100  CD       -72.7280  -37.5040   79.3520 C.3   685  LYS685      0.0206
    101  CE       -74.0880  -38.1470   79.1290 C.3   685  LYS685      0.1093
    102  NZ       -75.0620  -37.7730   80.1920 N.3   685  LYS685     -0.1314
    103  N        -69.8390  -35.6650   76.4580 N.am  686  ASP686     -0.1971
    104  CA       -68.5410  -35.0420   76.6700 C.3   686  ASP686      0.1709
    105  C        -68.3910  -33.8460   75.7380 C.2   686  ASP686      0.2293
    106  O        -68.7090  -33.9370   74.5480 O.2   686  ASP686     -0.2864
    107  CB       -67.4130  -36.0470   76.4360 C.3   686  ASP686      0.1436
    108  CG       -67.3580  -37.1210   77.5050 C.2   686  ASP686      0.3671
    109  OD1      -67.7170  -36.8270   78.6640 O.co2 686  ASP686     -0.2456
    110  OD2      -66.9550  -38.2590   77.1860 O.co2 686  ASP686     -0.2456
    111  N        -67.3350  -31.2600   73.1240 N.3   688  PRO688     -0.2102
    112  CA       -66.4880  -31.4210   71.9310 C.3   688  PRO688      0.1504
    113  C        -65.2560  -30.5320   72.0080 C.2   688  PRO688      0.2575
    114  O        -65.3620  -29.3060   72.0810 O.2   688  PRO688     -0.2718
    115  CB       -67.4140  -31.0040   70.7810 C.3   688  PRO688      0.0282
    116  CG       -68.8010  -31.1200   71.3350 C.3   688  PRO688      0.0208
    117  CD       -68.6790  -30.7670   72.7840 C.3   688  PRO688      0.0893
    118  N        -64.0810  -31.1610   71.9890 N.am  689  VAL689     -0.1980
    119  CA       -62.8090  -30.4530   71.9720 C.3   689  VAL689      0.1595
    120  C        -61.9240  -31.0690   70.8980 C.2   689  VAL689      0.2287
    121  O        -62.1750  -32.1700   70.4030 O.2   689  VAL689     -0.2864
    122  CB       -62.0910  -30.4880   73.3390 C.3   689  VAL689      0.0276
    123  CG1      -62.9090  -29.7550   74.3920 C.3   689  VAL689      0.0022
    124  CG2      -61.8200  -31.9250   73.7600 C.3   689  VAL689      0.0022
    125  N        -58.1300  -32.4410   69.3800 N.3   691  LEU691     -0.1245
    126  CA       -57.1590  -33.4060   69.8760 C.3   691  LEU691      0.1561
    127  C        -56.0850  -32.7140   70.7070 C.2   691  LEU691      0.2260
    128  O        -55.7710  -31.5380   70.5040 O.2   691  LEU691     -0.2867
    129  CB       -56.5110  -34.1650   68.7160 C.3   691  LEU691      0.0270
    130  CG       -57.1970  -35.4390   68.2150 C.3   691  LEU691      0.0019
    131  CD1      -58.5620  -35.1400   67.6160 C.3   691  LEU691      0.0001
    132  CD2      -56.3130  -36.1570   67.2060 C.3   691  LEU691      0.0001
@<TRIPOS>BOND
     1    45    43    1
     2    44    43    1
     3    43    42    1
     4    42    39    1
     5    39    38    1
     6    39    40    1
     7    30    31    1
     8    41    40    2
     9    40    46   am
    10    35    37    1
    11    35    34    1
    12    31    34    1
    13    31    32    1
    14    51    52    1
    15   132   130    1
    16    68    66    1
    17    52    53    1
    18    52    55    1
    19   131   130    1
    20    34    36    1
    21    57    59   ar
    22    57    56   ar
    23    32    33    2
    24    46    47    1
    25    29    28   ar
    26    29    27   ar
    27    54    53    2
    28   130   129    1
    29    59    60   ar
    30    55    56    1
    31    28    26   ar
    32    27    25   ar
    33    56    58   ar
    34    66    65    1
    35   129   126    1
    36    47    48    1
    37    47    50    1
    38    48    49    2
    39   125   126    1
    40    65    67    1
    41    65    62    1
    42    60    58   ar
    43    26    23   ar
    44    25    23   ar
    45    25    24   ar
    46   126   127    1
    47   121   120    2
    48    23    21   ar
    49   128   127    2
    50    61    62    1
    51   115   116    1
    52   115   112    1
    53    24    22   ar
    54    62    63    1
    55   120   119    1
    56    64    63    2
    57   116   117    1
    58    63    69   am
    59    21    22   ar
    60    21    20    1
    61   112   113    1
    62   112   111    1
    63   119   118    1
    64   119   122    1
    65   118   113   am
    66   113   114    2
    67     6     5    1
    68    90    92   ar
    69    90    87   ar
    70    92    93   ar
    71    69    70    1
    72    20    17    1
    73   117   111    1
    74     7     5    1
    75    84    81    1
    76    84    85    1
    77     5     2    1
    78   122   124    1
    79   122   123    1
    80    17    16    1
    81    17    18    1
    82    70    71    1
    83    70    73    1
    84    93    91   ar
    85    87    85   ar
    86    87    89   ar
    87    71    72    2
    88    71    80   am
    89    14    12    1
    90    80    81    1
    91    81    82    1
    92    85    86   ar
    93    19    18    2
    94    76    75    1
    95    76    77    2
    96    16    10   am
    97    79    77    1
    98     4     3    2
    99    75    74    1
   100    89    91   ar
   101    89    88   ar
   102    12    13    1
   103    12     9    1
   104   106   105    2
   105     2     3    1
   106     2     1    1
   107    74    73    1
   108    10    11    2
   109    10     9    1
   110    77    78    1
   111    86    88   ar
   112    82    94   am
   113    82    83    2
   114    13    15    1
   115    94    95    1
   116     9     8    1
   117   105   104    1
   118   107   104    1
   119   107   108    1
   120   103   104    1
   121   103    96   am
   122    95    98    1
   123    95    96    1
   124    98    99    1
   125    96    97    2
   126   110   108   ar
   127   108   109   ar
   128    99   100    1
   129   101   100    1
   130   101   102    1
