@<TRIPOS>MOLECULE
tmp/6fosM04.pdb
 87 85 0 0 0
SMALL
GASTEIGER

@<TRIPOS>ATOM
      1  N        -91.0420  -41.9610   54.8650 N.3    56  TYR56      -0.1227
      2  CA       -91.8070  -41.7440   53.6430 C.3    56  TYR56       0.1736
      3  C        -90.8950  -41.4150   52.4670 C.2    56  TYR56       0.2595
      4  O        -91.1580  -41.8400   51.3360 O.2    56  TYR56      -0.2718
      5  CB       -92.8310  -40.6300   53.8570 C.3    56  TYR56       0.0548
      6  CG       -93.7810  -40.4380   52.6970 C.ar   56  TYR56      -0.0200
      7  CD1      -94.9250  -41.2160   52.5760 C.ar   56  TYR56      -0.0009
      8  CD2      -93.5350  -39.4790   51.7240 C.ar   56  TYR56      -0.0009
      9  CE1      -95.7970  -41.0450   51.5180 C.ar   56  TYR56       0.0417
     10  CE2      -94.4010  -39.3010   50.6620 C.ar   56  TYR56       0.0417
     11  CZ       -95.5290  -40.0860   50.5640 C.ar   56  TYR56       0.1957
     12  OH       -96.3940  -39.9120   49.5080 O.3    56  TYR56      -0.2866
     13  N        -89.8210  -40.6620   52.7080 N.am   57  PHE57      -0.1976
     14  CA       -88.8910  -40.3030   51.6460 C.3    57  PHE57       0.1639
     15  C        -87.6240  -41.1470   51.6430 C.2    57  PHE57       0.2290
     16  O        -86.8480  -41.0590   50.6850 O.2    57  PHE57      -0.2864
     17  CB       -88.5130  -38.8150   51.7370 C.3    57  PHE57       0.0560
     18  CG       -87.4830  -38.5030   52.7900 C.ar   57  PHE57      -0.0200
     19  CD1      -87.8690  -38.1800   54.0770 C.ar   57  PHE57      -0.0042
     20  CD2      -86.1300  -38.5080   52.4850 C.ar   57  PHE57      -0.0042
     21  CE1      -86.9280  -37.8870   55.0450 C.ar   57  PHE57      -0.0003
     22  CE2      -85.1860  -38.2210   53.4490 C.ar   57  PHE57      -0.0003
     23  CZ       -85.5860  -37.9100   54.7310 C.ar   57  PHE57      -0.0000
     24  N        -87.4150  -44.0570   50.9440 N.3    59  ILE59      -0.1231
     25  CA       -87.5090  -44.8780   49.7460 C.3    59  ILE59       0.1692
     26  C        -86.8960  -44.1750   48.5400 C.2    59  ILE59       0.2593
     27  O        -86.4580  -44.8390   47.5930 O.2    59  ILE59      -0.2718
     28  CB       -88.9860  -45.2430   49.4900 C.3    59  ILE59       0.0266
     29  CG1      -89.1270  -46.2080   48.3110 C.3    59  ILE59       0.0019
     30  CG2      -89.8170  -43.9880   49.2580 C.3    59  ILE59       0.0020
     31  CD1      -88.7040  -47.6200   48.6260 C.3    59  ILE59       0.0001
     32  N        -86.8250  -42.8460   48.5670 N.am   60  GLY60      -0.1943
     33  CA       -86.4250  -42.0540   47.4270 C.3    60  GLY60       0.1998
     34  C        -85.0450  -42.3360   46.8600 C.2    60  GLY60       0.2480
     35  O        -84.9060  -42.7310   45.6980 O.2    60  GLY60      -0.2729
     36  N        -83.9940  -42.1200   47.6620 N.am   61  PRO61      -0.2726
     37  CA       -82.6300  -42.1510   47.0940 C.3    61  PRO61       0.1402
     38  C        -82.2500  -43.4630   46.4230 C.2    61  PRO61       0.2269
     39  O        -81.7180  -43.4480   45.3050 O.2    61  PRO61      -0.2865
     40  CB       -81.7460  -41.8580   48.3150 C.3    61  PRO61       0.0296
     41  CG       -82.6240  -41.0960   49.2410 C.3    61  PRO61       0.0237
     42  CD       -83.9900  -41.6910   49.0710 C.3    61  PRO61       0.0939
     43  N        -83.9880  -45.8320   45.0930 N.3    63  VAL63      -0.1231
     44  CA       -84.7840  -46.3230   43.9720 C.3    63  VAL63       0.1692
     45  C        -84.1410  -45.9400   42.6450 C.2    63  VAL63       0.2592
     46  O        -84.1090  -46.7410   41.7030 O.2    63  VAL63      -0.2718
     47  CB       -86.2310  -45.8050   44.0790 C.3    63  VAL63       0.0266
     48  CG1      -86.9150  -45.8230   42.7200 C.3    63  VAL63       0.0020
     49  CG2      -87.0180  -46.6490   45.0680 C.3    63  VAL63       0.0020
     50  N        -83.5990  -44.7260   42.5520 N.am   64  GLN64      -0.1966
     51  CA       -83.0290  -44.2240   41.3090 C.3    64  GLN64       0.1733
     52  C        -81.5100  -44.1740   41.2950 C.2    64  GLN64       0.2616
     53  O        -80.9190  -44.2560   40.2170 O.2    64  GLN64      -0.2715
     54  CB       -83.5650  -42.8180   41.0090 C.3    64  GLN64       0.0408
     55  CG       -85.0690  -42.7430   40.8170 C.3    64  GLN64       0.0908
     56  CD       -85.5480  -41.3320   40.5360 C.2    64  GLN64       0.2608
     57  OE1      -84.7680  -40.3800   40.5790 O.2    64  GLN64      -0.2717
     58  NE2      -86.8350  -41.1900   40.2440 N.am   64  GLN64      -0.0878
     59  N        -80.8590  -44.0420   42.4530 N.am   65  LEU65      -0.1977
     60  CA       -79.4190  -43.8360   42.4980 C.3    65  LEU65       0.1596
     61  C        -78.6480  -44.8920   43.2760 C.2    65  LEU65       0.2287
     62  O        -77.4170  -44.9210   43.1730 O.2    65  LEU65      -0.2864
     63  CB       -79.0900  -42.4570   43.0960 C.3    65  LEU65       0.0297
     64  CG       -79.2440  -41.2270   42.1970 C.3    65  LEU65       0.0022
     65  CD1      -80.7010  -40.8060   42.0670 C.3    65  LEU65       0.0001
     66  CD2      -78.3930  -40.0760   42.7140 C.3    65  LEU65       0.0001
     67  N        -95.4190  -44.7070   51.0510 N.3   132  ALA132     -0.1245
     68  CA       -94.9390  -44.3270   49.7290 C.3   132  ALA132      0.1562
     69  C        -94.6190  -45.5350   48.8610 C.2   132  ALA132      0.2260
     70  O        -94.3190  -45.3650   47.6740 O.2   132  ALA132     -0.2867
     71  CB       -93.7020  -43.4350   49.8510 C.3   132  ALA132      0.0290
     72  N        -97.6040  -46.1270   46.3080 N.3   135  LEU135     -0.1231
     73  CA       -98.0110  -44.9140   45.6100 C.3   135  LEU135      0.1693
     74  C        -97.5900  -44.8910   44.1480 C.2   135  LEU135      0.2591
     75  O        -98.3070  -44.3200   43.3200 O.2   135  LEU135     -0.2718
     76  CB       -97.4440  -43.6790   46.3220 C.3   135  LEU135      0.0284
     77  CG       -98.0050  -42.3080   45.9290 C.3   135  LEU135      0.0019
     78  CD1      -98.1480  -41.4250   47.1570 C.3   135  LEU135      0.0001
     79  CD2      -97.1250  -41.6270   44.8890 C.3   135  LEU135      0.0001
     80  N        -96.4530  -45.4950   43.8080 N.am  136  LEU136     -0.1980
     81  CA       -95.9530  -45.5200   42.4400 C.3   136  LEU136      0.1596
     82  C        -96.2150  -46.8480   41.7410 C.2   136  LEU136      0.2287
     83  O        -95.6200  -47.1110   40.6910 O.2   136  LEU136     -0.2864
     84  CB       -94.4530  -45.2120   42.4240 C.3   136  LEU136      0.0297
     85  CG       -94.0060  -43.8390   42.9290 C.3   136  LEU136      0.0022
     86  CD1      -92.4880  -43.7560   42.9440 C.3   136  LEU136      0.0001
     87  CD2      -94.5970  -42.7300   42.0730 C.3   136  LEU136      0.0001
@<TRIPOS>BOND
     1    53    52    2
     2    58    56   am
     3    56    57    2
     4    56    55    1
     5    83    82    2
     6    55    54    1
     7    54    51    1
     8    52    51    1
     9    52    59   am
    10    51    50    1
    11    46    45    2
    12    82    81    1
    13    65    64    1
    14    87    85    1
    15    64    66    1
    16    64    63    1
    17    84    81    1
    18    84    85    1
    19    81    80    1
    20    59    60    1
    21    60    63    1
    22    60    61    1
    23    50    45   am
    24    45    44    1
    25    48    47    1
    26    85    86    1
    27    62    61    2
    28    75    74    2
    29    80    74   am
    30    44    47    1
    31    44    43    1
    32    47    49    1
    33    74    73    1
    34    79    77    1
    35    39    38    2
    36    73    72    1
    37    73    76    1
    38    35    34    2
    39    77    76    1
    40    77    78    1
    41    38    37    1
    42    34    33    1
    43    34    36   am
    44    37    36    1
    45    37    40    1
    46    33    32    1
    47    27    26    2
    48    36    42    1
    49    70    69    2
    50    29    31    1
    51    29    28    1
    52    40    41    1
    53    26    32   am
    54    26    25    1
    55    69    68    1
    56    42    41    1
    57    30    28    1
    58    28    25    1
    59    12    11    1
    60    68    71    1
    61    68    67    1
    62    25    24    1
    63    11    10   ar
    64    11     9   ar
    65    10     8   ar
    66    16    15    2
    67     4     3    2
    68     9     7   ar
    69    15    14    1
    70    14    17    1
    71    14    13    1
    72     8     6   ar
    73    17    18    1
    74     3    13   am
    75     3     2    1
    76    20    18   ar
    77    20    22   ar
    78     7     6   ar
    79     6     5    1
    80    18    19   ar
    81    22    23   ar
    82     2     5    1
    83     2     1    1
    84    19    21   ar
    85    23    21   ar
