@<TRIPOS>MOLECULE
tmp/6fosB06.pdb
 80 75 0 0 0
SMALL
GASTEIGER

@<TRIPOS>ATOM
      1  N        -51.3660   31.4430   35.9500 N.3    20  GLU20      -0.1231
      2  CA       -50.7100   30.8220   34.8060 C.3    20  GLU20       0.1699
      3  C        -51.4130   31.1790   33.5030 C.2    20  GLU20       0.2592
      4  O        -50.7580   31.4540   32.4920 O.2    20  GLU20      -0.2718
      5  CB       -50.6500   29.3030   35.0010 C.3    20  GLU20       0.0402
      6  CG       -51.9920   28.6010   35.1520 C.3    20  GLU20       0.1161
      7  CD       -52.4330   27.9040   33.8770 C.2    20  GLU20       0.3649
      8  OE1      -52.0910   28.3900   32.7790 O.co2  20  GLU20      -0.2457
      9  OE2      -53.1150   26.8630   33.9730 O.co2  20  GLU20      -0.2457
     10  N        -52.7420   31.1870   33.5070 N.am   21  ALA21      -0.1980
     11  CA       -53.5260   31.5510   32.3360 C.3    21  ALA21       0.1597
     12  C        -54.1510   32.9310   32.4430 C.2    21  ALA21       0.2287
     13  O        -54.1900   33.6630   31.4530 O.2    21  ALA21      -0.2864
     14  CB       -54.6290   30.5140   32.0970 C.3    21  ALA21       0.0319
     15  N        -51.7490   36.0810   31.7330 N.3    24  LYS24      -0.1231
     16  CA       -51.2790   36.1780   30.3570 C.3    24  LYS24       0.1693
     17  C        -52.3940   36.1290   29.3200 C.2    24  LYS24       0.2592
     18  O        -52.1010   36.2060   28.1240 O.2    24  LYS24      -0.2718
     19  CB       -50.2760   35.0590   30.0580 C.3    24  LYS24       0.0285
     20  CG       -48.8600   35.3550   30.5060 C.3    24  LYS24       0.0035
     21  CD       -47.8770   34.3520   29.9260 C.3    24  LYS24       0.0206
     22  CE       -46.4420   34.7420   30.2400 C.3    24  LYS24       0.1093
     23  NZ       -45.4640   33.7700   29.6830 N.3    24  LYS24      -0.1314
     24  N        -53.6580   36.0060   29.7350 N.am   25  HIS25      -0.1976
     25  CA       -54.7270   35.8380   28.7540 C.3    25  HIS25       0.1656
     26  C        -54.9430   37.0950   27.9220 C.2    25  HIS25       0.2291
     27  O        -55.3400   37.0020   26.7550 O.2    25  HIS25      -0.2864
     28  CB       -56.0230   35.4220   29.4460 C.3    25  HIS25       0.0771
     29  CG       -56.3270   33.9630   29.3120 C.ar   25  HIS25       0.0820
     30  ND1      -55.3480   32.9950   29.3620 N.ar   25  HIS25      -0.2267
     31  CD2      -57.4960   33.3080   29.1190 C.ar   25  HIS25       0.1154
     32  CE1      -55.9010   31.8050   29.2080 C.ar   25  HIS25       0.1986
     33  NE2      -57.2030   31.9670   29.0610 N.ar   25  HIS25      -0.2212
     34  N        -51.5470   36.9370   25.8320 N.3    28  VAL28      -0.1245
     35  CA       -51.6210   35.9250   24.7830 C.3    28  VAL28       0.1561
     36  C        -52.4180   36.4440   23.5930 C.2    28  VAL28       0.2260
     37  O        -52.1280   36.1010   22.4390 O.2    28  VAL28      -0.2867
     38  CB       -52.2140   34.6230   25.3610 C.3    28  VAL28       0.0252
     39  CG1      -52.9370   33.8200   24.2940 C.3    28  VAL28       0.0019
     40  CG2      -51.1180   33.7900   26.0120 C.3    28  VAL28       0.0019
     41  N        -50.3270   38.5670   20.8800 N.3    31  LEU31      -0.1245
     42  CA       -49.7130   37.8340   19.7820 C.3    31  LEU31       0.1561
     43  C        -50.7280   37.0850   18.9290 C.2    31  LEU31       0.2260
     44  O        -50.3300   36.3720   18.0010 O.2    31  LEU31      -0.2867
     45  CB       -48.6360   36.8720   20.3080 C.3    31  LEU31       0.0270
     46  CG       -48.9460   35.7750   21.3280 C.3    31  LEU31       0.0019
     47  CD1      -49.4100   34.4950   20.6480 C.3    31  LEU31       0.0001
     48  CD2      -47.7190   35.5080   22.1900 C.3    31  LEU31       0.0001
     49  N        -41.0380   29.5450   24.0750 N.3    74  LEU74      -0.1231
     50  CA       -42.2830   30.0270   24.6630 C.3    74  LEU74       0.1693
     51  C        -42.4970   29.4170   26.0430 C.2    74  LEU74       0.2592
     52  O        -42.7470   30.1310   27.0210 O.2    74  LEU74      -0.2718
     53  CB       -43.4510   29.7050   23.7260 C.3    74  LEU74       0.0284
     54  CG       -44.8960   29.9660   24.1580 C.3    74  LEU74       0.0019
     55  CD1      -45.4830   28.7510   24.8820 C.3    74  LEU74       0.0001
     56  CD2      -44.9970   31.2390   25.0000 C.3    74  LEU74       0.0001
     57  N        -42.4040   28.0890   26.1340 N.am   75  PHE75      -0.1976
     58  CA       -42.4900   27.4240   27.4290 C.3    75  PHE75       0.1639
     59  C        -41.4210   27.9440   28.3810 C.2    75  PHE75       0.2290
     60  O        -41.7040   28.2370   29.5480 O.2    75  PHE75      -0.2864
     61  CB       -42.3660   25.9110   27.2480 C.3    75  PHE75       0.0560
     62  CG       -43.5780   25.2690   26.6340 C.ar   75  PHE75      -0.0200
     63  CD1      -44.8530   25.6620   27.0080 C.ar   75  PHE75      -0.0042
     64  CD2      -43.4420   24.2740   25.6790 C.ar   75  PHE75      -0.0042
     65  CE1      -45.9690   25.0720   26.4450 C.ar   75  PHE75      -0.0003
     66  CE2      -44.5530   23.6820   25.1120 C.ar   75  PHE75      -0.0003
     67  CZ       -45.8180   24.0810   25.4950 C.ar   75  PHE75      -0.0000
     68  N        -42.4270   31.1720   29.5620 N.3    78  ALA78      -0.1245
     69  CA       -43.5200   31.0250   30.5160 C.3    78  ALA78       0.1562
     70  C        -43.0040   30.5970   31.8840 C.2    78  ALA78       0.2260
     71  O        -43.5270   31.0380   32.9130 O.2    78  ALA78      -0.2867
     72  CB       -44.5470   30.0240   29.9900 C.3    78  ALA78       0.0290
     73  N        -44.7080   32.1400   34.7660 N.3    82  ILE82      -0.1245
     74  CA       -45.8700   31.3270   35.1050 C.3    82  ILE82       0.1561
     75  C        -45.5460   30.3170   36.2000 C.2    82  ILE82       0.2260
     76  O        -46.3560   30.0940   37.1070 O.2    82  ILE82      -0.2867
     77  CB       -46.4160   30.6540   33.8320 C.3    82  ILE82       0.0252
     78  CG1      -47.1380   31.6900   32.9650 C.3    82  ILE82       0.0019
     79  CG2      -47.3090   29.4800   34.1710 C.3    82  ILE82       0.0019
     80  CD1      -47.7230   31.1260   31.6930 C.3    82  ILE82       0.0001
@<TRIPOS>BOND
     1    44    43    2
     2    43    42    1
     3    42    45    1
     4    42    41    1
     5    45    46    1
     6    47    46    1
     7    46    48    1
     8    37    36    2
     9    36    35    1
    10    53    54    1
    11    53    50    1
    12    49    50    1
    13    54    55    1
    14    54    56    1
    15    39    38    1
    16    50    51    1
    17    35    38    1
    18    35    34    1
    19    66    67   ar
    20    66    64   ar
    21    38    40    1
    22    67    65   ar
    23    64    62   ar
    24    51    57   am
    25    51    52    2
    26    57    58    1
    27    65    63   ar
    28    62    63   ar
    29    62    61    1
    30    27    26    2
    31    61    58    1
    32    58    59    1
    33    26    25    1
    34    18    17    2
    35    59    60    2
    36    25    28    1
    37    25    24    1
    38    33    31   ar
    39    33    32   ar
    40    31    29   ar
    41    32    30   ar
    42    29    30   ar
    43    29    28    1
    44    17    24   am
    45    17    16    1
    46    68    69    1
    47    23    22    1
    48    21    22    1
    49    21    20    1
    50    72    69    1
    51    19    16    1
    52    19    20    1
    53    16    15    1
    54    69    70    1
    55    13    12    2
    56    80    78    1
    57    70    71    2
    58    14    11    1
    59    11    12    1
    60    11    10    1
    61     4     3    2
    62     8     7   ar
    63    78    77    1
    64     3    10   am
    65     3     2    1
    66    77    79    1
    67    77    74    1
    68     7     9   ar
    69     7     6    1
    70    73    74    1
    71     2     5    1
    72     2     1    1
    73     5     6    1
    74    74    75    1
    75    75    76    2
