@<TRIPOS>MOLECULE
tmp/6fosE17.pdb
 174 168 0 0 0
SMALL
GASTEIGER

@<TRIPOS>ATOM
      1  N        -53.9860  -65.7590   65.2890 N.3    53  TRP53      -0.1241
      2  CA       -53.8090  -65.2630   63.9300 C.3    53  TRP53       0.1605
      3  C        -52.9980  -66.2330   63.0790 C.2    53  TRP53       0.2264
      4  O        -53.2090  -66.3120   61.8630 O.2    53  TRP53      -0.2867
      5  CB       -53.1700  -63.8730   63.9920 C.3    53  TRP53       0.0550
      6  CG       -52.2030  -63.5330   62.9060 C.ar   53  TRP53       0.0003
      7  CD1      -52.4780  -63.3700   61.5820 C.ar   53  TRP53       0.0946
      8  CD2      -50.8060  -63.2600   63.0640 C.ar   53  TRP53       0.0152
      9  NE1      -51.3330  -63.0360   60.9010 N.ar   53  TRP53      -0.2442
     10  CE2      -50.2920  -62.9610   61.7890 C.ar   53  TRP53       0.0810
     11  CE3      -49.9370  -63.2510   64.1600 C.ar   53  TRP53       0.0012
     12  CZ2      -48.9490  -62.6560   61.5780 C.ar   53  TRP53       0.0191
     13  CZ3      -48.6050  -62.9480   63.9490 C.ar   53  TRP53       0.0001
     14  CH2      -48.1240  -62.6550   62.6680 C.ar   53  TRP53       0.0015
     15  N        -54.2070  -68.0960   59.6220 N.3    57  ASN57      -0.1240
     16  CA       -53.3570  -68.1890   58.4390 C.3    57  ASN57       0.1653
     17  C        -53.3520  -69.6040   57.8750 C.2    57  ASN57       0.2266
     18  O        -53.4190  -69.7950   56.6560 O.2    57  ASN57      -0.2867
     19  CB       -51.9330  -67.7470   58.7760 C.3    57  ASN57       0.1155
     20  CG       -51.8450  -66.2760   59.1320 C.2    57  ASN57       0.2627
     21  OD1      -52.5440  -65.4430   58.5550 O.2    57  ASN57      -0.2716
     22  ND2      -50.9830  -65.9490   60.0870 N.am   57  ASN57      -0.0877
     23  N        -49.4030  -63.4430   49.1750 N.3   110  GLY110     -0.1210
     24  CA       -48.1680  -62.7000   49.3270 C.3   110  GLY110      0.1956
     25  C        -47.2770  -63.2930   50.3970 C.2   110  GLY110      0.2611
     26  O        -46.0640  -63.4150   50.2070 O.2   110  GLY110     -0.2717
     27  N        -47.8690  -63.6620   51.5340 N.am  111  VAL111     -0.1979
     28  CA       -47.1370  -64.3680   52.5800 C.3   111  VAL111      0.1595
     29  C        -46.7990  -65.7570   52.0620 C.2   111  VAL111      0.2287
     30  O        -47.5750  -66.7050   52.2320 O.2   111  VAL111     -0.2864
     31  CB       -47.9390  -64.4460   53.8920 C.3   111  VAL111      0.0276
     32  CG1      -47.1560  -65.2100   54.9530 C.3   111  VAL111      0.0022
     33  CG2      -48.2630  -63.0600   54.3860 C.3   111  VAL111      0.0022
     34  N        -40.1350  -59.8620   47.1420 N.3   360  SER360     -0.1202
     35  CA       -40.0140  -58.4390   47.4380 C.3   360  SER360      0.2020
     36  C        -40.9170  -57.9850   48.5770 C.2   360  SER360      0.2619
     37  O        -40.7740  -56.8480   49.0390 O.2   360  SER360     -0.2717
     38  CB       -40.3210  -57.6190   46.1840 C.3   360  SER360      0.2103
     39  OG       -41.6380  -57.8650   45.7250 O.3   360  SER360     -0.2182
     40  N        -41.8330  -58.8330   49.0420 N.am  361  ALA361     -0.1965
     41  CA       -42.7900  -58.4380   50.0650 C.3   361  ALA361      0.1728
     42  C        -42.3560  -58.8010   51.4790 C.2   361  ALA361      0.2616
     43  O        -42.8150  -58.1620   52.4320 O.2   361  ALA361     -0.2715
     44  CB       -44.1570  -59.0720   49.7790 C.3   361  ALA361      0.0334
     45  N        -41.4830  -59.7930   51.6400 N.am  362  LEU362     -0.1977
     46  CA       -41.0740  -60.2500   52.9630 C.3   362  LEU362      0.1596
     47  C        -39.8850  -59.4650   53.5070 C.2   362  LEU362      0.2287
     48  O        -39.8470  -59.1540   54.7030 O.2   362  LEU362     -0.2864
     49  CB       -40.7400  -61.7430   52.9130 C.3   362  LEU362      0.0297
     50  CG       -40.7280  -62.5770   54.1980 C.3   362  LEU362      0.0022
     51  CD1      -39.3980  -62.4650   54.9340 C.3   362  LEU362      0.0001
     52  CD2      -41.8890  -62.1850   55.1010 C.3   362  LEU362      0.0001
     53  N        -38.8630  -56.2850   52.9370 N.3   364  THR364     -0.1203
     54  CA       -39.2240  -54.9530   53.4060 C.3   364  THR364      0.1994
     55  C        -40.1830  -55.0140   54.5880 C.2   364  THR364      0.2617
     56  O        -40.2050  -54.0950   55.4150 O.2   364  THR364     -0.2717
     57  CB       -39.8330  -54.1500   52.2590 C.3   364  THR364      0.1784
     58  OG1      -39.0780  -54.3790   51.0630 O.3   364  THR364     -0.2211
     59  CG2      -39.8030  -52.6770   52.5780 C.3   364  THR364      0.0376
     60  N        -40.9790  -56.0810   54.6820 N.am  365  HIS365     -0.1975
     61  CA       -41.8130  -56.2940   55.8600 C.3   365  HIS365      0.1656
     62  C        -40.9640  -56.3310   57.1240 C.2   365  HIS365      0.2291
     63  O        -41.1380  -55.5100   58.0320 O.2   365  HIS365     -0.2864
     64  CB       -42.6120  -57.5900   55.7040 C.3   365  HIS365      0.0771
     65  CG       -43.1680  -58.1180   56.9900 C.ar  365  HIS365      0.0820
     66  ND1      -42.6120  -59.1880   57.6570 N.ar  365  HIS365     -0.2267
     67  CD2      -44.2310  -57.7250   57.7310 C.ar  365  HIS365      0.1154
     68  CE1      -43.3080  -59.4320   58.7530 C.ar  365  HIS365      0.1986
     69  NE2      -44.2960  -58.5580   58.8210 N.ar  365  HIS365     -0.2212
     70  N        -39.1110  -52.8910   57.7990 N.3   368  TYR368     -0.1227
     71  CA       -39.8670  -51.8420   58.4770 C.3   368  TYR368      0.1736
     72  C        -40.0800  -52.1760   59.9490 C.2   368  TYR368      0.2595
     73  O        -40.0280  -51.2860   60.8060 O.2   368  TYR368     -0.2718
     74  CB       -41.2120  -51.6230   57.7850 C.3   368  TYR368      0.0548
     75  CG       -41.1580  -50.7860   56.5230 C.ar  368  TYR368     -0.0200
     76  CD1      -40.0100  -50.7330   55.7430 C.ar  368  TYR368     -0.0009
     77  CD2      -42.2580  -50.0400   56.1180 C.ar  368  TYR368     -0.0009
     78  CE1      -39.9650  -49.9680   54.5910 C.ar  368  TYR368      0.0417
     79  CE2      -42.2190  -49.2710   54.9710 C.ar  368  TYR368      0.0417
     80  CZ       -41.0710  -49.2380   54.2110 C.ar  368  TYR368      0.1957
     81  OH       -41.0270  -48.4750   53.0670 O.3   368  TYR368     -0.2866
     82  N        -40.3280  -53.4500   60.2620 N.am  369  ILE369     -0.1980
     83  CA       -40.5180  -53.8370   61.6560 C.3   369  ILE369      0.1595
     84  C        -39.2000  -53.7630   62.4160 C.2   369  ILE369      0.2287
     85  O        -39.1880  -53.5210   63.6300 O.2   369  ILE369     -0.2864
     86  CB       -41.1510  -55.2380   61.7430 C.3   369  ILE369      0.0276
     87  CG1      -42.3960  -55.3190   60.8580 C.3   369  ILE369      0.0022
     88  CG2      -41.5300  -55.5630   63.1760 C.3   369  ILE369      0.0022
     89  CD1      -43.4690  -54.3140   61.2120 C.3   369  ILE369      0.0001
     90  N        -39.0150  -50.2680   63.3840 N.3   372  LEU372     -0.1245
     91  CA       -39.9570  -50.0740   64.4820 C.3   372  LEU372      0.1561
     92  C        -39.3360  -50.4800   65.8130 C.2   372  LEU372      0.2260
     93  O        -39.2860  -49.6810   66.7560 O.2   372  LEU372     -0.2867
     94  CB       -41.2430  -50.8600   64.2220 C.3   372  LEU372      0.0270
     95  CG       -42.2030  -50.2830   63.1790 C.3   372  LEU372      0.0019
     96  CD1      -43.4820  -51.1050   63.1110 C.3   372  LEU372      0.0001
     97  CD2      -42.5140  -48.8270   63.4860 C.3   372  LEU372      0.0001
     98  N        -55.2610  -53.1880   43.6840 N.3   637  TRP637     -0.1241
     99  CA       -53.9880  -52.5830   44.0590 C.3   637  TRP637      0.1605
    100  C        -53.8800  -51.1520   43.5490 C.2   637  TRP637      0.2264
    101  O        -53.4650  -50.2530   44.2890 O.2   637  TRP637     -0.2867
    102  CB       -52.8370  -53.4390   43.5350 C.3   637  TRP637      0.0550
    103  CG       -52.7690  -54.7500   44.2260 C.ar  637  TRP637      0.0003
    104  CD1      -53.1110  -55.9690   43.7180 C.ar  637  TRP637      0.0946
    105  CD2      -52.3620  -54.9760   45.5760 C.ar  637  TRP637      0.0152
    106  NE1      -52.9250  -56.9440   44.6680 N.ar  637  TRP637     -0.2442
    107  CE2      -52.4670  -56.3580   45.8190 C.ar  637  TRP637      0.0810
    108  CE3      -51.9100  -54.1420   46.6030 C.ar  637  TRP637      0.0012
    109  CZ2      -52.1360  -56.9250   47.0450 C.ar  637  TRP637      0.0191
    110  CZ3      -51.5840  -54.7060   47.8170 C.ar  637  TRP637      0.0001
    111  CH2      -51.6970  -56.0820   48.0290 C.ar  637  TRP637      0.0015
    112  N        -55.7380  -49.1260   45.9620 N.3   640  MET640     -0.1245
    113  CA       -55.0350  -48.9070   47.2220 C.3   640  MET640      0.1570
    114  C        -53.9790  -47.8190   47.0820 C.2   640  MET640      0.2261
    115  O        -53.8220  -46.9770   47.9740 O.2   640  MET640     -0.2867
    116  CB       -54.3980  -50.2120   47.7020 C.3   640  MET640      0.0387
    117  CG       -53.5960  -50.0730   48.9890 C.3   640  MET640      0.0595
    118  SD       -52.6360  -51.5450   49.3960 S.3   640  MET640     -0.1393
    119  CE       -53.9360  -52.7500   49.6390 C.3   640  MET640      0.0692
    120  N        -49.3660  -45.1030   58.1560 N.3   706  VAL706     -0.1245
    121  CA       -50.1530  -46.1010   57.4330 C.3   706  VAL706      0.1561
    122  C        -50.4130  -45.6660   55.9950 C.2   706  VAL706      0.2260
    123  O        -50.5010  -46.5100   55.0950 O.2   706  VAL706     -0.2867
    124  CB       -51.4670  -46.4070   58.1780 C.3   706  VAL706      0.0252
    125  CG1      -51.1790  -46.8610   59.6020 C.3   706  VAL706      0.0019
    126  CG2      -52.4010  -45.2050   58.1690 C.3   706  VAL706      0.0019
    127  N        -47.1870  -46.4870   54.3430 N.3   709  ILE709     -0.1231
    128  CA       -47.0710  -47.9410   54.2510 C.3   709  ILE709      0.1692
    129  C        -47.9220  -48.4660   53.1020 C.2   709  ILE709      0.2591
    130  O        -47.4660  -49.2770   52.2880 O.2   709  ILE709     -0.2718
    131  CB       -47.4600  -48.5970   55.5880 C.3   709  ILE709      0.0266
    132  CG1      -46.4590  -48.2200   56.6810 C.3   709  ILE709      0.0019
    133  CG2      -47.5410  -50.1080   55.4390 C.3   709  ILE709      0.0020
    134  CD1      -47.0240  -48.3240   58.0820 C.3   709  ILE709      0.0001
    135  N        -49.1730  -48.0070   53.0180 N.am  710  LEU710     -0.1980
    136  CA       -50.0280  -48.3860   51.9010 C.3   710  LEU710      0.1596
    137  C        -49.5670  -47.7660   50.5880 C.2   710  LEU710      0.2287
    138  O        -49.8950  -48.2950   49.5210 O.2   710  LEU710     -0.2864
    139  CB       -51.4780  -47.9910   52.1870 C.3   710  LEU710      0.0297
    140  CG       -52.1480  -48.7040   53.3640 C.3   710  LEU710      0.0022
    141  CD1      -53.5460  -48.1540   53.6030 C.3   710  LEU710      0.0001
    142  CD2      -52.1910  -50.2060   53.1300 C.3   710  LEU710      0.0001
    143  N        -46.5020  -47.7130   49.5830 N.3   712  TYR712     -0.1227
    144  CA       -45.5530  -48.6820   49.0650 C.3   712  TYR712      0.1736
    145  C        -46.0950  -50.1040   49.0490 C.2   712  TYR712      0.2595
    146  O        -45.5120  -50.9620   48.3780 O.2   712  TYR712     -0.2718
    147  CB       -44.2560  -48.6460   49.8790 C.3   712  TYR712      0.0548
    148  CG       -43.0820  -49.2070   49.1210 C.ar  712  TYR712     -0.0200
    149  CD1      -42.5750  -48.5460   48.0110 C.ar  712  TYR712     -0.0009
    150  CD2      -42.4890  -50.3990   49.5030 C.ar  712  TYR712     -0.0009
    151  CE1      -41.5080  -49.0560   47.3050 C.ar  712  TYR712      0.0417
    152  CE2      -41.4190  -50.9150   48.8050 C.ar  712  TYR712      0.0417
    153  CZ       -40.9320  -50.2390   47.7060 C.ar  712  TYR712      0.1957
    154  OH       -39.8640  -50.7480   47.0030 O.3   712  TYR712     -0.2866
    155  N        -47.1910  -50.3750   49.7610 N.am  713  ALA713     -0.1980
    156  CA       -47.7580  -51.7180   49.7770 C.3   713  ALA713      0.1597
    157  C        -48.6090  -52.0120   48.5500 C.2   713  ALA713      0.2287
    158  O        -48.8800  -53.1840   48.2700 O.2   713  ALA713     -0.2864
    159  CB       -48.5950  -51.9290   51.0400 C.3   713  ALA713      0.0319
    160  N        -45.7280  -52.2700   45.0640 N.3   716  VAL716     -0.1231
    161  CA       -44.9010  -53.4680   44.9250 C.3   716  VAL716      0.1692
    162  C        -45.6720  -54.5770   44.2200 C.2   716  VAL716      0.2591
    163  O        -45.2150  -55.1300   43.2130 O.2   716  VAL716     -0.2718
    164  CB       -44.3920  -53.9330   46.3000 C.3   716  VAL716      0.0266
    165  CG1      -43.7110  -55.2860   46.1790 C.3   716  VAL716      0.0020
    166  CG2      -43.4390  -52.9120   46.8760 C.3   716  VAL716      0.0020
    167  N        -46.8540  -54.9150   44.7390 N.am  717  ILE717     -0.1980
    168  CA       -47.5970  -56.0650   44.2270 C.3   717  ILE717      0.1595
    169  C        -47.9370  -55.8720   42.7540 C.2   717  ILE717      0.2287
    170  O        -47.6320  -56.7240   41.9110 O.2   717  ILE717     -0.2864
    171  CB       -48.8640  -56.3040   45.0670 C.3   717  ILE717      0.0276
    172  CG1      -48.5320  -56.2550   46.5590 C.3   717  ILE717      0.0022
    173  CG2      -49.4940  -57.6390   44.7020 C.3   717  ILE717      0.0022
    174  CD1      -47.5870  -57.3430   47.0150 C.3   717  ILE717      0.0001
@<TRIPOS>BOND
     1   170   169    2
     2   169   168    1
     3   163   162    2
     4   102    99    1
     5   102   103    1
     6   100    99    1
     7   100   101    2
     8    98    99    1
     9   104   103   ar
    10   104   106   ar
    11   162   167   am
    12   162   161    1
    13   103   105   ar
    14   168   167    1
    15   168   171    1
    16   106   107   ar
    17   173   171    1
    18   161   160    1
    19   161   164    1
    20   171   172    1
    21   105   107   ar
    22   105   108   ar
    23    39    38    1
    24   107   109   ar
    25   112   113    1
    26   165   164    1
    27    38    35    1
    28   164   166    1
    29   172   174    1
    30   108   110   ar
    31   154   153    1
    32   109   111   ar
    33   114   113    1
    34   114   115    2
    35    34    35    1
    36   113   116    1
    37   151   153   ar
    38   151   149   ar
    39    35    36    1
    40   116   117    1
    41   153   152   ar
    42   110   111   ar
    43   149   148   ar
    44   158   157    2
    45   146   145    2
    46   157   156    1
    47    36    37    2
    48    36    40   am
    49   152   150   ar
    50   117   118    1
    51    40    41    1
    52   145   144    1
    53   145   155   am
    54   144   143    1
    55   144   147    1
    56   148   150   ar
    57   148   147    1
    58    23    24    1
    59    24    25    1
    60   118   119    1
    61   138   137    2
    62   155   156    1
    63   156   159    1
    64    44    41    1
    65    41    42    1
    66    26    25    2
    67    25    27   am
    68   137   136    1
    69    58    57    1
    70    42    45   am
    71    42    43    2
    72    27    28    1
    73    45    46    1
    74   136   139    1
    75   136   135    1
    76    29    30    2
    77    29    28    1
    78   139   140    1
    79    57    59    1
    80    57    54    1
    81   130   129    2
    82    28    31    1
    83    49    46    1
    84    49    50    1
    85    53    54    1
    86    46    47    1
    87   135   129   am
    88    81    80    1
    89   129   128    1
    90   142   140    1
    91   140   141    1
    92    54    55    1
    93    47    48    2
    94    31    33    1
    95    31    32    1
    96    50    51    1
    97    50    52    1
    98    80    78   ar
    99    80    79   ar
   100   128   127    1
   101   128   131    1
   102    55    60   am
   103    55    56    2
   104    78    76   ar
   105    60    61    1
   106    79    77   ar
   107   123   122    2
   108   133   131    1
   109   131   132    1
   110    64    61    1
   111    64    65    1
   112    76    75   ar
   113    61    62    1
   114   122   121    1
   115    77    75   ar
   116    75    74    1
   117    18    17    2
   118   132   134    1
   119    65    66   ar
   120    65    67   ar
   121    62    63    2
   122   121   120    1
   123   121   124    1
   124    66    68   ar
   125    67    69   ar
   126    74    71    1
   127    70    71    1
   128    17    16    1
   129   126   124    1
   130   124   125    1
   131    16    19    1
   132    16    15    1
   133    71    72    1
   134    21    20    2
   135    68    69   ar
   136    19    20    1
   137    20    22   am
   138    72    82   am
   139    72    73    2
   140    82    83    1
   141    87    89    1
   142    87    86    1
   143     9     7   ar
   144     9    10   ar
   145    12    10   ar
   146    12    14   ar
   147     7     6   ar
   148    83    86    1
   149    83    84    1
   150    86    88    1
   151    10     8   ar
   152     4     3    2
   153    84    85    2
   154    14    13   ar
   155     6     8   ar
   156     6     5    1
   157     8    11   ar
   158     3     2    1
   159    96    95    1
   160    95    97    1
   161    95    94    1
   162    90    91    1
   163     2     5    1
   164     2     1    1
   165    13    11   ar
   166    94    91    1
   167    91    92    1
   168    92    93    2
