@<TRIPOS>MOLECULE
tmp/6fosD46.pdb
 102 101 0 0 0
SMALL
GASTEIGER

@<TRIPOS>ATOM
      1  N        -37.2300  -30.7560   45.9030 N.3   666  PHE666     -0.1241
      2  CA       -36.2590  -30.6300   46.9850 C.3   666  PHE666      0.1605
      3  C        -36.6330  -29.4940   47.9260 C.2   666  PHE666      0.2264
      4  O        -36.7390  -29.6890   49.1420 O.2   666  PHE666     -0.2867
      5  CB       -34.8640  -30.4090   46.4030 C.3   666  PHE666      0.0534
      6  CG       -33.7860  -30.2470   47.4360 C.ar  666  PHE666     -0.0203
      7  CD1      -33.1120  -31.3500   47.9290 C.ar  666  PHE666     -0.0042
      8  CD2      -33.4300  -28.9880   47.8970 C.ar  666  PHE666     -0.0042
      9  CE1      -32.1120  -31.2050   48.8720 C.ar  666  PHE666     -0.0003
     10  CE2      -32.4330  -28.8360   48.8390 C.ar  666  PHE666     -0.0003
     11  CZ       -31.7720  -29.9450   49.3260 C.ar  666  PHE666     -0.0000
     12  N        -40.0190  -30.2510   49.7220 N.3   669  ALA669     -0.1231
     13  CA       -39.8060  -31.1220   50.8680 C.3   669  ALA669      0.1694
     14  C        -38.8940  -30.4780   51.9020 C.2   669  ALA669      0.2592
     15  O        -38.9360  -30.8600   53.0760 O.2   669  ALA669     -0.2718
     16  CB       -39.2420  -32.4660   50.4110 C.3   669  ALA669      0.0304
     17  N        -38.0740  -29.5080   51.4890 N.am  670  PHE670     -0.1976
     18  CA       -37.3310  -28.7000   52.4490 C.3   670  PHE670      0.1639
     19  C        -38.2690  -27.8570   53.3040 C.2   670  PHE670      0.2290
     20  O        -37.9450  -27.5460   54.4560 O.2   670  PHE670     -0.2864
     21  CB       -36.3250  -27.8170   51.7090 C.3   670  PHE670      0.0560
     22  CG       -35.3960  -27.0540   52.6090 C.ar  670  PHE670     -0.0200
     23  CD1      -34.3030  -27.6770   53.1890 C.ar  670  PHE670     -0.0042
     24  CD2      -35.6020  -25.7070   52.8560 C.ar  670  PHE670     -0.0042
     25  CE1      -33.4410  -26.9740   54.0110 C.ar  670  PHE670     -0.0003
     26  CE2      -34.7440  -24.9980   53.6770 C.ar  670  PHE670     -0.0003
     27  CZ       -33.6620  -25.6330   54.2560 C.ar  670  PHE670     -0.0000
     28  N        -40.9870  -29.0800   54.3460 N.3   672  LEU672     -0.1231
     29  CA       -41.4410  -30.0590   55.3250 C.3   672  LEU672      0.1693
     30  C        -40.5300  -30.1360   56.5440 C.2   672  LEU672      0.2591
     31  O        -40.8390  -30.8820   57.4790 O.2   672  LEU672     -0.2718
     32  CB       -41.5600  -31.4440   54.6810 C.3   672  LEU672      0.0284
     33  CG       -42.3290  -31.5690   53.3620 C.3   672  LEU672      0.0019
     34  CD1      -42.3750  -33.0240   52.9150 C.3   672  LEU672      0.0001
     35  CD2      -43.7320  -30.9900   53.4610 C.3   672  LEU672      0.0001
     36  N        -39.4180  -29.4010   56.5560 N.am  673  MET673     -0.1979
     37  CA       -38.5910  -29.3290   57.7550 C.3   673  MET673      0.1605
     38  C        -39.1390  -28.3090   58.7440 C.2   673  MET673      0.2287
     39  O        -39.1140  -28.5400   59.9580 O.2   673  MET673     -0.2864
     40  CB       -37.1490  -28.9810   57.3820 C.3   673  MET673      0.0413
     41  CG       -36.2150  -28.8770   58.5770 C.3   673  MET673      0.0598
     42  SD       -34.7190  -27.9340   58.2300 S.3   673  MET673     -0.1393
     43  CE       -34.0050  -28.9020   56.9060 C.3   673  MET673      0.0692
     44  N        -43.2340  -28.8360   60.3390 N.3   676  PHE676     -0.1227
     45  CA       -43.5270  -30.0450   61.0990 C.3   676  PHE676      0.1736
     46  C        -42.8190  -30.0530   62.4490 C.2   676  PHE676      0.2596
     47  O        -43.3540  -30.5780   63.4310 O.2   676  PHE676     -0.2718
     48  CB       -43.1370  -31.2860   60.2900 C.3   676  PHE676      0.0547
     49  CG       -43.9900  -31.5100   59.0710 C.ar  676  PHE676     -0.0202
     50  CD1      -44.9960  -32.4570   59.0780 C.ar  676  PHE676     -0.0042
     51  CD2      -43.7870  -30.7710   57.9180 C.ar  676  PHE676     -0.0042
     52  CE1      -45.7800  -32.6630   57.9550 C.ar  676  PHE676     -0.0003
     53  CE2      -44.5690  -30.9710   56.7990 C.ar  676  PHE676     -0.0003
     54  CZ       -45.5650  -31.9180   56.8170 C.ar  676  PHE676     -0.0000
     55  N        -41.6220  -29.4770   62.5110 N.am  677  SER677     -0.1952
     56  CA       -40.8380  -29.4730   63.7350 C.3   677  SER677      0.1924
     57  C        -41.1050  -28.1970   64.5340 C.2   677  SER677      0.2314
     58  O        -41.8600  -27.3150   64.1170 O.2   677  SER677     -0.2863
     59  CB       -39.3540  -29.6290   63.4110 C.3   677  SER677      0.2116
     60  OG       -38.5760  -29.7070   64.5940 O.3   677  SER677     -0.2180
     61  N        -37.0280  -28.0080   70.1110 N.3   681  TYR681     -0.1227
     62  CA       -36.0090  -29.0100   69.8150 C.3   681  TYR681      0.1736
     63  C        -34.8230  -28.3930   69.0870 C.2   681  TYR681      0.2595
     64  O        -33.6670  -28.6970   69.4040 O.2   681  TYR681     -0.2718
     65  CB       -36.6100  -30.1460   68.9880 C.3   681  TYR681      0.0548
     66  CG       -35.5760  -31.0660   68.3810 C.ar  681  TYR681     -0.0200
     67  CD1      -34.9900  -32.0750   69.1330 C.ar  681  TYR681     -0.0009
     68  CD2      -35.1840  -30.9240   67.0560 C.ar  681  TYR681     -0.0009
     69  CE1      -34.0410  -32.9180   68.5820 C.ar  681  TYR681      0.0417
     70  CE2      -34.2370  -31.7590   66.4990 C.ar  681  TYR681      0.0417
     71  CZ       -33.6700  -32.7550   67.2640 C.ar  681  TYR681      0.1957
     72  OH       -32.7270  -33.5900   66.7080 O.3   681  TYR681     -0.2866
     73  N        -35.0880  -27.5270   68.1070 N.am  682  TRP682     -0.1976
     74  CA       -33.9930  -26.9100   67.3710 C.3   682  TRP682      0.1640
     75  C        -33.1880  -25.9630   68.2490 C.2   682  TRP682      0.2290
     76  O        -31.9770  -25.8290   68.0500 O.2   682  TRP682     -0.2864
     77  CB       -34.5270  -26.1850   66.1370 C.3   682  TRP682      0.0576
     78  CG       -35.0470  -27.1200   65.0910 C.ar  682  TRP682      0.0006
     79  CD1      -36.3430  -27.5000   64.9050 C.ar  682  TRP682      0.0946
     80  CD2      -34.2810  -27.8070   64.0930 C.ar  682  TRP682      0.0152
     81  NE1      -36.4340  -28.3740   63.8500 N.ar  682  TRP682     -0.2442
     82  CE2      -35.1820  -28.5810   63.3350 C.ar  682  TRP682      0.0810
     83  CE3      -32.9230  -27.8400   63.7660 C.ar  682  TRP682      0.0012
     84  CZ2      -34.7690  -29.3770   62.2700 C.ar  682  TRP682      0.0191
     85  CZ3      -32.5170  -28.6300   62.7090 C.ar  682  TRP682      0.0001
     86  CH2      -33.4360  -29.3880   61.9730 C.ar  682  TRP682      0.0015
     87  N        -30.9040  -27.8270   69.8770 N.3   685  LEU685     -0.1245
     88  CA       -29.9110  -28.2900   68.9160 C.3   685  LEU685      0.1561
     89  C        -28.7750  -27.2890   68.7370 C.2   685  LEU685      0.2260
     90  O        -27.6340  -27.7000   68.5010 O.2   685  LEU685     -0.2867
     91  CB       -30.5880  -28.5910   67.5730 C.3   685  LEU685      0.0270
     92  CG       -29.8110  -29.3070   66.4610 C.3   685  LEU685      0.0019
     93  CD1      -29.0720  -28.3210   65.5630 C.3   685  LEU685      0.0001
     94  CD2      -28.8500  -30.3390   67.0400 C.3   685  LEU685      0.0001
     95  N        -24.1420  -27.1820   69.4120 N.3   689  ILE689     -0.1245
     96  CA       -23.2110  -26.5690   68.4700 C.3   689  ILE689      0.1561
     97  C        -22.5430  -25.3550   69.0980 C.2   689  ILE689      0.2260
     98  O        -21.3670  -25.0730   68.8330 O.2   689  ILE689     -0.2867
     99  CB       -23.9480  -26.2000   67.1670 C.3   689  ILE689      0.0252
    100  CG1      -24.7150  -27.4080   66.6270 C.3   689  ILE689      0.0019
    101  CG2      -22.9730  -25.6880   66.1270 C.3   689  ILE689      0.0019
    102  CD1      -25.5590  -27.1000   65.4090 C.3   689  ILE689      0.0001
@<TRIPOS>BOND
     1     1     2    1
     2     5     2    1
     3     5     6    1
     4     2     3    1
     5     6     8   ar
     6     6     7   ar
     7     8    10   ar
     8     3     4    2
     9     7     9   ar
    10    10    11   ar
    11     9    11   ar
    12    12    13    1
    13    16    13    1
    14    13    14    1
    15    17    14   am
    16    17    18    1
    17    21    18    1
    18    21    22    1
    19    14    15    2
    20    18    19    1
    21    22    24   ar
    22    22    23   ar
    23    24    26   ar
    24    34    33    1
    25    23    25   ar
    26    19    20    2
    27    33    35    1
    28    33    32    1
    29    26    27   ar
    30    25    27   ar
    31    28    29    1
    32    32    29    1
    33    29    30    1
    34    30    36   am
    35    30    31    2
    36    36    37    1
    37    53    54   ar
    38    53    51   ar
    39    54    52   ar
    40    43    42    1
    41    40    37    1
    42    40    41    1
    43    37    38    1
    44    51    49   ar
    45    52    50   ar
    46    42    41    1
    47    38    39    2
    48    49    50   ar
    49    49    48    1
    50    48    45    1
    51    44    45    1
    52    45    46    1
    53    86    84   ar
    54    86    85   ar
    55    84    82   ar
    56    46    55   am
    57    46    47    2
    58    55    56    1
    59    85    83   ar
    60    82    81   ar
    61    82    80   ar
    62    59    56    1
    63    59    60    1
    64    56    57    1
    65    83    80   ar
    66    81    79   ar
    67    80    78   ar
    68    58    57    2
    69    79    78   ar
    70    78    77    1
    71   102   100    1
    72    93    92    1
    73   101    99    1
    74    77    74    1
    75    92    94    1
    76    92    91    1
    77    70    68   ar
    78    70    71   ar
    79   100    99    1
    80    72    71    1
    81    68    66   ar
    82    99    96    1
    83    71    69   ar
    84    74    73    1
    85    74    75    1
    86    91    88    1
    87    76    75    2
    88    73    63   am
    89    66    65    1
    90    66    67   ar
    91    96    97    1
    92    96    95    1
    93    90    89    2
    94    69    67   ar
    95    89    88    1
    96    98    97    2
    97    88    87    1
    98    65    62    1
    99    63    64    2
   100    63    62    1
   101    62    61    1
