@<TRIPOS>MOLECULE
tmp/6fosE15.pdb
 119 107 0 0 0
SMALL
GASTEIGER

@<TRIPOS>ATOM
      1  N        -31.1330  -55.8470   66.0780 N.3   334  VAL334     -0.1245
      2  CA       -29.8810  -56.2250   65.4250 C.3   334  VAL334      0.1561
      3  C        -30.0830  -57.4990   64.6180 C.2   334  VAL334      0.2260
      4  O        -29.7520  -57.5680   63.4280 O.2   334  VAL334     -0.2867
      5  CB       -28.7600  -56.4000   66.4660 C.3   334  VAL334      0.0252
      6  CG1      -27.4600  -56.8010   65.7840 C.3   334  VAL334      0.0019
      7  CG2      -28.5760  -55.1320   67.2710 C.3   334  VAL334      0.0019
      8  N        -32.5790  -56.8750   61.4210 N.3   337  SER337     -0.1217
      9  CA       -31.9020  -56.4310   60.2080 C.3   337  SER337      0.1889
     10  C        -30.9630  -57.5050   59.6770 C.2   337  SER337      0.2288
     11  O        -30.7880  -57.6320   58.4600 O.2   337  SER337     -0.2866
     12  CB       -31.1330  -55.1360   60.4720 C.3   337  SER337      0.2089
     13  OG       -32.0160  -54.0610   60.7390 O.3   337  SER337     -0.2183
     14  N        -31.2460  -59.1820   55.9830 N.3   341  GLN341     -0.1245
     15  CA       -30.0850  -59.3090   55.1100 C.3   341  GLN341      0.1566
     16  C        -29.7260  -60.7580   54.8070 C.2   341  GLN341      0.2260
     17  O        -28.9410  -61.0010   53.8850 O.2   341  GLN341     -0.2867
     18  CB       -28.8820  -58.5990   55.7320 C.3   341  GLN341      0.0367
     19  CG       -29.0020  -57.0860   55.7500 C.3   341  GLN341      0.0905
     20  CD       -29.0740  -56.4960   54.3550 C.2   341  GLN341      0.2608
     21  OE1      -30.0920  -55.9280   53.9600 O.2   341  GLN341     -0.2717
     22  NE2      -27.9880  -56.6270   53.6020 N.am  341  GLN341     -0.0878
     23  N        -37.9640  -55.4630   57.3470 N.3   367  GLN367     -0.1245
     24  CA       -37.1330  -54.2650   57.3930 C.3   367  GLN367      0.1566
     25  C        -37.8420  -53.1380   58.1350 C.2   367  GLN367      0.2260
     26  O        -37.2560  -52.4950   59.0150 O.2   367  GLN367     -0.2867
     27  CB       -36.7620  -53.8350   55.9730 C.3   367  GLN367      0.0367
     28  CG       -35.6440  -52.8130   55.9040 C.3   367  GLN367      0.0905
     29  CD       -34.3530  -53.3180   56.5180 C.2   367  GLN367      0.2608
     30  OE1      -33.9600  -52.8940   57.6040 O.2   367  GLN367     -0.2717
     31  NE2      -33.6830  -54.2280   55.8200 N.am  367  GLN367     -0.0878
     32  N        -38.0740  -53.9650   61.7260 N.3   370  ALA370     -0.1231
     33  CA       -36.7730  -53.7510   62.3510 C.3   370  ALA370      0.1694
     34  C        -36.6180  -52.3020   62.7870 C.2   370  ALA370      0.2592
     35  O        -36.2310  -52.0190   63.9270 O.2   370  ALA370     -0.2718
     36  CB       -35.6520  -54.1410   61.3890 C.3   370  ALA370      0.0304
     37  N        -36.9160  -51.3670   61.8830 N.am  371  GLY371     -0.1957
     38  CA       -36.8850  -49.9620   62.2500 C.3   371  GLY371      0.1869
     39  C        -37.8370  -49.6390   63.3830 C.2   371  GLY371      0.2309
     40  O        -37.5190  -48.8350   64.2620 O.2   371  GLY371     -0.2863
     41  N        -36.3270  -50.7840   66.6970 N.3   374  ILE374     -0.1245
     42  CA       -35.2410  -49.8800   67.0680 C.3   374  ILE374      0.1561
     43  C        -35.7960  -48.6410   67.7570 C.2   374  ILE374      0.2260
     44  O        -35.2980  -48.2130   68.8050 O.2   374  ILE374     -0.2867
     45  CB       -34.4050  -49.5110   65.8300 C.3   374  ILE374      0.0252
     46  CG1      -33.6510  -50.7360   65.3130 C.3   374  ILE374      0.0019
     47  CG2      -33.4350  -48.3880   66.1550 C.3   374  ILE374      0.0019
     48  CD1      -33.0260  -50.5460   63.9570 C.3   374  ILE374      0.0001
     49  N        -35.3880  -47.2780   71.7210 N.3   378  PHE378     -0.1241
     50  CA       -34.8240  -45.9810   72.0800 C.3   378  PHE378      0.1605
     51  C        -35.8410  -45.0940   72.7860 C.2   378  PHE378      0.2264
     52  O        -35.4680  -44.3120   73.6680 O.2   378  PHE378     -0.2867
     53  CB       -34.2770  -45.2870   70.8340 C.3   378  PHE378      0.0534
     54  CG       -33.0700  -45.9610   70.2510 C.ar  378  PHE378     -0.0203
     55  CD1      -32.2750  -46.7810   71.0340 C.ar  378  PHE378     -0.0042
     56  CD2      -32.7300  -45.7800   68.9220 C.ar  378  PHE378     -0.0042
     57  CE1      -31.1640  -47.4040   70.5030 C.ar  378  PHE378     -0.0003
     58  CE2      -31.6170  -46.3990   68.3860 C.ar  378  PHE378     -0.0003
     59  CZ       -30.8350  -47.2140   69.1770 C.ar  378  PHE378     -0.0000
     60  N        -28.9040  -42.8870   58.0630 N.3   518  LEU518     -0.1245
     61  CA       -28.8850  -43.7020   59.2740 C.3   518  LEU518      0.1561
     62  C        -28.1150  -43.0140   60.3950 C.2   518  LEU518      0.2260
     63  O        -28.5100  -43.0950   61.5640 O.2   518  LEU518     -0.2867
     64  CB       -28.2940  -45.0790   58.9680 C.3   518  LEU518      0.0270
     65  CG       -28.7010  -46.2240   59.8990 C.3   518  LEU518      0.0019
     66  CD1      -28.7220  -47.5410   59.1410 C.3   518  LEU518      0.0001
     67  CD2      -27.7650  -46.3170   61.0890 C.3   518  LEU518      0.0001
     68  N        -30.3700  -40.3090   61.6420 N.3   521  THR521     -0.1203
     69  CA       -31.4010  -40.9330   62.4630 C.3   521  THR521      0.1994
     70  C        -30.8490  -41.3460   63.8220 C.2   521  THR521      0.2618
     71  O        -31.5360  -41.2220   64.8440 O.2   521  THR521     -0.2717
     72  CB       -31.9870  -42.1400   61.7310 C.3   521  THR521      0.1784
     73  OG1      -32.4680  -41.7330   60.4440 O.3   521  THR521     -0.2211
     74  CG2      -33.1300  -42.7330   62.5180 C.3   521  THR521      0.0376
     75  N        -29.6050  -41.8280   63.8560 N.am  522  THR522     -0.1952
     76  CA       -28.9980  -42.2330   65.1210 C.3   522  THR522      0.1897
     77  C        -28.8720  -41.0480   66.0720 C.2   522  THR522      0.2313
     78  O        -29.2070  -41.1520   67.2580 O.2   522  THR522     -0.2863
     79  CB       -27.6310  -42.8690   64.8680 C.3   522  THR522      0.1794
     80  OG1      -27.7740  -43.9690   63.9610 O.3   522  THR522     -0.2208
     81  CG2      -27.0300  -43.3720   66.1720 C.3   522  THR522      0.0378
     82  N        -32.2990  -40.0710   67.4400 N.3   525  LEU525     -0.1245
     83  CA       -32.8200  -41.0090   68.4300 C.3   525  LEU525      0.1561
     84  C        -32.0780  -40.9220   69.7590 C.2   525  LEU525      0.2260
     85  O        -32.6580  -41.2310   70.8060 O.2   525  LEU525     -0.2867
     86  CB       -32.7520  -42.4400   67.8950 C.3   525  LEU525      0.0270
     87  CG       -34.0200  -43.0110   67.2540 C.3   525  LEU525      0.0019
     88  CD1      -35.2220  -42.8120   68.1650 C.3   525  LEU525      0.0001
     89  CD2      -34.2690  -42.4050   65.8900 C.3   525  LEU525      0.0001
     90  N        -37.3980  -42.4540   60.1700 N.3   574  MET574     -0.1245
     91  CA       -37.4630  -43.9040   60.0440 C.3   574  MET574      0.1570
     92  C        -38.0860  -44.3110   58.7190 C.2   574  MET574      0.2261
     93  O        -37.5180  -45.1180   57.9760 O.2   574  MET574     -0.2867
     94  CB       -38.2510  -44.4950   61.2090 C.3   574  MET574      0.0387
     95  CG       -37.6260  -44.2130   62.5460 C.3   574  MET574      0.0595
     96  SD       -35.9140  -44.7700   62.6160 S.3   574  MET574     -0.1393
     97  CE       -36.0850  -46.4900   62.1500 C.3   574  MET574      0.0692
     98  N        -35.6980  -43.1720   55.6130 N.3   577  THR577     -0.1203
     99  CA       -34.4310  -43.8920   55.5250 C.3   577  THR577      0.1994
    100  C        -34.6640  -45.3610   55.1960 C.2   577  THR577      0.2617
    101  O        -33.9960  -45.9270   54.3220 O.2   577  THR577     -0.2717
    102  CB       -33.6460  -43.7520   56.8290 C.3   577  THR577      0.1784
    103  OG1      -33.4130  -42.3660   57.1030 O.3   577  THR577     -0.2211
    104  CG2      -32.3090  -44.4720   56.7230 C.3   577  THR577      0.0376
    105  N        -35.6170  -45.9940   55.8850 N.am  578  ILE578     -0.1979
    106  CA       -35.9550  -47.3780   55.5880 C.3   578  ILE578      0.1595
    107  C        -36.6130  -47.5030   54.2190 C.2   578  ILE578      0.2287
    108  O        -36.6600  -48.6030   53.6550 O.2   578  ILE578     -0.2864
    109  CB       -36.8520  -47.9500   56.7030 C.3   578  ILE578      0.0276
    110  CG1      -36.5770  -49.4400   56.9040 C.3   578  ILE578      0.0022
    111  CG2      -38.3200  -47.6810   56.4150 C.3   578  ILE578      0.0022
    112  CD1      -35.2280  -49.7150   57.5320 C.3   578  ILE578      0.0001
    113  N        -33.4570  -47.5320   51.6680 N.3   581  VAL581     -0.1245
    114  CA       -32.8770  -48.8680   51.5710 C.3   581  VAL581      0.1561
    115  C        -33.7200  -49.7500   50.6600 C.2   581  VAL581      0.2260
    116  O        -33.1910  -50.5730   49.9030 O.2   581  VAL581     -0.2867
    117  CB       -32.7270  -49.4830   52.9750 C.3   581  VAL581      0.0252
    118  CG1      -32.1250  -50.8780   52.8910 C.3   581  VAL581      0.0019
    119  CG2      -31.8800  -48.5820   53.8630 C.3   581  VAL581      0.0019
@<TRIPOS>BOND
     1   116   115    2
     2   115   114    1
     3   114   113    1
     4   114   117    1
     5   118   117    1
     6   117   119    1
     7    22    20   am
     8   108   107    2
     9    17    16    2
    10    21    20    2
    11   107   106    1
    12   101   100    2
    13    20    19    1
    14    16    15    1
    15    15    18    1
    16    15    14    1
    17   100    99    1
    18   100   105   am
    19    99    98    1
    20    99   102    1
    21   106   105    1
    22   106   109    1
    23    18    19    1
    24    31    29   am
    25    28    27    1
    26    28    29    1
    27    27    24    1
    28   111   109    1
    29    29    30    2
    30   109   110    1
    31   104   102    1
    32   102   103    1
    33   110   112    1
    34    23    24    1
    35    24    25    1
    36    93    92    2
    37    60    61    1
    38    25    26    2
    39    11    10    2
    40    92    91    1
    41    64    61    1
    42    64    65    1
    43    66    65    1
    44    61    62    1
    45    10     9    1
    46    65    67    1
    47    91    90    1
    48    91    94    1
    49     9    12    1
    50     9     8    1
    51    62    63    2
    52    73    72    1
    53    12    13    1
    54    94    95    1
    55    36    33    1
    56    68    69    1
    57    32    33    1
    58    72    69    1
    59    72    74    1
    60    37    38    1
    61    37    34   am
    62    97    96    1
    63    38    39    1
    64    33    34    1
    65    69    70    1
    66    95    96    1
    67    34    35    2
    68    39    40    2
    69     4     3    2
    70    70    75   am
    71    70    71    2
    72    75    76    1
    73    48    46    1
    74    80    79    1
    75     3     2    1
    76    79    76    1
    77    79    81    1
    78    76    77    1
    79    46    45    1
    80     2     1    1
    81     2     5    1
    82     6     5    1
    83    45    47    1
    84    45    42    1
    85    89    87    1
    86    77    78    2
    87     5     7    1
    88    41    42    1
    89    42    43    1
    90    87    86    1
    91    87    88    1
    92    82    83    1
    93    43    44    2
    94    86    83    1
    95    58    56   ar
    96    58    59   ar
    97    83    84    1
    98    56    54   ar
    99    59    57   ar
   100    84    85    2
   101    54    53    1
   102    54    55   ar
   103    57    55   ar
   104    53    50    1
   105    49    50    1
   106    50    51    1
   107    51    52    2
